@<TRIPOS>MOLECULE
ICIGOT_geomtry_0_nunpairedes_0_charge_1 Charge: 1 Unpaired_Electrons: 1 XTB_Unpaired_Electrons: 0 XTB_Charge: 1
   119   132     1     0     0
SMALL
NoCharges
****
Generated from Architector

@<TRIPOS>ATOM
     1 Yb1      -0.3445    0.0943   -0.0802   Yb        1 RES1   0.0000
     2 C1        4.0883   -0.5885   -6.4610   C.3       1 RES1   0.0000
     3 C2        3.4274    0.3619   -5.4708   C.3       1 RES1   0.0000
     4 C3        2.2190   -0.2434   -4.7588   C.3       1 RES1   0.0000
     5 C4        1.0494   -0.5027   -5.7037   C.3       1 RES1   0.0000
     6 C5       -0.2474   -0.8755   -4.9928   C.3       1 RES1   0.0000
     7 C6       -0.3588   -2.3189   -4.4845   C.3       1 RES1   0.0000
     8 N1        0.6288   -2.7303   -3.4898   N.ar      1 RES1   0.0000
     9 C7        1.4440   -3.8325   -3.6601   C.ar      1 RES1   0.0000
    10 C8        1.3020   -4.6236   -4.9146   C.ar      1 RES1   0.0000
    11 C9        0.4435   -5.7214   -4.9543   C.ar      1 RES1   0.0000
    12 C10       0.3226   -6.4693   -6.1130   C.ar      1 RES1   0.0000
    13 C11       1.0588   -6.1308   -7.2374   C.ar      1 RES1   0.0000
    14 C12       1.9150   -5.0422   -7.2059   C.ar      1 RES1   0.0000
    15 C13       2.0352   -4.2917   -6.0495   C.ar      1 RES1   0.0000
    16 C14       2.3569   -4.2211   -2.7120   C.ar      1 RES1   0.0000
    17 C15       3.2405   -5.3899   -2.9555   C.ar      1 RES1   0.0000
    18 C16       4.3987   -5.2531   -3.7116   C.ar      1 RES1   0.0000
    19 C17       5.2400   -6.3364   -3.8898   C.ar      1 RES1   0.0000
    20 C18       4.9239   -7.5610   -3.3252   C.ar      1 RES1   0.0000
    21 C19       3.7633   -7.7068   -2.5848   C.ar      1 RES1   0.0000
    22 C20       2.9252   -6.6229   -2.3991   C.ar      1 RES1   0.0000
    23 C21       2.4531   -3.5050   -1.4716   C.ar      1 RES1   0.0000
    24 C22       3.3476   -3.7568   -0.4138   C.ar      1 RES1   0.0000
    25 C23       3.3314   -2.9413    0.7208   C.ar      1 RES1   0.0000
    26 C24       4.2089   -3.0460    1.8520   C.ar      1 RES1   0.0000
    27 C25       4.1555   -2.1852    2.8988   C.ar      1 RES1   0.0000
    28 C26       3.2255   -1.0933    2.9577   C.ar      1 RES1   0.0000
    29 C27       3.1460   -0.1279    3.9653   C.ar      1 RES1   0.0000
    30 C28       2.2035    0.9136    3.8622   C.ar      1 RES1   0.0000
    31 C29       2.0130    2.0034    4.7748   C.ar      1 RES1   0.0000
    32 C30       2.8768    2.1157    5.9777   C.ar      1 RES1   0.0000
    33 C31       3.9913    2.9473    5.9660   C.ar      1 RES1   0.0000
    34 C32       4.8196    3.0095    7.0719   C.ar      1 RES1   0.0000
    35 C33       4.5332    2.2519    8.1962   C.ar      1 RES1   0.0000
    36 C34       3.4154    1.4347    8.2199   C.ar      1 RES1   0.0000
    37 C35       2.5912    1.3655    7.1115   C.ar      1 RES1   0.0000
    38 C36       1.0470    2.9452    4.5252   C.ar      1 RES1   0.0000
    39 C37       0.8490    4.0725    5.4757   C.ar      1 RES1   0.0000
    40 C38       0.0345    3.8983    6.5904   C.ar      1 RES1   0.0000
    41 C39      -0.1394    4.9323    7.4931   C.ar      1 RES1   0.0000
    42 C40       0.5011    6.1439    7.2921   C.ar      1 RES1   0.0000
    43 C41       1.3125    6.3266    6.1843   C.ar      1 RES1   0.0000
    44 C42       1.4851    5.2953    5.2776   C.ar      1 RES1   0.0000
    45 N2        0.2372    2.9007    3.4072   N.ar      1 RES1   0.0000
    46 C43      -0.7876    3.9027    3.1117   C.3       1 RES1   0.0000
    47 C44      -2.2008    3.3391    3.3022   C.3       1 RES1   0.0000
    48 C45      -3.3309    4.2703    2.8374   C.3       1 RES1   0.0000
    49 C46      -3.7678    4.1464    1.3740   C.3       1 RES1   0.0000
    50 C47      -2.7343    4.5454    0.3272   C.3       1 RES1   0.0000
    51 C48      -3.3204    4.4852   -1.0786   C.3       1 RES1   0.0000
    52 C49       0.3772    1.9362    2.4671   C.ar      1 RES1   0.0000
    53 O1       -0.2983    1.9207    1.4156   O.2       1 RES1   0.0000
    54 C50       1.3760    0.9130    2.7152   C.ar      1 RES1   0.0000
    55 N3        1.4467    0.0040    1.7525   N.ar      1 RES1   0.0000
    56 C51       2.3294   -0.9763    1.8661   C.ar      1 RES1   0.0000
    57 C52       2.3704   -1.9002    0.7657   C.ar      1 RES1   0.0000
    58 N4        1.4966   -1.6749   -0.2078   N.ar      1 RES1   0.0000
    59 C53       1.5533   -2.4290   -1.3006   C.ar      1 RES1   0.0000
    60 C54       0.6232   -2.0151   -2.3384   C.ar      1 RES1   0.0000
    61 O2       -0.1198   -1.0345   -2.1578   O.2       1 RES1   0.0000
    62 H1        4.9574   -0.1168   -6.9111   H         1 RES1   0.0000
    63 H2        3.4083   -0.8610   -7.2629   H         1 RES1   0.0000
    64 H3        4.4223   -1.4983   -5.9663   H         1 RES1   0.0000
    65 H4        3.1188    1.2636   -5.9989   H         1 RES1   0.0000
    66 H5        4.1630    0.6579   -4.7212   H         1 RES1   0.0000
    67 H6        1.8930    0.4409   -3.9723   H         1 RES1   0.0000
    68 H7        2.5235   -1.1729   -4.2757   H         1 RES1   0.0000
    69 H8        1.3047   -1.2847   -6.4177   H         1 RES1   0.0000
    70 H9        0.8635    0.4112   -6.2700   H         1 RES1   0.0000
    71 H10      -1.0747   -0.7694   -5.6959   H         1 RES1   0.0000
    72 H11      -0.4261   -0.1771   -4.1758   H         1 RES1   0.0000
    73 H12      -0.3010   -3.0191   -5.3167   H         1 RES1   0.0000
    74 H13      -1.3349   -2.4000   -3.9953   H         1 RES1   0.0000
    75 H14      -0.1349   -5.9827   -4.0803   H         1 RES1   0.0000
    76 H15      -0.3378   -7.3252   -6.1417   H         1 RES1   0.0000
    77 H16       0.9667   -6.7231   -8.1335   H         1 RES1   0.0000
    78 H17       2.5032   -4.7719   -8.0713   H         1 RES1   0.0000
    79 H18       2.6988   -3.4409   -6.0326   H         1 RES1   0.0000
    80 H19       4.6430   -4.2930   -4.1412   H         1 RES1   0.0000
    81 H20       6.1529   -6.2275   -4.4557   H         1 RES1   0.0000
    82 H21       5.5892   -8.3978   -3.4626   H         1 RES1   0.0000
    83 H22       3.5072   -8.6539   -2.1347   H         1 RES1   0.0000
    84 H23       2.0227   -6.7291   -1.8164   H         1 RES1   0.0000
    85 H24       4.0495   -4.5754   -0.5051   H         1 RES1   0.0000
    86 H25       4.9431   -3.8340    1.8543   H         1 RES1   0.0000
    87 H26       4.8466   -2.2982    3.7174   H         1 RES1   0.0000
    88 H27       3.8133   -0.1681    4.8166   H         1 RES1   0.0000
    89 H28       4.2113    3.5322    5.0849   H         1 RES1   0.0000
    90 H29       5.6963    3.6408    7.0581   H         1 RES1   0.0000
    91 H30       5.1872    2.3018    9.0513   H         1 RES1   0.0000
    92 H31       3.1785    0.8398    9.0899   H         1 RES1   0.0000
    93 H32       1.7219    0.7252    7.1240   H         1 RES1   0.0000
    94 H33      -0.4637    2.9525    6.7413   H         1 RES1   0.0000
    95 H34      -0.7642    4.7919    8.3631   H         1 RES1   0.0000
    96 H35       0.3704    6.9402    8.0066   H         1 RES1   0.0000
    97 H36       1.8262    7.2631    6.0206   H         1 RES1   0.0000
    98 H37       2.1131    5.4465    4.4118   H         1 RES1   0.0000
    99 H38      -0.6506    4.1615    2.0616   H         1 RES1   0.0000
   100 H39      -0.6116    4.7761    3.7367   H         1 RES1   0.0000
   101 H40      -2.3414    3.1219    4.3633   H         1 RES1   0.0000
   102 H41      -2.2739    2.4006    2.7515   H         1 RES1   0.0000
   103 H42      -3.0755    5.3081    3.0552   H         1 RES1   0.0000
   104 H43      -4.2054    4.0218    3.4414   H         1 RES1   0.0000
   105 H44      -4.6469    4.7821    1.2452   H         1 RES1   0.0000
   106 H45      -4.0838    3.1220    1.1753   H         1 RES1   0.0000
   107 H46      -1.8870    3.8612    0.3732   H         1 RES1   0.0000
   108 H47      -2.3770    5.5562    0.5302   H         1 RES1   0.0000
   109 H48      -3.6488    3.4742   -1.3038   H         1 RES1   0.0000
   110 H49      -2.5804    4.7713   -1.8218   H         1 RES1   0.0000
   111 H50      -4.1750    5.1502   -1.1743   H         1 RES1   0.0000
   112 N5       -2.2201   -1.1573    0.9040   N.3       1 RES1   0.0000
   113 O3       -3.2476   -1.5001    1.3885   O.2       1 RES1   0.0000
   114 O4       -1.2618   -0.7778    1.6101   O.co2     1 RES1   0.0000
   115 O5       -2.0186   -1.1901   -0.3168   O.co2     1 RES1   0.0000
   116 N6       -0.6672    1.8905   -1.6795   N.3       1 RES1   0.0000
   117 O6       -0.8205    2.6288   -2.5953   O.2       1 RES1   0.0000
   118 O7        0.4754    1.5005   -1.3485   O.co2     1 RES1   0.0000
   119 O8       -1.6137    1.4711   -0.9950   O.co2     1 RES1   0.0000
@<TRIPOS>BOND
     1     1    53    1
     2     1    55    1
     3     1    58    1
     4     1    61    1
     5     1   114    1
     6     1   115    1
     7     1   118    1
     8     1   119    1
     9     2     3    1
    10     2    62    1
    11     2    63    1
    12     2    64    1
    13     3     4    1
    14     3    65    1
    15     3    66    1
    16     4     5    1
    17     4    67    1
    18     4    68    1
    19     5     6    1
    20     5    69    1
    21     5    70    1
    22     6     7    1
    23     6    71    1
    24     6    72    1
    25     7     8    1
    26     7    73    1
    27     7    74    1
    28     8     9    1
    29     8    60    1
    30     9    10    1
    31     9    16    2
    32    10    11    1
    33    10    15    2
    34    11    12    2
    35    11    75    1
    36    12    13    1
    37    12    76    1
    38    13    14    2
    39    13    77    1
    40    14    15    1
    41    14    78    1
    42    15    79    1
    43    16    17    1
    44    16    23    1
    45    17    18    1
    46    17    22    2
    47    18    19    2
    48    18    80    1
    49    19    20    1
    50    19    81    1
    51    20    21    2
    52    20    82    1
    53    21    22    1
    54    21    83    1
    55    22    84    1
    56    23    24    1
    57    23    59    2
    58    24    25    2
    59    24    85    1
    60    25    26    1
    61    25    57    1
    62    26    27    2
    63    26    86    1
    64    27    28    1
    65    27    87    1
    66    28    29    1
    67    28    56    2
    68    29    30    2
    69    29    88    1
    70    30    31    1
    71    30    54    1
    72    31    32    1
    73    31    38    2
    74    32    33    1
    75    32    37    2
    76    33    34    2
    77    33    89    1
    78    34    35    1
    79    34    90    1
    80    35    36    2
    81    35    91    1
    82    36    37    1
    83    36    92    1
    84    37    93    1
    85    38    39    1
    86    38    45    1
    87    39    40    1
    88    39    44    2
    89    40    41    2
    90    40    94    1
    91    41    42    1
    92    41    95    1
    93    42    43    2
    94    42    96    1
    95    43    44    1
    96    43    97    1
    97    44    98    1
    98    45    46    1
    99    45    52    1
   100    46    47    1
   101    46    99    1
   102    46   100    1
   103    47    48    1
   104    47   101    1
   105    47   102    1
   106    48    49    1
   107    48   103    1
   108    48   104    1
   109    49    50    1
   110    49   105    1
   111    49   106    1
   112    50    51    1
   113    50   107    1
   114    50   108    1
   115    51   109    1
   116    51   110    1
   117    51   111    1
   118    52    53    2
   119    52    54    1
   120    54    55    2
   121    55    56    1
   122    56    57    1
   123    57    58    2
   124    58    59    1
   125    59    60    1
   126    60    61    2
   127   112   113    2
   128   112   114    1
   129   112   115    1
   130   116   117    2
   131   116   118    1
   132   116   119    1
@<TRIPOS>SUBSTRUCTURE
     1 RES1      119 GROUP             0 ****  ****    0  
