@<TRIPOS>MOLECULE
cn9_YICLED_0_nunpairedes_0_charge_2 Charge: 2 Unpaired_Electrons: 7 XTB_Unpaired_Electrons: 0 XTB_Charge: 2
    70    83     1     0     0
SMALL
NoCharges
****
Generated from Architector

@<TRIPOS>ATOM
     1 Gd1      -0.6037    0.5095   -0.7745   Gd        1 RES1   0.0000
     2 C1       -6.4442    1.4280   -1.1936   C.3       1 RES1   0.0000
     3 C2       -5.7537    1.4225    0.1579   C.3       1 RES1   0.0000
     4 C3       -6.6032    1.1533    1.4396   C.3       1 RES1   0.0000
     5 C4       -5.7001    1.6385    2.5908   C.3       1 RES1   0.0000
     6 C5       -4.4094    2.1151    1.8930   C.3       1 RES1   0.0000
     7 C6       -3.7758    0.9086    1.3253   C.ar      1 RES1   0.0000
     8 N1       -2.5330    0.5067    1.3544   N.ar      1 RES1   0.0000
     9 N2       -2.2123   -0.5218    0.5452   N.ar      1 RES1   0.0000
    10 C7       -3.1743   -1.1474   -0.1432   C.ar      1 RES1   0.0000
    11 C8       -2.6406   -1.9772   -1.2610   C.ar      1 RES1   0.0000
    12 C9       -2.9236   -3.2503   -1.7209   C.ar      1 RES1   0.0000
    13 C10      -2.4739   -3.5949   -2.9941   C.ar      1 RES1   0.0000
    14 C11      -1.7990   -2.6725   -3.7919   C.ar      1 RES1   0.0000
    15 C12      -1.5364   -1.4379   -3.2386   C.ar      1 RES1   0.0000
    16 C13      -1.0962   -0.1125   -3.7515   C.ar      1 RES1   0.0000
    17 N3       -2.1466    0.6930   -3.9664   N.ar      1 RES1   0.0000
    18 N4       -2.0923    1.9086   -3.5094   N.ar      1 RES1   0.0000
    19 C14      -0.9528    2.3622   -3.0334   C.ar      1 RES1   0.0000
    20 C15       0.2438    1.6258   -3.2991   C.ar      1 RES1   0.0000
    21 N5        0.1461    0.3214   -3.5027   N.ar      1 RES1   0.0000
    22 C16       1.4018    2.5682   -3.1366   C.3       1 RES1   0.0000
    23 C17       2.6127    2.1599   -3.9435   C.3       1 RES1   0.0000
    24 C18       1.5426    2.6242   -1.5824   C.3       1 RES1   0.0000
    25 C19       0.2155    3.3074   -1.1189   C.3       1 RES1   0.0000
    26 C20      -0.4997    3.6685   -2.4554   C.3       1 RES1   0.0000
    27 C21       0.7008    3.9483   -3.4186   C.3       1 RES1   0.0000
    28 C22       0.2544    4.1239   -4.8662   C.3       1 RES1   0.0000
    29 C23       1.4611    5.2086   -3.0347   C.3       1 RES1   0.0000
    30 N6       -1.8965   -1.1199   -1.9851   N.ar      1 RES1   0.0000
    31 N7       -4.4335   -0.7226   -0.2842   N.ar      1 RES1   0.0000
    32 C24      -4.6959    0.3957    0.3479   C.ar      1 RES1   0.0000
    33 C25      -4.9573    2.7128    0.5687   C.3       1 RES1   0.0000
    34 C26      -3.8182    3.0936   -0.3888   C.3       1 RES1   0.0000
    35 C27      -5.8008    3.9591    0.8245   C.3       1 RES1   0.0000
    36 H1       -6.9696    0.4960   -1.3826   H         1 RES1   0.0000
    37 H2       -5.7042    1.5559   -1.9841   H         1 RES1   0.0000
    38 H3       -7.1674    2.2347   -1.2630   H         1 RES1   0.0000
    39 H4       -6.8524    0.0956    1.5220   H         1 RES1   0.0000
    40 H5       -7.5409    1.7046    1.3874   H         1 RES1   0.0000
    41 H6       -5.4870    0.8486    3.3053   H         1 RES1   0.0000
    42 H7       -6.1377    2.4603    3.1541   H         1 RES1   0.0000
    43 H8       -3.7684    2.7413    2.5019   H         1 RES1   0.0000
    44 H9       -3.4839   -3.9357   -1.1063   H         1 RES1   0.0000
    45 H10      -2.6788   -4.5829   -3.3812   H         1 RES1   0.0000
    46 H11      -1.4938   -2.9220   -4.7937   H         1 RES1   0.0000
    47 H12       2.3518    2.1874   -5.0002   H         1 RES1   0.0000
    48 H13       2.8822    1.1371   -3.6843   H         1 RES1   0.0000
    49 H14       3.4648    2.8128   -3.7753   H         1 RES1   0.0000
    50 H15       2.4103    3.2400   -1.3294   H         1 RES1   0.0000
    51 H16       1.7277    1.6143   -1.1671   H         1 RES1   0.0000
    52 H17       0.4328    4.2000   -0.5331   H         1 RES1   0.0000
    53 H18      -0.4513    2.6693   -0.4585   H         1 RES1   0.0000
    54 H19      -1.2449    4.4563   -2.3823   H         1 RES1   0.0000
    55 H20      -0.2102    3.2377   -5.2853   H         1 RES1   0.0000
    56 H21       1.1049    4.3873   -5.4876   H         1 RES1   0.0000
    57 H22      -0.4638    4.9380   -4.9242   H         1 RES1   0.0000
    58 H23       1.6878    5.2961   -1.9812   H         1 RES1   0.0000
    59 H24       0.8545    6.0677   -3.3078   H         1 RES1   0.0000
    60 H25       2.3873    5.2795   -3.5932   H         1 RES1   0.0000
    61 H26      -3.2514    2.2231   -0.7831   H         1 RES1   0.0000
    62 H27      -3.1355    3.7608    0.1392   H         1 RES1   0.0000
    63 H28      -4.2077    3.6308   -1.2486   H         1 RES1   0.0000
    64 H29      -6.6721    3.7565    1.4386   H         1 RES1   0.0000
    65 H30      -6.1502    4.3918   -0.1103   H         1 RES1   0.0000
    66 H31      -5.1936    4.7060    1.3390   H         1 RES1   0.0000
    67 N8        1.3228   -0.5560    0.2649   N.3       1 RES1   0.0000
    68 O1        2.2735   -1.0460    0.7407   O.2       1 RES1   0.0000
    69 O2        0.7943   -0.9747   -0.7978   O.co2     1 RES1   0.0000
    70 O3        0.7809    0.4779    0.7303   O.co2     1 RES1   0.0000
@<TRIPOS>BOND
     1     1     8    1
     2     1     9    1
     3     1    17    1
     4     1    18    1
     5     1    21    1
     6     1    30    1
     7     1    31    1
     8     1    69    1
     9     1    70    1
    10     2     3    1
    11     2    36    1
    12     2    37    1
    13     2    38    1
    14     3     4    1
    15     3    32    1
    16     3    33    1
    17     4     5    1
    18     4    39    1
    19     4    40    1
    20     5     6    1
    21     5    41    1
    22     5    42    1
    23     6     7    1
    24     6    33    1
    25     6    43    1
    26     7     8    1
    27     7    32    2
    28     8     9    2
    29     9    10    1
    30    10    11    1
    31    10    31    2
    32    11    12    1
    33    11    30    2
    34    12    13    2
    35    12    44    1
    36    13    14    1
    37    13    45    1
    38    14    15    2
    39    14    46    1
    40    15    16    1
    41    15    30    1
    42    16    17    1
    43    16    21    2
    44    17    18    2
    45    18    19    1
    46    19    20    2
    47    19    26    1
    48    20    21    1
    49    20    22    1
    50    22    23    1
    51    22    24    1
    52    22    27    1
    53    23    47    1
    54    23    48    1
    55    23    49    1
    56    24    25    1
    57    24    50    1
    58    24    51    1
    59    25    26    1
    60    25    52    1
    61    25    53    1
    62    26    27    1
    63    26    54    1
    64    27    28    1
    65    27    29    1
    66    28    55    1
    67    28    56    1
    68    28    57    1
    69    29    58    1
    70    29    59    1
    71    29    60    1
    72    31    32    1
    73    33    34    1
    74    33    35    1
    75    34    61    1
    76    34    62    1
    77    34    63    1
    78    35    64    1
    79    35    65    1
    80    35    66    1
    81    67    68    2
    82    67    69    1
    83    67    70    1
@<TRIPOS>SUBSTRUCTURE
     1 RES1       70 GROUP             0 ****  ****    0  
