@<TRIPOS>MOLECULE
tri_tri_mer_capped_0_nunpairedes_0_charge_3 Charge: 3 Unpaired_Electrons: 7 XTB_Unpaired_Electrons: 0 XTB_Charge: 3
   340   345     1     0     0
SMALL
NoCharges
****
Generated from Architector

@<TRIPOS>ATOM
     1 Gd1      -0.2110    0.3748   -0.1319   Gd        1 RES1   0.0000
     2 C1        0.6153   -1.1665   -4.8204   C.3       1 RES1   0.0000
     3 C2       -0.4454   -0.2560   -5.4345   C.3       1 RES1   0.0000
     4 C3       -0.3809    1.1423   -4.8227   C.3       1 RES1   0.0000
     5 C4       -1.5527    2.0557   -5.1802   C.3       1 RES1   0.0000
     6 C5       -2.8658    1.6921   -4.4841   C.3       1 RES1   0.0000
     7 C6       -3.8457    2.8765   -4.4798   C.3       1 RES1   0.0000
     8 C7       -3.9040    3.6915   -3.1785   C.3       1 RES1   0.0000
     9 C8       -2.5529    4.1255   -2.6047   C.3       1 RES1   0.0000
    10 C9       -2.6676    4.8582   -1.2501   C.3       1 RES1   0.0000
    11 C10      -1.7626    4.2769   -0.1461   C.3       1 RES1   0.0000
    12 C11      -1.0924    5.3456    0.7245   C.3       1 RES1   0.0000
    13 C12      -0.5438    4.8081    2.0502   C.3       1 RES1   0.0000
    14 N1        0.7836    4.1908    2.0109   N.am      1 RES1   0.0000
    15 C13       1.9294    5.0221    2.3567   C.3       1 RES1   0.0000
    16 C14       2.6534    5.5541    1.1043   C.3       1 RES1   0.0000
    17 C15       4.1604    5.2821    1.1465   C.3       1 RES1   0.0000
    18 C16       4.8496    5.3213   -0.2300   C.3       1 RES1   0.0000
    19 C17       5.6569    6.5885   -0.5498   C.3       1 RES1   0.0000
    20 C18       4.8567    7.7554   -1.1611   C.3       1 RES1   0.0000
    21 C19       5.0562    7.8192   -2.6811   C.3       1 RES1   0.0000
    22 C20       4.0688    8.7203   -3.4251   C.3       1 RES1   0.0000
    23 C21       4.4143    8.8171   -4.9197   C.3       1 RES1   0.0000
    24 C22       3.2159    9.1275   -5.8238   C.3       1 RES1   0.0000
    25 C23       2.4140    7.8797   -6.2139   C.3       1 RES1   0.0000
    26 C24       2.9602    7.1669   -7.4470   C.3       1 RES1   0.0000
    27 C25       0.8458    2.9282    1.6123   C.2       1 RES1   0.0000
    28 O1       -0.1487    2.3277    1.1603   O.2       1 RES1   0.0000
    29 C26       2.1193    2.0832    1.7663   C.3       1 RES1   0.0000
    30 O2        1.7627    0.7071    1.6032   O.3       1 RES1   0.0000
    31 C27       1.2854    0.1231    2.8258   C.3       1 RES1   0.0000
    32 C28       0.8746   -1.3191    2.5310   C.3       1 RES1   0.0000
    33 O3       -0.3016   -1.4432    1.7281   O.3       1 RES1   0.0000
    34 C29      -1.5365   -1.6727    2.4208   C.3       1 RES1   0.0000
    35 C30      -2.2630   -0.3317    2.6144   C.2       1 RES1   0.0000
    36 O4       -1.8569    0.6034    1.8941   O.2       1 RES1   0.0000
    37 N2       -3.2159   -0.2088    3.5317   N.am      1 RES1   0.0000
    38 C31      -3.4120    1.0840    4.1779   C.3       1 RES1   0.0000
    39 C32      -2.7333    1.0820    5.5664   C.3       1 RES1   0.0000
    40 C33      -3.6829    1.3485    6.7390   C.3       1 RES1   0.0000
    41 C34      -4.2369    2.7667    6.6727   C.3       1 RES1   0.0000
    42 C35      -5.0756    3.1861    7.8777   C.3       1 RES1   0.0000
    43 C36      -5.3822    4.6872    7.8219   C.3       1 RES1   0.0000
    44 C37      -4.1752    5.5440    8.2176   C.3       1 RES1   0.0000
    45 C38      -4.2195    6.9594    7.6385   C.3       1 RES1   0.0000
    46 C39      -2.8323    7.5994    7.6390   C.3       1 RES1   0.0000
    47 C40      -2.8355    9.0322    7.1070   C.3       1 RES1   0.0000
    48 C41      -1.4184    9.5920    6.9949   C.3       1 RES1   0.0000
    49 C42      -1.4015   11.0476    6.5460   C.3       1 RES1   0.0000
    50 C43      -4.0061   -1.3273    4.0433   C.3       1 RES1   0.0000
    51 C44      -5.4674   -0.9577    4.3690   C.3       1 RES1   0.0000
    52 C45      -6.2780   -0.3119    3.2352   C.3       1 RES1   0.0000
    53 C46      -7.4692    0.4912    3.7726   C.3       1 RES1   0.0000
    54 C47      -8.3350    1.1377    2.6863   C.3       1 RES1   0.0000
    55 C48      -7.6474    2.2030    1.8296   C.3       1 RES1   0.0000
    56 C49      -7.1627    3.4314    2.5982   C.3       1 RES1   0.0000
    57 C50      -6.4703    4.4236    1.6637   C.3       1 RES1   0.0000
    58 C51      -6.1452    5.7650    2.3228   C.3       1 RES1   0.0000
    59 C52      -5.2299    5.6923    3.5448   C.3       1 RES1   0.0000
    60 C53      -3.8107    5.2165    3.2448   C.3       1 RES1   0.0000
    61 C54      -2.9226    5.3956    4.4710   C.3       1 RES1   0.0000
    62 H1        0.5311   -2.1821   -5.2023   H         1 RES1   0.0000
    63 H2        0.4954   -1.1908   -3.7317   H         1 RES1   0.0000
    64 H3        1.6165   -0.8042   -5.0579   H         1 RES1   0.0000
    65 H4       -1.4298   -0.6891   -5.2655   H         1 RES1   0.0000
    66 H5       -0.2902   -0.1937   -6.5123   H         1 RES1   0.0000
    67 H6        0.5411    1.6206   -5.1663   H         1 RES1   0.0000
    68 H7       -0.3288    1.0462   -3.7232   H         1 RES1   0.0000
    69 H8       -1.7108    2.0485   -6.2589   H         1 RES1   0.0000
    70 H9       -1.2802    3.0751   -4.9014   H         1 RES1   0.0000
    71 H10      -2.6575    1.3612   -3.4604   H         1 RES1   0.0000
    72 H11      -3.3224    0.8538   -5.0132   H         1 RES1   0.0000
    73 H12      -4.8545    2.5060   -4.6707   H         1 RES1   0.0000
    74 H13      -3.5922    3.5370   -5.3093   H         1 RES1   0.0000
    75 H14      -4.4447    3.1178   -2.4264   H         1 RES1   0.0000
    76 H15      -4.5038    4.5791   -3.3820   H         1 RES1   0.0000
    77 H16      -2.0715    4.7828   -3.3272   H         1 RES1   0.0000
    78 H17      -1.9051    3.2521   -2.5010   H         1 RES1   0.0000
    79 H18      -3.7080    4.8432   -0.9198   H         1 RES1   0.0000
    80 H19      -2.4081    5.9065   -1.3964   H         1 RES1   0.0000
    81 H20      -0.9823    3.6566   -0.5910   H         1 RES1   0.0000
    82 H21      -2.3473    3.6508    0.5302   H         1 RES1   0.0000
    83 H22      -1.8383    6.0970    0.9790   H         1 RES1   0.0000
    84 H23      -0.2942    5.8586    0.1896   H         1 RES1   0.0000
    85 H24      -1.2331    4.0598    2.4490   H         1 RES1   0.0000
    86 H25      -0.4807    5.6306    2.7601   H         1 RES1   0.0000
    87 H26       2.6253    4.4617    2.9807   H         1 RES1   0.0000
    88 H27       1.5672    5.8460    2.9721   H         1 RES1   0.0000
    89 H28       2.4732    6.6210    1.0054   H         1 RES1   0.0000
    90 H29       2.2165    5.0574    0.2367   H         1 RES1   0.0000
    91 H30       4.3078    4.2798    1.5584   H         1 RES1   0.0000
    92 H31       4.6370    5.9937    1.8225   H         1 RES1   0.0000
    93 H32       4.0944    5.1515   -1.0010   H         1 RES1   0.0000
    94 H33       5.5460    4.4812   -0.2725   H         1 RES1   0.0000
    95 H34       6.4380    6.3118   -1.2627   H         1 RES1   0.0000
    96 H35       6.1666    6.9074    0.3601   H         1 RES1   0.0000
    97 H36       5.1898    8.6937   -0.7187   H         1 RES1   0.0000
    98 H37       3.7947    7.6552   -0.9219   H         1 RES1   0.0000
    99 H38       4.9720    6.8060   -3.0845   H         1 RES1   0.0000
   100 H39       6.0703    8.1649   -2.8877   H         1 RES1   0.0000
   101 H40       4.0647    9.7186   -2.9871   H         1 RES1   0.0000
   102 H41       3.0653    8.3182   -3.2982   H         1 RES1   0.0000
   103 H42       4.8570    7.8760   -5.2484   H         1 RES1   0.0000
   104 H43       5.1689    9.5906   -5.0535   H         1 RES1   0.0000
   105 H44       3.5692    9.6058   -6.7379   H         1 RES1   0.0000
   106 H45       2.5678    9.8433   -5.3156   H         1 RES1   0.0000
   107 H46       1.3776    8.1579   -6.4160   H         1 RES1   0.0000
   108 H47       2.4077    7.1825   -5.3719   H         1 RES1   0.0000
   109 H48       2.7823    7.7653   -8.3362   H         1 RES1   0.0000
   110 H49       2.4614    6.2077   -7.5799   H         1 RES1   0.0000
   111 H50       4.0289    6.9858   -7.3670   H         1 RES1   0.0000
   112 H51       2.5820    2.2380    2.7467   H         1 RES1   0.0000
   113 H52       2.8446    2.3115    0.9781   H         1 RES1   0.0000
   114 H53       0.4489    0.7145    3.2211   H         1 RES1   0.0000
   115 H54       2.1003    0.1029    3.5596   H         1 RES1   0.0000
   116 H55       0.7573   -1.8665    3.4669   H         1 RES1   0.0000
   117 H56       1.6821   -1.7787    1.9439   H         1 RES1   0.0000
   118 H57      -1.3617   -2.1656    3.3781   H         1 RES1   0.0000
   119 H58      -2.1092   -2.3457    1.7788   H         1 RES1   0.0000
   120 H59      -4.4725    1.2943    4.2772   H         1 RES1   0.0000
   121 H60      -2.9712    1.8390    3.5285   H         1 RES1   0.0000
   122 H61      -1.9625    1.8529    5.5822   H         1 RES1   0.0000
   123 H62      -2.2280    0.1276    5.7271   H         1 RES1   0.0000
   124 H63      -3.1231    1.2297    7.6696   H         1 RES1   0.0000
   125 H64      -4.4962    0.6214    6.7588   H         1 RES1   0.0000
   126 H65      -4.8438    2.8892    5.7733   H         1 RES1   0.0000
   127 H66      -3.3875    3.4434    6.5902   H         1 RES1   0.0000
   128 H67      -4.5433    2.9635    8.8030   H         1 RES1   0.0000
   129 H68      -6.0080    2.6199    7.8873   H         1 RES1   0.0000
   130 H69      -6.2167    4.9215    8.4819   H         1 RES1   0.0000
   131 H70      -5.6996    4.9430    6.8066   H         1 RES1   0.0000
   132 H71      -3.2539    5.0618    7.8816   H         1 RES1   0.0000
   133 H72      -4.1158    5.6009    9.3039   H         1 RES1   0.0000
   134 H73      -4.9053    7.5768    8.2179   H         1 RES1   0.0000
   135 H74      -4.5962    6.9255    6.6132   H         1 RES1   0.0000
   136 H75      -2.1600    6.9900    7.0245   H         1 RES1   0.0000
   137 H76      -2.4352    7.5981    8.6565   H         1 RES1   0.0000
   138 H77      -3.4198    9.6650    7.7765   H         1 RES1   0.0000
   139 H78      -3.3172    9.0630    6.1254   H         1 RES1   0.0000
   140 H79      -0.8477    8.9838    6.2860   H         1 RES1   0.0000
   141 H80      -0.9293    9.5080    7.9672   H         1 RES1   0.0000
   142 H81      -1.8733   11.1599    5.5718   H         1 RES1   0.0000
   143 H82      -0.3790   11.4111    6.4772   H         1 RES1   0.0000
   144 H83      -1.9385   11.6680    7.2583   H         1 RES1   0.0000
   145 H84      -3.5539   -1.7247    4.9580   H         1 RES1   0.0000
   146 H85      -4.0038   -2.1153    3.2912   H         1 RES1   0.0000
   147 H86      -5.4871   -0.3071    5.2415   H         1 RES1   0.0000
   148 H87      -5.9550   -1.8841    4.6766   H         1 RES1   0.0000
   149 H88      -6.6563   -1.0935    2.5752   H         1 RES1   0.0000
   150 H89      -5.6386    0.3446    2.6465   H         1 RES1   0.0000
   151 H90      -7.1181    1.2692    4.4535   H         1 RES1   0.0000
   152 H91      -8.1073   -0.1777    4.3527   H         1 RES1   0.0000
   153 H92      -9.1949    1.5957    3.1749   H         1 RES1   0.0000
   154 H93      -8.7205    0.3582    2.0253   H         1 RES1   0.0000
   155 H94      -8.3626    2.5305    1.0718   H         1 RES1   0.0000
   156 H95      -6.8001    1.7632    1.3063   H         1 RES1   0.0000
   157 H96      -6.4652    3.1272    3.3795   H         1 RES1   0.0000
   158 H97      -8.0114    3.9175    3.0808   H         1 RES1   0.0000
   159 H98      -7.1341    4.6212    0.8199   H         1 RES1   0.0000
   160 H99      -5.5577    3.9712    1.2621   H         1 RES1   0.0000
   161 H100     -7.0818    6.2325    2.6309   H         1 RES1   0.0000
   162 H101     -5.6858    6.4183    1.5766   H         1 RES1   0.0000
   163 H102     -5.6742    5.0413    4.2989   H         1 RES1   0.0000
   164 H103     -5.1667    6.6923    3.9781   H         1 RES1   0.0000
   165 H104     -3.4163    5.7956    2.4099   H         1 RES1   0.0000
   166 H105     -3.8274    4.1668    2.9422   H         1 RES1   0.0000
   167 H106     -2.5985    6.4269    4.5632   H         1 RES1   0.0000
   168 H107     -2.0440    4.7554    4.4376   H         1 RES1   0.0000
   169 H108     -3.4818    5.1432    5.3626   H         1 RES1   0.0000
   170 C55      -4.2190   -3.4810    0.6194   C.3       1 RES1   0.0000
   171 C56      -5.1403   -2.3687    0.1338   C.3       1 RES1   0.0000
   172 C57      -4.4056   -1.0486   -0.1258   C.3       1 RES1   0.0000
   173 C58      -5.3591    0.1598   -0.1571   C.3       1 RES1   0.0000
   174 C59      -5.7454    0.7582   -1.5131   C.3       1 RES1   0.0000
   175 C60      -6.4918   -0.1668   -2.4764   C.3       1 RES1   0.0000
   176 C61      -5.5226   -0.9992   -3.3130   C.3       1 RES1   0.0000
   177 C62      -6.1477   -1.5442   -4.5914   C.3       1 RES1   0.0000
   178 C63      -5.1232   -2.2277   -5.5006   C.3       1 RES1   0.0000
   179 C64      -4.3175   -3.3221   -4.7858   C.3       1 RES1   0.0000
   180 C65      -2.9456   -2.8469   -4.2654   C.3       1 RES1   0.0000
   181 C66      -2.6458   -3.4697   -2.9006   C.3       1 RES1   0.0000
   182 N3       -1.2455   -3.5565   -2.4854   N.am      1 RES1   0.0000
   183 C67      -0.4739   -4.5713   -3.1988   C.3       1 RES1   0.0000
   184 C68      -0.8646   -6.0400   -3.0004   C.3       1 RES1   0.0000
   185 C69      -0.7659   -6.5796   -1.5738   C.3       1 RES1   0.0000
   186 C70      -2.0002   -6.3603   -0.6863   C.3       1 RES1   0.0000
   187 C71      -3.0613   -7.4676   -0.7806   C.3       1 RES1   0.0000
   188 C72      -4.0677   -7.3949   -1.9365   C.3       1 RES1   0.0000
   189 C73      -5.2699   -6.4913   -1.6457   C.3       1 RES1   0.0000
   190 C74      -6.2890   -6.5047   -2.7916   C.3       1 RES1   0.0000
   191 C75      -7.7389   -6.2125   -2.3877   C.3       1 RES1   0.0000
   192 C76      -8.0593   -4.7585   -2.0234   C.3       1 RES1   0.0000
   193 C77      -7.8982   -4.3968   -0.5458   C.3       1 RES1   0.0000
   194 C78      -8.9663   -5.0077    0.3504   C.3       1 RES1   0.0000
   195 C79      -0.7497   -2.7376   -1.5700   C.2       1 RES1   0.0000
   196 O5       -1.2619   -1.6288   -1.2630   O.2       1 RES1   0.0000
   197 C80       0.4667   -3.1471   -0.7310   C.3       1 RES1   0.0000
   198 O6        1.3274   -2.0264   -0.5311   O.3       1 RES1   0.0000
   199 C81       2.4531   -2.0699   -1.4152   C.3       1 RES1   0.0000
   200 C82       3.1527   -0.7182   -1.3198   C.3       1 RES1   0.0000
   201 O7        2.1772    0.3070   -1.5187   O.3       1 RES1   0.0000
   202 C83       2.5217    1.2772   -2.5053   C.3       1 RES1   0.0000
   203 C84       1.6181    2.4733   -2.2242   C.2       1 RES1   0.0000
   204 O8        0.6819    2.2941   -1.4069   O.2       1 RES1   0.0000
   205 N4        1.8617    3.6214   -2.8326   N.am      1 RES1   0.0000
   206 C85       2.7116    3.7185   -4.0174   C.3       1 RES1   0.0000
   207 C86       4.2136    3.8804   -3.7539   C.3       1 RES1   0.0000
   208 C87       4.9661    4.3834   -4.9933   C.3       1 RES1   0.0000
   209 C88       4.5916    3.5790   -6.2328   C.3       1 RES1   0.0000
   210 C89       5.4136    3.8929   -7.4855   C.3       1 RES1   0.0000
   211 C90       4.6548    3.4420   -8.7368   C.3       1 RES1   0.0000
   212 C91       4.3698    1.9412   -8.7605   C.3       1 RES1   0.0000
   213 C92       3.3658    1.5500   -9.8426   C.3       1 RES1   0.0000
   214 C93       2.9163    0.1001   -9.6723   C.3       1 RES1   0.0000
   215 C94       1.7845   -0.2964  -10.6187   C.3       1 RES1   0.0000
   216 C95       1.3254   -1.7318  -10.3674   C.3       1 RES1   0.0000
   217 C96       0.1584   -2.1376  -11.2584   C.3       1 RES1   0.0000
   218 C97       1.0098    4.7804   -2.5413   C.3       1 RES1   0.0000
   219 C98       1.6749    6.1568   -2.5397   C.3       1 RES1   0.0000
   220 C99       0.6148    7.2407   -2.2528   C.3       1 RES1   0.0000
   221 C100      0.0186    7.8297   -3.5357   C.3       1 RES1   0.0000
   222 C101     -1.3028    8.6028   -3.3542   C.3       1 RES1   0.0000
   223 C102     -2.5000    7.9242   -4.0321   C.3       1 RES1   0.0000
   224 C103     -2.3440    7.7665   -5.5484   C.3       1 RES1   0.0000
   225 C104     -3.2926    6.7151   -6.1324   C.3       1 RES1   0.0000
   226 C105     -2.8228    6.1613   -7.4800   C.3       1 RES1   0.0000
   227 C106     -1.5001    5.3906   -7.3931   C.3       1 RES1   0.0000
   228 C107     -1.3674    4.3790   -8.5288   C.3       1 RES1   0.0000
   229 C108     -0.0179    3.6722   -8.5448   C.3       1 RES1   0.0000
   230 H109     -4.0023   -3.3825    1.6807   H         1 RES1   0.0000
   231 H110     -4.6832   -4.4515    0.4757   H         1 RES1   0.0000
   232 H111     -3.2764   -3.4723    0.0776   H         1 RES1   0.0000
   233 H112     -5.9138   -2.2121    0.8845   H         1 RES1   0.0000
   234 H113     -5.6426   -2.6891   -0.7762   H         1 RES1   0.0000
   235 H114     -3.8444   -1.1284   -1.0611   H         1 RES1   0.0000
   236 H115     -3.6804   -0.8950    0.6799   H         1 RES1   0.0000
   237 H116     -4.9170    0.9675    0.4398   H         1 RES1   0.0000
   238 H117     -6.2840   -0.1342    0.3364   H         1 RES1   0.0000
   239 H118     -4.8619    1.1321   -2.0373   H         1 RES1   0.0000
   240 H119     -6.3767    1.6225   -1.2932   H         1 RES1   0.0000
   241 H120     -7.0909    0.4503   -3.1482   H         1 RES1   0.0000
   242 H121     -7.1839   -0.8082   -1.9310   H         1 RES1   0.0000
   243 H122     -5.1513   -1.8362   -2.7252   H         1 RES1   0.0000
   244 H123     -4.6729   -0.3674   -3.5828   H         1 RES1   0.0000
   245 H124     -6.6086   -0.7241   -5.1440   H         1 RES1   0.0000
   246 H125     -6.9359   -2.2538   -4.3348   H         1 RES1   0.0000
   247 H126     -4.4422   -1.4788   -5.9095   H         1 RES1   0.0000
   248 H127     -5.6599   -2.6630   -6.3437   H         1 RES1   0.0000
   249 H128     -4.1534   -4.1552   -5.4689   H         1 RES1   0.0000
   250 H129     -4.9196   -3.6999   -3.9577   H         1 RES1   0.0000
   251 H130     -2.9287   -1.7627   -4.1720   H         1 RES1   0.0000
   252 H131     -2.1860   -3.1243   -4.9967   H         1 RES1   0.0000
   253 H132     -3.0107   -4.4992   -2.9061   H         1 RES1   0.0000
   254 H133     -3.1697   -2.9109   -2.1252   H         1 RES1   0.0000
   255 H134      0.5841   -4.4380   -2.9778   H         1 RES1   0.0000
   256 H135     -0.6068   -4.3569   -4.2644   H         1 RES1   0.0000
   257 H136     -0.1699   -6.5991   -3.6291   H         1 RES1   0.0000
   258 H137     -1.8583   -6.2269   -3.4009   H         1 RES1   0.0000
   259 H138      0.1115   -6.1409   -1.0903   H         1 RES1   0.0000
   260 H139     -0.5864   -7.6526   -1.6422   H         1 RES1   0.0000
   261 H140     -2.4487   -5.3888   -0.8894   H         1 RES1   0.0000
   262 H141     -1.6563   -6.3439    0.3511   H         1 RES1   0.0000
   263 H142     -3.6338   -7.4638    0.1493   H         1 RES1   0.0000
   264 H143     -2.5403   -8.4247   -0.8238   H         1 RES1   0.0000
   265 H144     -4.4431   -8.4051   -2.1057   H         1 RES1   0.0000
   266 H145     -3.5860   -7.0800   -2.8628   H         1 RES1   0.0000
   267 H146     -4.9281   -5.4689   -1.4664   H         1 RES1   0.0000
   268 H147     -5.7517   -6.8509   -0.7342   H         1 RES1   0.0000
   269 H148     -6.2805   -7.4997   -3.2405   H         1 RES1   0.0000
   270 H149     -5.9791   -5.8002   -3.5676   H         1 RES1   0.0000
   271 H150     -8.0122   -6.8677   -1.5615   H         1 RES1   0.0000
   272 H151     -8.3673   -6.4891   -3.2367   H         1 RES1   0.0000
   273 H152     -9.0961   -4.5534   -2.2957   H         1 RES1   0.0000
   274 H153     -7.4316   -4.0996   -2.6310   H         1 RES1   0.0000
   275 H154     -7.9630   -3.3089   -0.4584   H         1 RES1   0.0000
   276 H155     -6.9156   -4.7063   -0.1902   H         1 RES1   0.0000
   277 H156     -9.9585   -4.7293    0.0088   H         1 RES1   0.0000
   278 H157     -8.8441   -4.6502    1.3696   H         1 RES1   0.0000
   279 H158     -8.9018   -6.0906    0.3653   H         1 RES1   0.0000
   280 H159      1.0278   -4.0016   -1.1074   H         1 RES1   0.0000
   281 H160      0.0656   -3.4094    0.2563   H         1 RES1   0.0000
   282 H161      2.1121   -2.2575   -2.4428   H         1 RES1   0.0000
   283 H162      3.1424   -2.8734   -1.1163   H         1 RES1   0.0000
   284 H163      3.9584   -0.6699   -2.0588   H         1 RES1   0.0000
   285 H164      3.5735   -0.5932   -0.3136   H         1 RES1   0.0000
   286 H165      2.3362    0.8880   -3.5173   H         1 RES1   0.0000
   287 H166      3.5757    1.5661   -2.4251   H         1 RES1   0.0000
   288 H167      2.3590    4.5915   -4.5667   H         1 RES1   0.0000
   289 H168      2.5265    2.8460   -4.6475   H         1 RES1   0.0000
   290 H169      4.6595    2.9298   -3.4569   H         1 RES1   0.0000
   291 H170      4.3572    4.5920   -2.9432   H         1 RES1   0.0000
   292 H171      6.0351    4.2912   -4.7970   H         1 RES1   0.0000
   293 H172      4.7532    5.4391   -5.1647   H         1 RES1   0.0000
   294 H173      3.5448    3.7758   -6.4734   H         1 RES1   0.0000
   295 H174      4.6911    2.5169   -5.9969   H         1 RES1   0.0000
   296 H175      6.3840    3.3978   -7.4339   H         1 RES1   0.0000
   297 H176      5.5908    4.9684   -7.5545   H         1 RES1   0.0000
   298 H177      5.2189    3.7114   -9.6291   H         1 RES1   0.0000
   299 H178      3.7081    3.9879   -8.7702   H         1 RES1   0.0000
   300 H179      3.9592    1.6297   -7.7975   H         1 RES1   0.0000
   301 H180      5.3010    1.3932   -8.9098   H         1 RES1   0.0000
   302 H181      3.8102    1.6820  -10.8285   H         1 RES1   0.0000
   303 H182      2.4947    2.2072   -9.7794   H         1 RES1   0.0000
   304 H183      2.5796   -0.0481   -8.6392   H         1 RES1   0.0000
   305 H184      3.7697   -0.5619   -9.8343   H         1 RES1   0.0000
   306 H185      2.1203   -0.2004  -11.6519   H         1 RES1   0.0000
   307 H186      0.9398    0.3846  -10.4824   H         1 RES1   0.0000
   308 H187      1.0329   -1.8345   -9.3174   H         1 RES1   0.0000
   309 H188      2.1650   -2.4073  -10.5423   H         1 RES1   0.0000
   310 H189     -0.7043   -1.4982  -11.0825   H         1 RES1   0.0000
   311 H190     -0.1309   -3.1669  -11.0595   H         1 RES1   0.0000
   312 H191      0.4337   -2.0572  -12.3062   H         1 RES1   0.0000
   313 H192      0.5715    4.5978   -1.5647   H         1 RES1   0.0000
   314 H193      0.1989    4.8010   -3.2712   H         1 RES1   0.0000
   315 H194      2.1327    6.3762   -3.4994   H         1 RES1   0.0000
   316 H195      2.4678    6.2001   -1.7951   H         1 RES1   0.0000
   317 H196      1.0618    8.0401   -1.6608   H         1 RES1   0.0000
   318 H197     -0.1899    6.8065   -1.6608   H         1 RES1   0.0000
   319 H198      0.7532    8.4961   -3.9816   H         1 RES1   0.0000
   320 H199     -0.1485    7.0108   -4.2347   H         1 RES1   0.0000
   321 H200     -1.1907    9.6015   -3.7748   H         1 RES1   0.0000
   322 H201     -1.5219    8.7211   -2.2891   H         1 RES1   0.0000
   323 H202     -3.3984    8.5074   -3.8232   H         1 RES1   0.0000
   324 H203     -2.6449    6.9405   -3.5787   H         1 RES1   0.0000
   325 H204     -1.3214    7.4741   -5.7816   H         1 RES1   0.0000
   326 H205     -2.5183    8.7271   -6.0335   H         1 RES1   0.0000
   327 H206     -4.2874    7.1486   -6.2529   H         1 RES1   0.0000
   328 H207     -3.3799    5.8754   -5.4335   H         1 RES1   0.0000
   329 H208     -2.7230    6.9723   -8.2009   H         1 RES1   0.0000
   330 H209     -3.5976    5.4901   -7.8568   H         1 RES1   0.0000
   331 H210     -1.4520    4.8659   -6.4335   H         1 RES1   0.0000
   332 H211     -0.6587    6.0851   -7.4337   H         1 RES1   0.0000
   333 H212     -1.5039    4.8958   -9.4785   H         1 RES1   0.0000
   334 H213     -2.1660    3.6391   -8.4381   H         1 RES1   0.0000
   335 H214      0.7865    4.3888   -8.6943   H         1 RES1   0.0000
   336 H215      0.0131    2.9509   -9.3573   H         1 RES1   0.0000
   337 H216      0.1642    3.1433   -7.6098   H         1 RES1   0.0000
   338 O9       -2.2597    1.1782   -0.9889   O.3       1 RES1   0.0000
   339 H217     -3.1519    0.7996   -0.8908   H         1 RES1   0.0000
   340 H218     -2.3991    2.1470   -1.0047   H         1 RES1   0.0000
@<TRIPOS>BOND
     1     1    28    1
     2     1    30    1
     3     1    33    1
     4     1    36    1
     5     1   196    1
     6     1   198    1
     7     1   201    1
     8     1   204    1
     9     1   338    1
    10     2     3    1
    11     2    62    1
    12     2    63    1
    13     2    64    1
    14     3     4    1
    15     3    65    1
    16     3    66    1
    17     4     5    1
    18     4    67    1
    19     4    68    1
    20     5     6    1
    21     5    69    1
    22     5    70    1
    23     6     7    1
    24     6    71    1
    25     6    72    1
    26     7     8    1
    27     7    73    1
    28     7    74    1
    29     8     9    1
    30     8    75    1
    31     8    76    1
    32     9    10    1
    33     9    77    1
    34     9    78    1
    35    10    11    1
    36    10    79    1
    37    10    80    1
    38    11    12    1
    39    11    81    1
    40    11    82    1
    41    12    13    1
    42    12    83    1
    43    12    84    1
    44    13    14    1
    45    13    85    1
    46    13    86    1
    47    14    15    1
    48    14    27    1
    49    15    16    1
    50    15    87    1
    51    15    88    1
    52    16    17    1
    53    16    89    1
    54    16    90    1
    55    17    18    1
    56    17    91    1
    57    17    92    1
    58    18    19    1
    59    18    93    1
    60    18    94    1
    61    19    20    1
    62    19    95    1
    63    19    96    1
    64    20    21    1
    65    20    97    1
    66    20    98    1
    67    21    22    1
    68    21    99    1
    69    21   100    1
    70    22    23    1
    71    22   101    1
    72    22   102    1
    73    23    24    1
    74    23   103    1
    75    23   104    1
    76    24    25    1
    77    24   105    1
    78    24   106    1
    79    25    26    1
    80    25   107    1
    81    25   108    1
    82    26   109    1
    83    26   110    1
    84    26   111    1
    85    27    28    2
    86    27    29    1
    87    29    30    1
    88    29   112    1
    89    29   113    1
    90    30    31    1
    91    31    32    1
    92    31   114    1
    93    31   115    1
    94    32    33    1
    95    32   116    1
    96    32   117    1
    97    33    34    1
    98    34    35    1
    99    34   118    1
   100    34   119    1
   101    35    36    2
   102    35    37    1
   103    37    38    1
   104    37    50    1
   105    38    39    1
   106    38   120    1
   107    38   121    1
   108    39    40    1
   109    39   122    1
   110    39   123    1
   111    40    41    1
   112    40   124    1
   113    40   125    1
   114    41    42    1
   115    41   126    1
   116    41   127    1
   117    42    43    1
   118    42   128    1
   119    42   129    1
   120    43    44    1
   121    43   130    1
   122    43   131    1
   123    44    45    1
   124    44   132    1
   125    44   133    1
   126    45    46    1
   127    45   134    1
   128    45   135    1
   129    46    47    1
   130    46   136    1
   131    46   137    1
   132    47    48    1
   133    47   138    1
   134    47   139    1
   135    48    49    1
   136    48   140    1
   137    48   141    1
   138    49   142    1
   139    49   143    1
   140    49   144    1
   141    50    51    1
   142    50   145    1
   143    50   146    1
   144    51    52    1
   145    51   147    1
   146    51   148    1
   147    52    53    1
   148    52   149    1
   149    52   150    1
   150    53    54    1
   151    53   151    1
   152    53   152    1
   153    54    55    1
   154    54   153    1
   155    54   154    1
   156    55    56    1
   157    55   155    1
   158    55   156    1
   159    56    57    1
   160    56   157    1
   161    56   158    1
   162    57    58    1
   163    57   159    1
   164    57   160    1
   165    58    59    1
   166    58   161    1
   167    58   162    1
   168    59    60    1
   169    59   163    1
   170    59   164    1
   171    60    61    1
   172    60   165    1
   173    60   166    1
   174    61   167    1
   175    61   168    1
   176    61   169    1
   177   170   171    1
   178   170   230    1
   179   170   231    1
   180   170   232    1
   181   171   172    1
   182   171   233    1
   183   171   234    1
   184   172   173    1
   185   172   235    1
   186   172   236    1
   187   173   174    1
   188   173   237    1
   189   173   238    1
   190   174   175    1
   191   174   239    1
   192   174   240    1
   193   175   176    1
   194   175   241    1
   195   175   242    1
   196   176   177    1
   197   176   243    1
   198   176   244    1
   199   177   178    1
   200   177   245    1
   201   177   246    1
   202   178   179    1
   203   178   247    1
   204   178   248    1
   205   179   180    1
   206   179   249    1
   207   179   250    1
   208   180   181    1
   209   180   251    1
   210   180   252    1
   211   181   182    1
   212   181   253    1
   213   181   254    1
   214   182   183    1
   215   182   195    1
   216   183   184    1
   217   183   255    1
   218   183   256    1
   219   184   185    1
   220   184   257    1
   221   184   258    1
   222   185   186    1
   223   185   259    1
   224   185   260    1
   225   186   187    1
   226   186   261    1
   227   186   262    1
   228   187   188    1
   229   187   263    1
   230   187   264    1
   231   188   189    1
   232   188   265    1
   233   188   266    1
   234   189   190    1
   235   189   267    1
   236   189   268    1
   237   190   191    1
   238   190   269    1
   239   190   270    1
   240   191   192    1
   241   191   271    1
   242   191   272    1
   243   192   193    1
   244   192   273    1
   245   192   274    1
   246   193   194    1
   247   193   275    1
   248   193   276    1
   249   194   277    1
   250   194   278    1
   251   194   279    1
   252   195   196    2
   253   195   197    1
   254   197   198    1
   255   197   280    1
   256   197   281    1
   257   198   199    1
   258   199   200    1
   259   199   282    1
   260   199   283    1
   261   200   201    1
   262   200   284    1
   263   200   285    1
   264   201   202    1
   265   202   203    1
   266   202   286    1
   267   202   287    1
   268   203   204    2
   269   203   205    1
   270   205   206    1
   271   205   218    1
   272   206   207    1
   273   206   288    1
   274   206   289    1
   275   207   208    1
   276   207   290    1
   277   207   291    1
   278   208   209    1
   279   208   292    1
   280   208   293    1
   281   209   210    1
   282   209   294    1
   283   209   295    1
   284   210   211    1
   285   210   296    1
   286   210   297    1
   287   211   212    1
   288   211   298    1
   289   211   299    1
   290   212   213    1
   291   212   300    1
   292   212   301    1
   293   213   214    1
   294   213   302    1
   295   213   303    1
   296   214   215    1
   297   214   304    1
   298   214   305    1
   299   215   216    1
   300   215   306    1
   301   215   307    1
   302   216   217    1
   303   216   308    1
   304   216   309    1
   305   217   310    1
   306   217   311    1
   307   217   312    1
   308   218   219    1
   309   218   313    1
   310   218   314    1
   311   219   220    1
   312   219   315    1
   313   219   316    1
   314   220   221    1
   315   220   317    1
   316   220   318    1
   317   221   222    1
   318   221   319    1
   319   221   320    1
   320   222   223    1
   321   222   321    1
   322   222   322    1
   323   223   224    1
   324   223   323    1
   325   223   324    1
   326   224   225    1
   327   224   325    1
   328   224   326    1
   329   225   226    1
   330   225   327    1
   331   225   328    1
   332   226   227    1
   333   226   329    1
   334   226   330    1
   335   227   228    1
   336   227   331    1
   337   227   332    1
   338   228   229    1
   339   228   333    1
   340   228   334    1
   341   229   335    1
   342   229   336    1
   343   229   337    1
   344   338   339    1
   345   338   340    1
@<TRIPOS>SUBSTRUCTURE
     1 RES1      340 GROUP             0 ****  ****    0  
