@<TRIPOS>MOLECULE
am_c3_9H2O_c0_0_nunpairedes_0_charge_3 Charge: 3 Unpaired_Electrons: 7 XTB_Unpaired_Electrons: 0 XTB_Charge: 3
   367   372     1     0     0
SMALL
NoCharges
****
Generated from Architector

@<TRIPOS>ATOM
     1 Gd1       0.2317    0.2006   -0.1555   Gd        1 RES1   0.0000
     2 C1        3.5689    7.4284   -3.2127   C.3       1 RES1   0.0000
     3 C2        2.5671    8.4221   -3.7921   C.3       1 RES1   0.0000
     4 C3        1.1055    8.0104   -3.6015   C.3       1 RES1   0.0000
     5 C4        0.6615    6.8420   -4.4805   C.3       1 RES1   0.0000
     6 C5       -0.7887    6.4552   -4.1925   C.3       1 RES1   0.0000
     7 C6       -1.1601    5.0839   -4.7697   C.3       1 RES1   0.0000
     8 C7       -2.2161    4.3499   -3.9229   C.3       1 RES1   0.0000
     9 C8       -1.8762    2.8700   -3.7123   C.3       1 RES1   0.0000
    10 N1       -2.8040    2.2034   -2.8036   N.am      1 RES1   0.0000
    11 C9       -4.1687    2.0785   -3.3003   C.3       1 RES1   0.0000
    12 C10      -4.4788    0.7124   -3.9551   C.3       1 RES1   0.0000
    13 C11      -4.5673    0.6026   -5.4842   C.3       1 RES1   0.0000
    14 C12      -5.0143   -0.8263   -5.8412   C.3       1 RES1   0.0000
    15 C13      -5.3837   -1.0779   -7.3111   C.3       1 RES1   0.0000
    16 C14      -4.1690   -1.2588   -8.2271   C.3       1 RES1   0.0000
    17 C15      -3.4292   -2.5934   -8.0590   C.3       1 RES1   0.0000
    18 C16      -3.8346   -3.6447   -9.0832   C.3       1 RES1   0.0000
    19 C17      -2.3483    1.6923   -1.6619   C.2       1 RES1   0.0000
    20 O1       -1.1387    1.7325   -1.3471   O.2       1 RES1   0.0000
    21 C18      -3.3100    1.0827   -0.6140   C.3       1 RES1   0.0000
    22 C19      -3.9436   -0.2346   -1.0489   C.3       1 RES1   0.0000
    23 O2       -2.4969    0.8038    0.5242   O.3       1 RES1   0.0000
    24 C20      -3.0972    1.1091    1.7870   C.3       1 RES1   0.0000
    25 C21      -4.2449    0.1559    2.1681   C.3       1 RES1   0.0000
    26 C22      -3.7398   -1.2285    2.5554   C.3       1 RES1   0.0000
    27 C23      -1.9078    1.0750    2.7466   C.2       1 RES1   0.0000
    28 O3       -0.8212    0.6438    2.3069   O.2       1 RES1   0.0000
    29 N2       -2.0565    1.5473    3.9762   N.am      1 RES1   0.0000
    30 C24      -0.9118    1.6226    4.8688   C.3       1 RES1   0.0000
    31 C25      -0.8368    0.4364    5.8378   C.3       1 RES1   0.0000
    32 C26      -0.2989    0.9473    7.1729   C.3       1 RES1   0.0000
    33 C27       0.1550   -0.1512    8.1435   C.3       1 RES1   0.0000
    34 C28       1.6619   -0.1259    8.3940   C.3       1 RES1   0.0000
    35 C29       2.1128    1.1359    9.1334   C.3       1 RES1   0.0000
    36 C30       3.6364    1.2719    9.1820   C.3       1 RES1   0.0000
    37 C31       4.0439    2.6085    9.7874   C.3       1 RES1   0.0000
    38 C32      -3.2436    2.1475    4.5735   C.3       1 RES1   0.0000
    39 C33      -3.2972    3.6707    4.3438   C.3       1 RES1   0.0000
    40 C34      -4.3717    4.1445    3.3451   C.3       1 RES1   0.0000
    41 C35      -3.7798    5.0405    2.2556   C.3       1 RES1   0.0000
    42 C36      -3.2611    6.3664    2.8081   C.3       1 RES1   0.0000
    43 C37      -2.5440    7.1718    1.7212   C.3       1 RES1   0.0000
    44 C38      -1.0375    6.9036    1.6604   C.3       1 RES1   0.0000
    45 C39      -0.2664    7.6722    2.7273   C.3       1 RES1   0.0000
    46 H1        4.5808    7.7613   -3.4231   H         1 RES1   0.0000
    47 H2        3.4569    7.3514   -2.1312   H         1 RES1   0.0000
    48 H3        3.4462    6.4432   -3.6553   H         1 RES1   0.0000
    49 H4        2.7201    9.3799   -3.2899   H         1 RES1   0.0000
    50 H5        2.7644    8.5608   -4.8575   H         1 RES1   0.0000
    51 H6        0.9453    7.7399   -2.5529   H         1 RES1   0.0000
    52 H7        0.4711    8.8670   -3.8231   H         1 RES1   0.0000
    53 H8        0.7579    7.0905   -5.5392   H         1 RES1   0.0000
    54 H9        1.3003    5.9796   -4.2822   H         1 RES1   0.0000
    55 H10      -0.9438    6.4399   -3.1138   H         1 RES1   0.0000
    56 H11      -1.4535    7.2206   -4.5875   H         1 RES1   0.0000
    57 H12      -1.5361    5.2181   -5.7837   H         1 RES1   0.0000
    58 H13      -0.2551    4.4753   -4.8400   H         1 RES1   0.0000
    59 H14      -2.2997    4.8291   -2.9460   H         1 RES1   0.0000
    60 H15      -3.1861    4.4471   -4.4100   H         1 RES1   0.0000
    61 H16      -1.8937    2.3404   -4.6611   H         1 RES1   0.0000
    62 H17      -0.8805    2.7671   -3.2810   H         1 RES1   0.0000
    63 H18      -4.8604    2.2499   -2.4725   H         1 RES1   0.0000
    64 H19      -4.3285    2.8817   -4.0154   H         1 RES1   0.0000
    65 H20      -3.7361   -0.0051   -3.6090   H         1 RES1   0.0000
    66 H21      -5.4521    0.3921   -3.5803   H         1 RES1   0.0000
    67 H22      -5.2943    1.3142   -5.8693   H         1 RES1   0.0000
    68 H23      -3.6045    0.8190   -5.9490   H         1 RES1   0.0000
    69 H24      -4.2255   -1.5246   -5.5587   H         1 RES1   0.0000
    70 H25      -5.8949   -1.0582   -5.2392   H         1 RES1   0.0000
    71 H26      -6.0180   -1.9687   -7.3598   H         1 RES1   0.0000
    72 H27      -5.9840   -0.2414   -7.6757   H         1 RES1   0.0000
    73 H28      -4.4937   -1.1848   -9.2655   H         1 RES1   0.0000
    74 H29      -3.4887   -0.4228   -8.0409   H         1 RES1   0.0000
    75 H30      -2.3590   -2.4166   -8.1780   H         1 RES1   0.0000
    76 H31      -3.5968   -2.9919   -7.0559   H         1 RES1   0.0000
    77 H32      -3.5952   -3.2972  -10.0850   H         1 RES1   0.0000
    78 H33      -3.2904   -4.5724   -8.9148   H         1 RES1   0.0000
    79 H34      -4.8989   -3.8672   -9.0382   H         1 RES1   0.0000
    80 H35      -4.0681    1.8281   -0.3366   H         1 RES1   0.0000
    81 H36      -4.2358   -0.8168   -0.1812   H         1 RES1   0.0000
    82 H37      -4.8172   -0.0818   -1.6652   H         1 RES1   0.0000
    83 H38      -3.1946   -0.8062   -1.5858   H         1 RES1   0.0000
    84 H39      -3.4787    2.1351    1.7544   H         1 RES1   0.0000
    85 H40      -4.8219    0.5716    2.9899   H         1 RES1   0.0000
    86 H41      -4.9492    0.0962    1.3364   H         1 RES1   0.0000
    87 H42      -3.3557   -1.2282    3.5728   H         1 RES1   0.0000
    88 H43      -4.5405   -1.9641    2.4894   H         1 RES1   0.0000
    89 H44      -2.9277   -1.5233    1.8936   H         1 RES1   0.0000
    90 H45      -0.0087    1.6885    4.2638   H         1 RES1   0.0000
    91 H46      -1.0037    2.5529    5.4387   H         1 RES1   0.0000
    92 H47      -1.8309    0.0005    5.9748   H         1 RES1   0.0000
    93 H48      -0.1903   -0.3423    5.4284   H         1 RES1   0.0000
    94 H49       0.5328    1.6183    6.9561   H         1 RES1   0.0000
    95 H50      -1.0806    1.5500    7.6350   H         1 RES1   0.0000
    96 H51      -0.3524   -0.0195    9.0949   H         1 RES1   0.0000
    97 H52      -0.1276   -1.1260    7.7440   H         1 RES1   0.0000
    98 H53       1.9543   -1.0067    8.9661   H         1 RES1   0.0000
    99 H54       2.1785   -0.1696    7.4330   H         1 RES1   0.0000
   100 H55       1.6953    2.0108    8.6297   H         1 RES1   0.0000
   101 H56       1.7192    1.1297   10.1532   H         1 RES1   0.0000
   102 H57       4.0554    0.4571    9.7727   H         1 RES1   0.0000
   103 H58       4.0431    1.1823    8.1674   H         1 RES1   0.0000
   104 H59       3.6693    2.6899   10.8007   H         1 RES1   0.0000
   105 H60       5.1238    2.6970    9.8204   H         1 RES1   0.0000
   106 H61       3.6431    3.4256    9.1931   H         1 RES1   0.0000
   107 H62      -4.1513    1.6823    4.2100   H         1 RES1   0.0000
   108 H63      -3.1749    1.9269    5.6412   H         1 RES1   0.0000
   109 H64      -3.4620    4.1726    5.2969   H         1 RES1   0.0000
   110 H65      -2.3146    3.9823    3.9818   H         1 RES1   0.0000
   111 H66      -4.8775    3.2918    2.8832   H         1 RES1   0.0000
   112 H67      -5.1418    4.7008    3.8791   H         1 RES1   0.0000
   113 H68      -2.9605    4.5100    1.7551   H         1 RES1   0.0000
   114 H69      -4.5496    5.2460    1.5082   H         1 RES1   0.0000
   115 H70      -4.1076    6.9301    3.1967   H         1 RES1   0.0000
   116 H71      -2.5771    6.1835    3.6382   H         1 RES1   0.0000
   117 H72      -2.9916    6.9308    0.7533   H         1 RES1   0.0000
   118 H73      -2.6919    8.2366    1.8891   H         1 RES1   0.0000
   119 H74      -0.8514    5.8302    1.7646   H         1 RES1   0.0000
   120 H75      -0.6641    7.2057    0.6799   H         1 RES1   0.0000
   121 H76      -0.6622    7.4693    3.7182   H         1 RES1   0.0000
   122 H77       0.7886    7.4043    2.7128   H         1 RES1   0.0000
   123 H78      -0.3484    8.7405    2.5462   H         1 RES1   0.0000
   124 C40       0.4967   -6.5232    5.5738   C.3       1 RES1   0.0000
   125 C41       1.9731   -6.6495    5.9379   C.3       1 RES1   0.0000
   126 C42       2.8778   -5.6632    5.1936   C.3       1 RES1   0.0000
   127 C43       2.5997   -4.2170    5.5911   C.3       1 RES1   0.0000
   128 C44       3.3469   -3.1707    4.7649   C.3       1 RES1   0.0000
   129 C45       2.7342   -1.8006    5.0388   C.3       1 RES1   0.0000
   130 C46       3.2997   -0.6713    4.1774   C.3       1 RES1   0.0000
   131 C47       2.3584    0.5325    4.2230   C.3       1 RES1   0.0000
   132 N3        2.7388    1.6601    3.3677   N.am      1 RES1   0.0000
   133 C48       3.6647    2.6146    3.9844   C.3       1 RES1   0.0000
   134 C49       3.1380    3.3811    5.2167   C.3       1 RES1   0.0000
   135 C50       1.9187    4.2853    5.0245   C.3       1 RES1   0.0000
   136 C51       1.3931    4.8332    6.3563   C.3       1 RES1   0.0000
   137 C52      -0.0104    5.4300    6.2159   C.3       1 RES1   0.0000
   138 C53      -0.5064    6.1162    7.4935   C.3       1 RES1   0.0000
   139 C54      -0.7955    5.1751    8.6656   C.3       1 RES1   0.0000
   140 C55      -2.1293    4.4472    8.5195   C.3       1 RES1   0.0000
   141 C56       2.3457    1.6033    2.0939   C.2       1 RES1   0.0000
   142 O4        1.7306    0.6074    1.6531   O.2       1 RES1   0.0000
   143 C57       2.6404    2.7320    1.0821   C.3       1 RES1   0.0000
   144 C58       2.1785    4.1096    1.5358   C.3       1 RES1   0.0000
   145 O5        1.9322    2.3605   -0.1090   O.3       1 RES1   0.0000
   146 C59       2.4620    2.8419   -1.3528   C.3       1 RES1   0.0000
   147 C60       1.6461    3.9977   -2.0037   C.3       1 RES1   0.0000
   148 C61       0.5174    4.5982   -1.1737   C.3       1 RES1   0.0000
   149 C62       2.3831    1.6384   -2.3070   C.2       1 RES1   0.0000
   150 O6        1.5999    0.7163   -2.0021   O.2       1 RES1   0.0000
   151 N4        3.1312    1.5817   -3.4083   N.am      1 RES1   0.0000
   152 C63       3.1249    0.3263   -4.1626   C.3       1 RES1   0.0000
   153 C64       3.6897   -0.8438   -3.3615   C.3       1 RES1   0.0000
   154 C65       3.4928   -2.1645   -4.1072   C.3       1 RES1   0.0000
   155 C66       4.3136   -2.3075   -5.3887   C.3       1 RES1   0.0000
   156 C67       5.8182   -2.3576   -5.1233   C.3       1 RES1   0.0000
   157 C68       6.6238   -2.7531   -6.3629   C.3       1 RES1   0.0000
   158 C69       6.6161   -1.7122   -7.4819   C.3       1 RES1   0.0000
   159 C70       7.4317   -0.4739   -7.1368   C.3       1 RES1   0.0000
   160 C71       3.7712    2.7157   -4.0621   C.3       1 RES1   0.0000
   161 C72       2.8854    3.2943   -5.1905   C.3       1 RES1   0.0000
   162 C73       3.0243    2.6750   -6.5927   C.3       1 RES1   0.0000
   163 C74       3.9824    3.3726   -7.5643   C.3       1 RES1   0.0000
   164 C75       5.4752    3.2143   -7.2603   C.3       1 RES1   0.0000
   165 C76       6.0419    4.3208   -6.3676   C.3       1 RES1   0.0000
   166 C77       7.3940    3.9283   -5.7712   C.3       1 RES1   0.0000
   167 C78       7.9518    5.0117   -4.8555   C.3       1 RES1   0.0000
   168 H79      -0.0744   -7.3101    6.0573   H         1 RES1   0.0000
   169 H80       0.3550   -6.6170    4.4983   H         1 RES1   0.0000
   170 H81       0.0810   -5.5725    5.8982   H         1 RES1   0.0000
   171 H82       2.3032   -7.6630    5.7093   H         1 RES1   0.0000
   172 H83       2.0926   -6.5033    7.0123   H         1 RES1   0.0000
   173 H84       2.7278   -5.7816    4.1170   H         1 RES1   0.0000
   174 H85       3.9217   -5.8990    5.4101   H         1 RES1   0.0000
   175 H86       2.8596   -4.0795    6.6389   H         1 RES1   0.0000
   176 H87       1.5308   -4.0194    5.4928   H         1 RES1   0.0000
   177 H88       3.2767   -3.4169    3.7010   H         1 RES1   0.0000
   178 H89       4.4038   -3.1653    5.0302   H         1 RES1   0.0000
   179 H90       2.8908   -1.5766    6.0926   H         1 RES1   0.0000
   180 H91       1.6581   -1.8594    4.8621   H         1 RES1   0.0000
   181 H92       3.3746   -1.0094    3.1442   H         1 RES1   0.0000
   182 H93       4.2980   -0.4086    4.5328   H         1 RES1   0.0000
   183 H94       2.2834    0.8851    5.2469   H         1 RES1   0.0000
   184 H95       1.3812    0.1986    3.8801   H         1 RES1   0.0000
   185 H96       4.0231    3.3156    3.2327   H         1 RES1   0.0000
   186 H97       4.5330    2.0329    4.3191   H         1 RES1   0.0000
   187 H98       3.9699    3.9814    5.5877   H         1 RES1   0.0000
   188 H99       2.9061    2.6741    6.0074   H         1 RES1   0.0000
   189 H100      1.1263    3.7160    4.5345   H         1 RES1   0.0000
   190 H101      2.1708    5.1362    4.3897   H         1 RES1   0.0000
   191 H102      2.0708    5.6008    6.7271   H         1 RES1   0.0000
   192 H103      1.3681    4.0351    7.0992   H         1 RES1   0.0000
   193 H104     -0.7083    4.6362    5.9276   H         1 RES1   0.0000
   194 H105     -0.0039    6.1687    5.4091   H         1 RES1   0.0000
   195 H106     -1.4237    6.6653    7.2727   H         1 RES1   0.0000
   196 H107      0.2467    6.8443    7.7964   H         1 RES1   0.0000
   197 H108     -0.8280    5.7669    9.5815   H         1 RES1   0.0000
   198 H109      0.0111    4.4484    8.7776   H         1 RES1   0.0000
   199 H110     -2.9594    5.1488    8.5824   H         1 RES1   0.0000
   200 H111     -2.2554    3.7067    9.3071   H         1 RES1   0.0000
   201 H112     -2.1887    3.9404    7.5567   H         1 RES1   0.0000
   202 H113      3.7240    2.7007    0.8805   H         1 RES1   0.0000
   203 H114      1.1025    4.0863    1.6835   H         1 RES1   0.0000
   204 H115      2.4177    4.8524    0.7804   H         1 RES1   0.0000
   205 H116      2.6481    4.4289    2.4537   H         1 RES1   0.0000
   206 H117      3.5042    3.1424   -1.1960   H         1 RES1   0.0000
   207 H118      1.1966    3.6066   -2.9140   H         1 RES1   0.0000
   208 H119      2.3333    4.7868   -2.3027   H         1 RES1   0.0000
   209 H120     -0.1599    5.1045   -1.8545   H         1 RES1   0.0000
   210 H121      0.8788    5.3437   -0.4742   H         1 RES1   0.0000
   211 H122     -0.0417    3.8282   -0.6439   H         1 RES1   0.0000
   212 H123      3.7354    0.4666   -5.0515   H         1 RES1   0.0000
   213 H124      2.1020    0.0918   -4.4673   H         1 RES1   0.0000
   214 H125      3.1626   -0.8867   -2.4071   H         1 RES1   0.0000
   215 H126      4.7480   -0.6725   -3.1689   H         1 RES1   0.0000
   216 H127      2.4304   -2.2654   -4.3413   H         1 RES1   0.0000
   217 H128      3.7644   -2.9872   -3.4456   H         1 RES1   0.0000
   218 H129      4.0790   -1.4939   -6.0753   H         1 RES1   0.0000
   219 H130      4.0201   -3.2379   -5.8786   H         1 RES1   0.0000
   220 H131      6.0115   -3.0914   -4.3334   H         1 RES1   0.0000
   221 H132      6.1671   -1.3870   -4.7673   H         1 RES1   0.0000
   222 H133      6.2350   -3.6979   -6.7479   H         1 RES1   0.0000
   223 H134      7.6588   -2.9253   -6.0635   H         1 RES1   0.0000
   224 H135      5.5913   -1.4295   -7.7223   H         1 RES1   0.0000
   225 H136      7.0415   -2.1668   -8.3754   H         1 RES1   0.0000
   226 H137      7.0238    0.0439   -6.2722   H         1 RES1   0.0000
   227 H138      7.4468    0.2233   -7.9697   H         1 RES1   0.0000
   228 H139      8.4580   -0.7508   -6.9110   H         1 RES1   0.0000
   229 H140      4.7336    2.3960   -4.4665   H         1 RES1   0.0000
   230 H141      3.9689    3.4888   -3.3186   H         1 RES1   0.0000
   231 H142      3.0837    4.3631   -5.2760   H         1 RES1   0.0000
   232 H143      1.8465    3.1874   -4.8662   H         1 RES1   0.0000
   233 H144      2.0374    2.7151   -7.0561   H         1 RES1   0.0000
   234 H145      3.3002    1.6231   -6.5308   H         1 RES1   0.0000
   235 H146      3.7302    4.4322   -7.6276   H         1 RES1   0.0000
   236 H147      3.7877    2.9403   -8.5476   H         1 RES1   0.0000
   237 H148      6.0287    3.2278   -8.2006   H         1 RES1   0.0000
   238 H149      5.6533    2.2370   -6.8032   H         1 RES1   0.0000
   239 H150      5.3511    4.5473   -5.5512   H         1 RES1   0.0000
   240 H151      6.1606    5.2331   -6.9562   H         1 RES1   0.0000
   241 H152      8.1077    3.7312   -6.5747   H         1 RES1   0.0000
   242 H153      7.2703    2.9996   -5.2023   H         1 RES1   0.0000
   243 H154      8.1805    5.9087   -5.4228   H         1 RES1   0.0000
   244 H155      8.8672    4.6728   -4.3784   H         1 RES1   0.0000
   245 H156      7.2312    5.2705   -4.0816   H         1 RES1   0.0000
   246 C79      -9.0686   -0.7966   -2.7073   C.3       1 RES1   0.0000
   247 C80      -8.5060   -1.4434   -1.4467   C.3       1 RES1   0.0000
   248 C81      -7.0569   -1.9184   -1.6043   C.3       1 RES1   0.0000
   249 C82      -6.9629   -3.2581   -2.3318   C.3       1 RES1   0.0000
   250 C83      -5.5901   -3.9369   -2.2817   C.3       1 RES1   0.0000
   251 C84      -4.5671   -3.2108   -3.1736   C.3       1 RES1   0.0000
   252 C85      -3.5711   -4.0953   -3.9459   C.3       1 RES1   0.0000
   253 C86      -2.1050   -4.1082   -3.4681   C.3       1 RES1   0.0000
   254 N5       -1.5135   -2.7728   -3.3450   N.am      1 RES1   0.0000
   255 C87      -1.2483   -2.2083   -4.6758   C.3       1 RES1   0.0000
   256 C88      -0.8457   -0.7486   -4.8163   C.3       1 RES1   0.0000
   257 C89      -0.5760   -0.4768   -6.3003   C.3       1 RES1   0.0000
   258 C90      -0.5452    1.0154   -6.5899   C.3       1 RES1   0.0000
   259 C91      -0.4460    1.3593   -8.0759   C.3       1 RES1   0.0000
   260 C92      -0.7945    2.8167   -8.3906   C.3       1 RES1   0.0000
   261 C93      -2.2602    3.1302   -8.0791   C.3       1 RES1   0.0000
   262 C94      -2.7259    4.4800   -8.6113   C.3       1 RES1   0.0000
   263 C95      -1.1735   -2.2149   -2.1871   C.2       1 RES1   0.0000
   264 O7       -0.8399   -1.0229   -2.0377   O.2       1 RES1   0.0000
   265 C96      -1.1332   -3.1137   -0.9280   C.3       1 RES1   0.0000
   266 C97      -2.4938   -3.5245   -0.3671   C.3       1 RES1   0.0000
   267 O8       -0.4635   -2.3744    0.1095   O.3       1 RES1   0.0000
   268 C98       0.5689   -3.0881    0.8032   C.3       1 RES1   0.0000
   269 C99       0.5539   -2.6280    2.2667   C.3       1 RES1   0.0000
   270 C100     -0.5087   -3.3636    3.0735   C.3       1 RES1   0.0000
   271 C101      1.9005   -2.6903    0.1444   C.2       1 RES1   0.0000
   272 O9        1.9152   -1.5773   -0.4238   O.2       1 RES1   0.0000
   273 N6        2.9485   -3.5025    0.1862   N.am      1 RES1   0.0000
   274 C102      3.0540   -4.6988    1.0120   C.3       1 RES1   0.0000
   275 C103      3.1785   -5.9997    0.2133   C.3       1 RES1   0.0000
   276 C104      1.9929   -6.2489   -0.7167   C.3       1 RES1   0.0000
   277 C105      2.1933   -7.5056   -1.5677   C.3       1 RES1   0.0000
   278 C106      3.3385   -7.4484   -2.5837   C.3       1 RES1   0.0000
   279 C107      3.3682   -6.2514   -3.5393   C.3       1 RES1   0.0000
   280 C108      2.2641   -6.2056   -4.5993   C.3       1 RES1   0.0000
   281 C109      0.9555   -5.5997   -4.1028   C.3       1 RES1   0.0000
   282 C110      4.1366   -3.1793   -0.5995   C.3       1 RES1   0.0000
   283 C111      5.3503   -2.7529    0.2259   C.3       1 RES1   0.0000
   284 C112      4.9996   -1.5898    1.1644   C.3       1 RES1   0.0000
   285 C113      6.0053   -0.4395    1.2234   C.3       1 RES1   0.0000
   286 C114      5.9812    0.4959    0.0069   C.3       1 RES1   0.0000
   287 C115      6.9358    0.0827   -1.1133   C.3       1 RES1   0.0000
   288 C116      7.1404    1.1922   -2.1428   C.3       1 RES1   0.0000
   289 C117      8.1368    0.7605   -3.2084   C.3       1 RES1   0.0000
   290 H157    -10.1169   -0.5559   -2.5616   H         1 RES1   0.0000
   291 H158     -8.9936   -1.4620   -3.5593   H         1 RES1   0.0000
   292 H159     -8.5431    0.1273   -2.9409   H         1 RES1   0.0000
   293 H160     -9.1368   -2.2896   -1.1699   H         1 RES1   0.0000
   294 H161     -8.5604   -0.7201   -0.6309   H         1 RES1   0.0000
   295 H162     -6.6042   -2.0219   -0.6136   H         1 RES1   0.0000
   296 H163     -6.4992   -1.1537   -2.1473   H         1 RES1   0.0000
   297 H164     -7.2375   -3.1264   -3.3768   H         1 RES1   0.0000
   298 H165     -7.7011   -3.9294   -1.8971   H         1 RES1   0.0000
   299 H166     -5.7077   -4.9665   -2.6205   H         1 RES1   0.0000
   300 H167     -5.2550   -3.9854   -1.2424   H         1 RES1   0.0000
   301 H168     -4.0259   -2.4601   -2.5984   H         1 RES1   0.0000
   302 H169     -5.1445   -2.6686   -3.9181   H         1 RES1   0.0000
   303 H170     -3.5839   -3.7883   -4.9922   H         1 RES1   0.0000
   304 H171     -3.9073   -5.1322   -3.9362   H         1 RES1   0.0000
   305 H172     -1.5302   -4.6609   -4.2152   H         1 RES1   0.0000
   306 H173     -2.0168   -4.6457   -2.5310   H         1 RES1   0.0000
   307 H174     -2.1626   -2.3397   -5.2558   H         1 RES1   0.0000
   308 H175     -0.4698   -2.8327   -5.1369   H         1 RES1   0.0000
   309 H176      0.0332   -0.5147   -4.2169   H         1 RES1   0.0000
   310 H177     -1.6597   -0.1174   -4.4593   H         1 RES1   0.0000
   311 H178     -1.3618   -0.9323   -6.9053   H         1 RES1   0.0000
   312 H179      0.3627   -0.9437   -6.5929   H         1 RES1   0.0000
   313 H180      0.2721    1.4702   -6.0328   H         1 RES1   0.0000
   314 H181     -1.4780    1.4293   -6.2154   H         1 RES1   0.0000
   315 H182     -1.1530    0.7307   -8.6242   H         1 RES1   0.0000
   316 H183      0.5557    1.1284   -8.4392   H         1 RES1   0.0000
   317 H184     -0.6218    2.9745   -9.4553   H         1 RES1   0.0000
   318 H185     -0.1353    3.5010   -7.8541   H         1 RES1   0.0000
   319 H186     -2.4281    3.1127   -6.9967   H         1 RES1   0.0000
   320 H187     -2.8792    2.3453   -8.5259   H         1 RES1   0.0000
   321 H188     -2.1221    5.2850   -8.2044   H         1 RES1   0.0000
   322 H189     -3.7611    4.6530   -8.3285   H         1 RES1   0.0000
   323 H190     -2.6654    4.5107   -9.6971   H         1 RES1   0.0000
   324 H191     -0.5269   -3.9899   -1.1962   H         1 RES1   0.0000
   325 H192     -3.1805   -3.8549   -1.1298   H         1 RES1   0.0000
   326 H193     -2.9309   -2.6667    0.1337   H         1 RES1   0.0000
   327 H194     -2.3619   -4.3286    0.3508   H         1 RES1   0.0000
   328 H195      0.3893   -4.1665    0.7310   H         1 RES1   0.0000
   329 H196      0.3711   -1.5428    2.2626   H         1 RES1   0.0000
   330 H197      1.5365   -2.8026    2.7030   H         1 RES1   0.0000
   331 H198     -1.4880   -3.2625    2.6139   H         1 RES1   0.0000
   332 H199     -0.5670   -2.9587    4.0788   H         1 RES1   0.0000
   333 H200     -0.2634   -4.4208    3.1534   H         1 RES1   0.0000
   334 H201      2.2004   -4.7597    1.6846   H         1 RES1   0.0000
   335 H202      3.9522   -4.5800    1.6257   H         1 RES1   0.0000
   336 H203      3.2499   -6.8150    0.9353   H         1 RES1   0.0000
   337 H204      4.1029   -5.9998   -0.3629   H         1 RES1   0.0000
   338 H205      1.8387   -5.3787   -1.3603   H         1 RES1   0.0000
   339 H206      1.0896   -6.3907   -0.1148   H         1 RES1   0.0000
   340 H207      1.2624   -7.7422   -2.0843   H         1 RES1   0.0000
   341 H208      2.4037   -8.3345   -0.8910   H         1 RES1   0.0000
   342 H209      3.3023   -8.3663   -3.1733   H         1 RES1   0.0000
   343 H210      4.2921   -7.4624   -2.0521   H         1 RES1   0.0000
   344 H211      4.3266   -6.2841   -4.0646   H         1 RES1   0.0000
   345 H212      3.3479   -5.3177   -2.9703   H         1 RES1   0.0000
   346 H213      2.0793   -7.2107   -4.9817   H         1 RES1   0.0000
   347 H214      2.6183   -5.5978   -5.4374   H         1 RES1   0.0000
   348 H215      0.4841   -6.2327   -3.3568   H         1 RES1   0.0000
   349 H216      0.2734   -5.4934   -4.9436   H         1 RES1   0.0000
   350 H217      1.1323   -4.6139   -3.6681   H         1 RES1   0.0000
   351 H218      3.8598   -2.3567   -1.2559   H         1 RES1   0.0000
   352 H219      4.3829   -4.0580   -1.1997   H         1 RES1   0.0000
   353 H220      6.1286   -2.4675   -0.4790   H         1 RES1   0.0000
   354 H221      5.7521   -3.5925    0.7943   H         1 RES1   0.0000
   355 H222      4.8953   -1.9907    2.1736   H         1 RES1   0.0000
   356 H223      4.0342   -1.1717    0.8652   H         1 RES1   0.0000
   357 H224      7.0116   -0.8349    1.3655   H         1 RES1   0.0000
   358 H225      5.7592    0.1509    2.1105   H         1 RES1   0.0000
   359 H226      6.2819    1.4936    0.3386   H         1 RES1   0.0000
   360 H227      4.9571    0.5706   -0.3779   H         1 RES1   0.0000
   361 H228      6.5633   -0.8059   -1.6261   H         1 RES1   0.0000
   362 H229      7.9046   -0.1656   -0.6743   H         1 RES1   0.0000
   363 H230      7.5140    2.0875   -1.6432   H         1 RES1   0.0000
   364 H231      6.1783    1.4474   -2.5995   H         1 RES1   0.0000
   365 H232      9.0947    0.5262   -2.7553   H         1 RES1   0.0000
   366 H233      8.2977    1.5490   -3.9358   H         1 RES1   0.0000
   367 H234      7.7902   -0.1279   -3.7289   H         1 RES1   0.0000
@<TRIPOS>BOND
     1     1    20    1
     2     1    23    1
     3     1    28    1
     4     1   142    1
     5     1   145    1
     6     1   150    1
     7     1   264    1
     8     1   267    1
     9     1   272    1
    10     2     3    1
    11     2    46    1
    12     2    47    1
    13     2    48    1
    14     3     4    1
    15     3    49    1
    16     3    50    1
    17     4     5    1
    18     4    51    1
    19     4    52    1
    20     5     6    1
    21     5    53    1
    22     5    54    1
    23     6     7    1
    24     6    55    1
    25     6    56    1
    26     7     8    1
    27     7    57    1
    28     7    58    1
    29     8     9    1
    30     8    59    1
    31     8    60    1
    32     9    10    1
    33     9    61    1
    34     9    62    1
    35    10    11    1
    36    10    19    1
    37    11    12    1
    38    11    63    1
    39    11    64    1
    40    12    13    1
    41    12    65    1
    42    12    66    1
    43    13    14    1
    44    13    67    1
    45    13    68    1
    46    14    15    1
    47    14    69    1
    48    14    70    1
    49    15    16    1
    50    15    71    1
    51    15    72    1
    52    16    17    1
    53    16    73    1
    54    16    74    1
    55    17    18    1
    56    17    75    1
    57    17    76    1
    58    18    77    1
    59    18    78    1
    60    18    79    1
    61    19    20    2
    62    19    21    1
    63    21    22    1
    64    21    23    1
    65    21    80    1
    66    22    81    1
    67    22    82    1
    68    22    83    1
    69    23    24    1
    70    24    25    1
    71    24    27    1
    72    24    84    1
    73    25    26    1
    74    25    85    1
    75    25    86    1
    76    26    87    1
    77    26    88    1
    78    26    89    1
    79    27    28    2
    80    27    29    1
    81    29    30    1
    82    29    38    1
    83    30    31    1
    84    30    90    1
    85    30    91    1
    86    31    32    1
    87    31    92    1
    88    31    93    1
    89    32    33    1
    90    32    94    1
    91    32    95    1
    92    33    34    1
    93    33    96    1
    94    33    97    1
    95    34    35    1
    96    34    98    1
    97    34    99    1
    98    35    36    1
    99    35   100    1
   100    35   101    1
   101    36    37    1
   102    36   102    1
   103    36   103    1
   104    37   104    1
   105    37   105    1
   106    37   106    1
   107    38    39    1
   108    38   107    1
   109    38   108    1
   110    39    40    1
   111    39   109    1
   112    39   110    1
   113    40    41    1
   114    40   111    1
   115    40   112    1
   116    41    42    1
   117    41   113    1
   118    41   114    1
   119    42    43    1
   120    42   115    1
   121    42   116    1
   122    43    44    1
   123    43   117    1
   124    43   118    1
   125    44    45    1
   126    44   119    1
   127    44   120    1
   128    45   121    1
   129    45   122    1
   130    45   123    1
   131   124   125    1
   132   124   168    1
   133   124   169    1
   134   124   170    1
   135   125   126    1
   136   125   171    1
   137   125   172    1
   138   126   127    1
   139   126   173    1
   140   126   174    1
   141   127   128    1
   142   127   175    1
   143   127   176    1
   144   128   129    1
   145   128   177    1
   146   128   178    1
   147   129   130    1
   148   129   179    1
   149   129   180    1
   150   130   131    1
   151   130   181    1
   152   130   182    1
   153   131   132    1
   154   131   183    1
   155   131   184    1
   156   132   133    1
   157   132   141    1
   158   133   134    1
   159   133   185    1
   160   133   186    1
   161   134   135    1
   162   134   187    1
   163   134   188    1
   164   135   136    1
   165   135   189    1
   166   135   190    1
   167   136   137    1
   168   136   191    1
   169   136   192    1
   170   137   138    1
   171   137   193    1
   172   137   194    1
   173   138   139    1
   174   138   195    1
   175   138   196    1
   176   139   140    1
   177   139   197    1
   178   139   198    1
   179   140   199    1
   180   140   200    1
   181   140   201    1
   182   141   142    2
   183   141   143    1
   184   143   144    1
   185   143   145    1
   186   143   202    1
   187   144   203    1
   188   144   204    1
   189   144   205    1
   190   145   146    1
   191   146   147    1
   192   146   149    1
   193   146   206    1
   194   147   148    1
   195   147   207    1
   196   147   208    1
   197   148   209    1
   198   148   210    1
   199   148   211    1
   200   149   150    2
   201   149   151    1
   202   151   152    1
   203   151   160    1
   204   152   153    1
   205   152   212    1
   206   152   213    1
   207   153   154    1
   208   153   214    1
   209   153   215    1
   210   154   155    1
   211   154   216    1
   212   154   217    1
   213   155   156    1
   214   155   218    1
   215   155   219    1
   216   156   157    1
   217   156   220    1
   218   156   221    1
   219   157   158    1
   220   157   222    1
   221   157   223    1
   222   158   159    1
   223   158   224    1
   224   158   225    1
   225   159   226    1
   226   159   227    1
   227   159   228    1
   228   160   161    1
   229   160   229    1
   230   160   230    1
   231   161   162    1
   232   161   231    1
   233   161   232    1
   234   162   163    1
   235   162   233    1
   236   162   234    1
   237   163   164    1
   238   163   235    1
   239   163   236    1
   240   164   165    1
   241   164   237    1
   242   164   238    1
   243   165   166    1
   244   165   239    1
   245   165   240    1
   246   166   167    1
   247   166   241    1
   248   166   242    1
   249   167   243    1
   250   167   244    1
   251   167   245    1
   252   246   247    1
   253   246   290    1
   254   246   291    1
   255   246   292    1
   256   247   248    1
   257   247   293    1
   258   247   294    1
   259   248   249    1
   260   248   295    1
   261   248   296    1
   262   249   250    1
   263   249   297    1
   264   249   298    1
   265   250   251    1
   266   250   299    1
   267   250   300    1
   268   251   252    1
   269   251   301    1
   270   251   302    1
   271   252   253    1
   272   252   303    1
   273   252   304    1
   274   253   254    1
   275   253   305    1
   276   253   306    1
   277   254   255    1
   278   254   263    1
   279   255   256    1
   280   255   307    1
   281   255   308    1
   282   256   257    1
   283   256   309    1
   284   256   310    1
   285   257   258    1
   286   257   311    1
   287   257   312    1
   288   258   259    1
   289   258   313    1
   290   258   314    1
   291   259   260    1
   292   259   315    1
   293   259   316    1
   294   260   261    1
   295   260   317    1
   296   260   318    1
   297   261   262    1
   298   261   319    1
   299   261   320    1
   300   262   321    1
   301   262   322    1
   302   262   323    1
   303   263   264    2
   304   263   265    1
   305   265   266    1
   306   265   267    1
   307   265   324    1
   308   266   325    1
   309   266   326    1
   310   266   327    1
   311   267   268    1
   312   268   269    1
   313   268   271    1
   314   268   328    1
   315   269   270    1
   316   269   329    1
   317   269   330    1
   318   270   331    1
   319   270   332    1
   320   270   333    1
   321   271   272    2
   322   271   273    1
   323   273   274    1
   324   273   282    1
   325   274   275    1
   326   274   334    1
   327   274   335    1
   328   275   276    1
   329   275   336    1
   330   275   337    1
   331   276   277    1
   332   276   338    1
   333   276   339    1
   334   277   278    1
   335   277   340    1
   336   277   341    1
   337   278   279    1
   338   278   342    1
   339   278   343    1
   340   279   280    1
   341   279   344    1
   342   279   345    1
   343   280   281    1
   344   280   346    1
   345   280   347    1
   346   281   348    1
   347   281   349    1
   348   281   350    1
   349   282   283    1
   350   282   351    1
   351   282   352    1
   352   283   284    1
   353   283   353    1
   354   283   354    1
   355   284   285    1
   356   284   355    1
   357   284   356    1
   358   285   286    1
   359   285   357    1
   360   285   358    1
   361   286   287    1
   362   286   359    1
   363   286   360    1
   364   287   288    1
   365   287   361    1
   366   287   362    1
   367   288   289    1
   368   288   363    1
   369   288   364    1
   370   289   365    1
   371   289   366    1
   372   289   367    1
@<TRIPOS>SUBSTRUCTURE
     1 RES1      367 GROUP             0 ****  ****    0  
