@<TRIPOS>MOLECULE
am_c3_9H2O_c0_0_nunpairedes_0_charge_3 Charge: 3 Unpaired_Electrons: 7 XTB_Unpaired_Electrons: 0 XTB_Charge: 3
   136   150     1     0     0
SMALL
NoCharges
****
Generated from Architector

@<TRIPOS>ATOM
     1 Gd1       0.1696    0.1243    0.0253   Gd        1 RES1   0.0000
     2 C1       -3.5607    1.6866   -3.6485   C.3       1 RES1   0.0000
     3 N1       -2.1271    1.5593   -3.4505   N.am      1 RES1   0.0000
     4 C2       -1.6086    1.5544   -2.2152   C.2       1 RES1   0.0000
     5 O1       -0.4702    1.1004   -1.9754   O.2       1 RES1   0.0000
     6 C3       -2.3623    2.0700   -1.0115   C.ar      1 RES1   0.0000
     7 C4       -3.3011    3.0987   -0.9458   C.ar      1 RES1   0.0000
     8 C5       -3.7341    3.5147    0.3092   C.ar      1 RES1   0.0000
     9 C6       -3.2720    2.8761    1.4539   C.ar      1 RES1   0.0000
    10 C7       -2.3412    1.8441    1.3065   C.ar      1 RES1   0.0000
    11 C8       -1.5554    1.1604    2.4101   C.2       1 RES1   0.0000
    12 O2       -0.3425    1.0049    2.1562   O.2       1 RES1   0.0000
    13 N2       -2.1430    0.8390    3.5665   N.am      1 RES1   0.0000
    14 C9       -3.5582    0.4976    3.5642   C.3       1 RES1   0.0000
    15 C10      -1.4467    0.7746    4.8122   C.ar      1 RES1   0.0000
    16 C11      -0.0697    0.5796    4.9147   C.ar      1 RES1   0.0000
    17 C12       0.5704    0.7737    6.1306   C.ar      1 RES1   0.0000
    18 C13      -0.1497    1.1182    7.2628   C.ar      1 RES1   0.0000
    19 C14      -1.5295    1.2045    7.1799   C.ar      1 RES1   0.0000
    20 C15      -2.1795    1.0386    5.9703   C.ar      1 RES1   0.0000
    21 N3       -1.8896    1.4977    0.1020   N.ar      1 RES1   0.0000
    22 C16      -1.2797    1.3551   -4.5947   C.ar      1 RES1   0.0000
    23 C17       0.0411    1.8037   -4.5482   C.ar      1 RES1   0.0000
    24 C18       0.8790    1.6492   -5.6367   C.ar      1 RES1   0.0000
    25 C19       0.4236    1.0624   -6.8055   C.ar      1 RES1   0.0000
    26 C20      -0.8915    0.6367   -6.8640   C.ar      1 RES1   0.0000
    27 C21      -1.7377    0.7654   -5.7724   C.ar      1 RES1   0.0000
    28 H1       -4.0984    1.3012   -2.7827   H         1 RES1   0.0000
    29 H2       -3.8578    1.0829   -4.5030   H         1 RES1   0.0000
    30 H3       -3.8569    2.7204   -3.8432   H         1 RES1   0.0000
    31 H4       -3.6920    3.5902   -1.8217   H         1 RES1   0.0000
    32 H5       -4.4343    4.3369    0.3786   H         1 RES1   0.0000
    33 H6       -3.6125    3.1798    2.4328   H         1 RES1   0.0000
    34 H7       -3.8195    0.0801    2.5940   H         1 RES1   0.0000
    35 H8       -4.2047    1.3465    3.7763   H         1 RES1   0.0000
    36 H9       -3.7178   -0.2635    4.3283   H         1 RES1   0.0000
    37 H10       0.5107    0.2709    4.0575   H         1 RES1   0.0000
    38 H11       1.6413    0.6364    6.1846   H         1 RES1   0.0000
    39 H12       0.3466    1.2947    8.2055   H         1 RES1   0.0000
    40 H13      -2.1100    1.4009    8.0645   H         1 RES1   0.0000
    41 H14      -3.2510    1.1460    5.9397   H         1 RES1   0.0000
    42 H15       0.4167    2.2800   -3.6577   H         1 RES1   0.0000
    43 H16       1.8893    2.0115   -5.5567   H         1 RES1   0.0000
    44 H17       1.0655    0.9550   -7.6665   H         1 RES1   0.0000
    45 H18      -1.2687    0.2089   -7.7776   H         1 RES1   0.0000
    46 H19      -2.7453    0.3929   -5.8888   H         1 RES1   0.0000
    47 C22      -0.0698    4.6572    1.2792   C.3       1 RES1   0.0000
    48 N4        1.0578    3.9163    1.8159   N.am      1 RES1   0.0000
    49 C23       1.4721    2.8769    1.0986   C.2       1 RES1   0.0000
    50 O3        0.8822    2.5196    0.0525   O.2       1 RES1   0.0000
    51 C24       2.6626    2.0405    1.4288   C.ar      1 RES1   0.0000
    52 C25       3.9597    2.4773    1.6778   C.ar      1 RES1   0.0000
    53 C26       4.9689    1.5328    1.5951   C.ar      1 RES1   0.0000
    54 C27       4.6674    0.1966    1.3615   C.ar      1 RES1   0.0000
    55 C28       3.3255   -0.1668    1.2436   C.ar      1 RES1   0.0000
    56 C29       2.6992   -1.5108    1.0006   C.2       1 RES1   0.0000
    57 O4        1.4486   -1.5622    0.9336   O.2       1 RES1   0.0000
    58 N5        3.4519   -2.5816    0.7671   N.am      1 RES1   0.0000
    59 C30       2.8426   -3.7558    0.1750   C.3       1 RES1   0.0000
    60 C31       4.7724   -2.7351    1.2748   C.ar      1 RES1   0.0000
    61 C32       5.8228   -3.0529    0.4233   C.ar      1 RES1   0.0000
    62 C33       7.0876   -3.2564    0.9529   C.ar      1 RES1   0.0000
    63 C34       7.2993   -3.1487    2.3181   C.ar      1 RES1   0.0000
    64 C35       6.2492   -2.8124    3.1592   C.ar      1 RES1   0.0000
    65 C36       4.9780   -2.6079    2.6481   C.ar      1 RES1   0.0000
    66 N6        2.3697    0.7612    1.2101   N.ar      1 RES1   0.0000
    67 C37       1.5376    4.3312    3.0889   C.ar      1 RES1   0.0000
    68 C38       1.9938    3.3955    4.0142   C.ar      1 RES1   0.0000
    69 C39       2.4281    3.8071    5.2640   C.ar      1 RES1   0.0000
    70 C40       2.3936    5.1430    5.6242   C.ar      1 RES1   0.0000
    71 C41       1.9070    6.0661    4.7139   C.ar      1 RES1   0.0000
    72 C42       1.4784    5.6762    3.4546   C.ar      1 RES1   0.0000
    73 H20      -0.6118    4.0202    0.5778   H         1 RES1   0.0000
    74 H21       0.2875    5.5354    0.7414   H         1 RES1   0.0000
    75 H22      -0.7102    4.9641    2.1027   H         1 RES1   0.0000
    76 H23       4.1747    3.5103    1.8990   H         1 RES1   0.0000
    77 H24       5.9986    1.8289    1.7112   H         1 RES1   0.0000
    78 H25       5.4637   -0.5195    1.2501   H         1 RES1   0.0000
    79 H26       1.8291   -3.5064   -0.1346   H         1 RES1   0.0000
    80 H27       2.8213   -4.5817    0.8848   H         1 RES1   0.0000
    81 H28       3.4248   -4.0546   -0.6954   H         1 RES1   0.0000
    82 H29       5.6552   -3.1284   -0.6418   H         1 RES1   0.0000
    83 H30       7.9046   -3.4978    0.2934   H         1 RES1   0.0000
    84 H31       8.2774   -3.3399    2.7346   H         1 RES1   0.0000
    85 H32       6.4311   -2.7189    4.2177   H         1 RES1   0.0000
    86 H33       4.1473   -2.3623    3.2996   H         1 RES1   0.0000
    87 H34       1.9779    2.3442    3.7664   H         1 RES1   0.0000
    88 H35       2.7953    3.0767    5.9643   H         1 RES1   0.0000
    89 H36       2.7244    5.4711    6.6002   H         1 RES1   0.0000
    90 H37       1.8726    7.1042    4.9952   H         1 RES1   0.0000
    91 H38       1.1094    6.4325    2.7767   H         1 RES1   0.0000
    92 C43       1.6910   -1.5970   -5.0118   C.3       1 RES1   0.0000
    93 N7        2.0743   -1.1539   -3.6839   N.am      1 RES1   0.0000
    94 C44       1.3349   -1.3134   -2.5918   C.2       1 RES1   0.0000
    95 O5        1.6384   -0.7776   -1.5054   O.2       1 RES1   0.0000
    96 C45       0.1107   -2.1895   -2.5762   C.ar      1 RES1   0.0000
    97 C46      -0.0144   -3.4211   -3.2167   C.ar      1 RES1   0.0000
    98 C47      -1.1440   -4.1873   -2.9695   C.ar      1 RES1   0.0000
    99 C48      -2.1394   -3.6835   -2.1452   C.ar      1 RES1   0.0000
   100 C49      -1.9454   -2.4284   -1.5660   C.ar      1 RES1   0.0000
   101 C50      -2.8774   -1.7570   -0.5882   C.2       1 RES1   0.0000
   102 O6       -2.3464   -1.1261    0.3462   O.2       1 RES1   0.0000
   103 N8       -4.1955   -1.8552   -0.7893   N.am      1 RES1   0.0000
   104 C51      -4.8050   -2.3525   -2.0149   C.3       1 RES1   0.0000
   105 C52      -5.1598   -1.2698    0.0983   C.ar      1 RES1   0.0000
   106 C53      -5.0356    0.0689    0.4385   C.ar      1 RES1   0.0000
   107 C54      -5.9928    0.6819    1.2260   C.ar      1 RES1   0.0000
   108 C55      -7.0930   -0.0367    1.6529   C.ar      1 RES1   0.0000
   109 C56      -7.2195   -1.3727    1.3089   C.ar      1 RES1   0.0000
   110 C57      -6.2590   -2.0018    0.5363   C.ar      1 RES1   0.0000
   111 N9       -0.8250   -1.7261   -1.7418   N.ar      1 RES1   0.0000
   112 C58       3.3094   -0.4258   -3.6073   C.ar      1 RES1   0.0000
   113 C59       4.4168   -0.9396   -4.2745   C.ar      1 RES1   0.0000
   114 C60       5.6177   -0.2531   -4.2508   C.ar      1 RES1   0.0000
   115 C61       5.7293    0.9414   -3.5606   C.ar      1 RES1   0.0000
   116 C62       4.6358    1.4241   -2.8611   C.ar      1 RES1   0.0000
   117 C63       3.4208    0.7578   -2.8856   C.ar      1 RES1   0.0000
   118 H39       0.6105   -1.6931   -5.0915   H         1 RES1   0.0000
   119 H40       2.1579   -2.5497   -5.2736   H         1 RES1   0.0000
   120 H41       2.0170   -0.8420   -5.7288   H         1 RES1   0.0000
   121 H42       0.7672   -3.8016   -3.8546   H         1 RES1   0.0000
   122 H43      -1.2443   -5.1602   -3.4266   H         1 RES1   0.0000
   123 H44      -3.0147   -4.2729   -1.9257   H         1 RES1   0.0000
   124 H45      -4.1134   -2.2757   -2.8517   H         1 RES1   0.0000
   125 H46      -5.6792   -1.7314   -2.2217   H         1 RES1   0.0000
   126 H47      -5.1386   -3.3877   -1.9153   H         1 RES1   0.0000
   127 H48      -4.1823    0.6154    0.0746   H         1 RES1   0.0000
   128 H49      -5.8916    1.7248    1.4866   H         1 RES1   0.0000
   129 H50      -7.8663    0.4414    2.2260   H         1 RES1   0.0000
   130 H51      -8.0872   -1.9149    1.6381   H         1 RES1   0.0000
   131 H52      -6.3692   -3.0466    0.2870   H         1 RES1   0.0000
   132 H53       4.3505   -1.8805   -4.7975   H         1 RES1   0.0000
   133 H54       6.4596   -0.6561   -4.7851   H         1 RES1   0.0000
   134 H55       6.6458    1.5097   -3.5851   H         1 RES1   0.0000
   135 H56       4.7208    2.3431   -2.3030   H         1 RES1   0.0000
   136 H57       2.5681    1.1589   -2.3486   H         1 RES1   0.0000
@<TRIPOS>BOND
     1     1     5    1
     2     1    12    1
     3     1    21    1
     4     1    50    1
     5     1    57    1
     6     1    66    1
     7     1    95    1
     8     1   102    1
     9     1   111    1
    10     2     3    1
    11     2    28    1
    12     2    29    1
    13     2    30    1
    14     3     4    1
    15     3    22    1
    16     4     5    2
    17     4     6    1
    18     6     7    1
    19     6    21    2
    20     7     8    2
    21     7    31    1
    22     8     9    1
    23     8    32    1
    24     9    10    2
    25     9    33    1
    26    10    11    1
    27    10    21    1
    28    11    12    2
    29    11    13    1
    30    13    14    1
    31    13    15    1
    32    14    34    1
    33    14    35    1
    34    14    36    1
    35    15    16    1
    36    15    20    2
    37    16    17    2
    38    16    37    1
    39    17    18    1
    40    17    38    1
    41    18    19    2
    42    18    39    1
    43    19    20    1
    44    19    40    1
    45    20    41    1
    46    22    23    1
    47    22    27    2
    48    23    24    2
    49    23    42    1
    50    24    25    1
    51    24    43    1
    52    25    26    2
    53    25    44    1
    54    26    27    1
    55    26    45    1
    56    27    46    1
    57    47    48    1
    58    47    73    1
    59    47    74    1
    60    47    75    1
    61    48    49    1
    62    48    67    1
    63    49    50    2
    64    49    51    1
    65    51    52    1
    66    51    66    2
    67    52    53    2
    68    52    76    1
    69    53    54    1
    70    53    77    1
    71    54    55    2
    72    54    78    1
    73    55    56    1
    74    55    66    1
    75    56    57    2
    76    56    58    1
    77    58    59    1
    78    58    60    1
    79    59    79    1
    80    59    80    1
    81    59    81    1
    82    60    61    1
    83    60    65    2
    84    61    62    2
    85    61    82    1
    86    62    63    1
    87    62    83    1
    88    63    64    2
    89    63    84    1
    90    64    65    1
    91    64    85    1
    92    65    86    1
    93    67    68    1
    94    67    72    2
    95    68    69    2
    96    68    87    1
    97    69    70    1
    98    69    88    1
    99    70    71    2
   100    70    89    1
   101    71    72    1
   102    71    90    1
   103    72    91    1
   104    92    93    1
   105    92   118    1
   106    92   119    1
   107    92   120    1
   108    93    94    1
   109    93   112    1
   110    94    95    2
   111    94    96    1
   112    96    97    1
   113    96   111    2
   114    97    98    2
   115    97   121    1
   116    98    99    1
   117    98   122    1
   118    99   100    2
   119    99   123    1
   120   100   101    1
   121   100   111    1
   122   101   102    2
   123   101   103    1
   124   103   104    1
   125   103   105    1
   126   104   124    1
   127   104   125    1
   128   104   126    1
   129   105   106    1
   130   105   110    2
   131   106   107    2
   132   106   127    1
   133   107   108    1
   134   107   128    1
   135   108   109    2
   136   108   129    1
   137   109   110    1
   138   109   130    1
   139   110   131    1
   140   112   113    1
   141   112   117    2
   142   113   114    2
   143   113   132    1
   144   114   115    1
   145   114   133    1
   146   115   116    2
   147   115   134    1
   148   116   117    1
   149   116   135    1
   150   117   136    1
@<TRIPOS>SUBSTRUCTURE
     1 RES1      136 GROUP             0 ****  ****    0  
