@<TRIPOS>MOLECULE
cn9_YICLED_0_nunpairedes_0_charge_3 Charge: 3 Unpaired_Electrons: 7 XTB_Unpaired_Electrons: 0 XTB_Charge: 3
   130   141     1     0     0
SMALL
NoCharges
****
Generated from Architector

@<TRIPOS>ATOM
     1 Gd1      -0.0966   -0.0125   -0.3028   Gd        1 RES1   0.0000
     2 O1        0.3192   -1.7755    1.1663   O.2       1 RES1   0.0000
     3 C1        1.0910   -1.7610    2.1433   C.2       1 RES1   0.0000
     4 C2        1.6695   -0.4073    2.5970   C.3       1 RES1   0.0000
     5 O2        0.8599    0.6456    2.0840   O.3       1 RES1   0.0000
     6 C3       -0.1137    1.2014    2.9787   C.3       1 RES1   0.0000
     7 C4       -1.5149    1.0358    2.3571   C.2       1 RES1   0.0000
     8 O3       -1.6278    0.2965    1.3599   O.2       1 RES1   0.0000
     9 N1       -2.5382    1.6834    2.8813   N.am      1 RES1   0.0000
    10 C5       -2.5535    2.4127    4.1396   C.3       1 RES1   0.0000
    11 C6       -3.7045    1.8630    4.9855   C.3       1 RES1   0.0000
    12 C7       -5.0527    2.2275    4.3480   C.3       1 RES1   0.0000
    13 C8       -4.8689    2.5021    2.8487   C.3       1 RES1   0.0000
    14 C9       -3.8489    1.5477    2.2366   C.3       1 RES1   0.0000
    15 N2        1.3956   -2.8389    2.8459   N.am      1 RES1   0.0000
    16 C10       2.5301   -2.9639    3.7420   C.3       1 RES1   0.0000
    17 C11       3.4778   -4.0199    3.1678   C.3       1 RES1   0.0000
    18 C12       2.7617   -5.3618    3.0426   C.3       1 RES1   0.0000
    19 C13       1.5258   -5.1999    2.1569   C.3       1 RES1   0.0000
    20 C14       0.6439   -4.0757    2.6888   C.3       1 RES1   0.0000
    21 H1        2.6782   -0.2641    2.1897   H         1 RES1   0.0000
    22 H2        1.7263   -0.3519    3.6902   H         1 RES1   0.0000
    23 H3        0.1328    2.2634    3.1062   H         1 RES1   0.0000
    24 H4       -0.0873    0.7100    3.9573   H         1 RES1   0.0000
    25 H5       -2.7148    3.4745    3.9326   H         1 RES1   0.0000
    26 H6       -1.6042    2.3087    4.6602   H         1 RES1   0.0000
    27 H7       -3.6303    2.2534    5.9988   H         1 RES1   0.0000
    28 H8       -3.6009    0.7780    5.0400   H         1 RES1   0.0000
    29 H9       -5.4738    3.1113    4.8278   H         1 RES1   0.0000
    30 H10      -5.7601    1.4118    4.4998   H         1 RES1   0.0000
    31 H11      -4.5546    3.5374    2.6975   H         1 RES1   0.0000
    32 H12      -5.8194    2.3794    2.3288   H         1 RES1   0.0000
    33 H13      -3.7171    1.7464    1.1684   H         1 RES1   0.0000
    34 H14      -4.1942    0.5151    2.3497   H         1 RES1   0.0000
    35 H15       2.1707   -3.2856    4.7227   H         1 RES1   0.0000
    36 H16       3.0530   -2.0150    3.8468   H         1 RES1   0.0000
    37 H17       4.3500   -4.1038    3.8123   H         1 RES1   0.0000
    38 H18       3.8163   -3.6999    2.1796   H         1 RES1   0.0000
    39 H19       2.4588   -5.7037    4.0329   H         1 RES1   0.0000
    40 H20       3.4319   -6.1131    2.6189   H         1 RES1   0.0000
    41 H21       0.9499   -6.1261    2.1278   H         1 RES1   0.0000
    42 H22       1.8375   -4.9625    1.1380   H         1 RES1   0.0000
    43 H23       0.2673   -4.3493    3.6774   H         1 RES1   0.0000
    44 H24      -0.2043   -3.8867    2.0317   H         1 RES1   0.0000
    45 O4       -0.9960    2.0842   -0.6281   O.2       1 RES1   0.0000
    46 C15      -0.7532    2.8093   -1.6097   C.2       1 RES1   0.0000
    47 C16      -0.2076    2.1630   -2.8973   C.3       1 RES1   0.0000
    48 O5       -0.1524    0.7475   -2.7652   O.3       1 RES1   0.0000
    49 C17      -1.0657   -0.0125   -3.5561   C.3       1 RES1   0.0000
    50 C18      -2.0239   -0.7886   -2.6344   C.2       1 RES1   0.0000
    51 O6       -1.9296   -0.6234   -1.4027   O.2       1 RES1   0.0000
    52 N3       -2.8957   -1.6294   -3.1592   N.am      1 RES1   0.0000
    53 C19      -3.1968   -1.8093   -4.5699   C.3       1 RES1   0.0000
    54 C20      -4.6724   -1.4559   -4.7694   C.3       1 RES1   0.0000
    55 C21      -5.5669   -2.4728   -4.0419   C.3       1 RES1   0.0000
    56 C22      -4.7640   -3.2414   -2.9862   C.3       1 RES1   0.0000
    57 C23      -3.8097   -2.3201   -2.2395   C.3       1 RES1   0.0000
    58 N4       -0.9349    4.1194   -1.5913   N.am      1 RES1   0.0000
    59 C24      -0.6577    5.0333   -2.6900   C.3       1 RES1   0.0000
    60 C25       0.2468    6.1806   -2.2285   C.3       1 RES1   0.0000
    61 C26      -0.3631    6.8972   -1.0310   C.3       1 RES1   0.0000
    62 C27      -0.6098    5.8917    0.0878   C.3       1 RES1   0.0000
    63 C28      -1.5077    4.7621   -0.4102   C.3       1 RES1   0.0000
    64 H25       0.8276    2.4973   -3.0517   H         1 RES1   0.0000
    65 H26      -0.8179    2.4477   -3.7602   H         1 RES1   0.0000
    66 H27      -0.4628   -0.7251   -4.1350   H         1 RES1   0.0000
    67 H28      -1.6293    0.6360   -4.2350   H         1 RES1   0.0000
    68 H29      -3.0241   -2.8549   -4.8423   H         1 RES1   0.0000
    69 H30      -2.5506   -1.1914   -5.1912   H         1 RES1   0.0000
    70 H31      -4.8992   -1.4259   -5.8339   H         1 RES1   0.0000
    71 H32      -4.8304   -0.4542   -4.3633   H         1 RES1   0.0000
    72 H33      -5.9933   -3.1808   -4.7515   H         1 RES1   0.0000
    73 H34      -6.4032   -1.9522   -3.5768   H         1 RES1   0.0000
    74 H35      -4.2071   -4.0534   -3.4560   H         1 RES1   0.0000
    75 H36      -5.4428   -3.6981   -2.2669   H         1 RES1   0.0000
    76 H37      -3.2092   -2.8781   -1.5157   H         1 RES1   0.0000
    77 H38      -4.3699   -1.5627   -1.6841   H         1 RES1   0.0000
    78 H39      -1.6106    5.4453   -3.0423   H         1 RES1   0.0000
    79 H40      -0.1781    4.5070   -3.5141   H         1 RES1   0.0000
    80 H41       0.3751    6.8674   -3.0644   H         1 RES1   0.0000
    81 H42       1.2298    5.7900   -1.9593   H         1 RES1   0.0000
    82 H43      -1.3042    7.3612   -1.3238   H         1 RES1   0.0000
    83 H44       0.3068    7.6851   -0.6903   H         1 RES1   0.0000
    84 H45      -1.0950    6.3803    0.9319   H         1 RES1   0.0000
    85 H46       0.3431    5.4838    0.4298   H         1 RES1   0.0000
    86 H47      -2.4869    5.1678   -0.6828   H         1 RES1   0.0000
    87 H48      -1.6450    3.9967    0.3552   H         1 RES1   0.0000
    88 O7        1.7008    1.6739   -0.5573   O.2       1 RES1   0.0000
    89 C29       2.9447    1.6053   -0.5026   C.2       1 RES1   0.0000
    90 C30       3.5753    0.2058   -0.5039   C.3       1 RES1   0.0000
    91 O8        2.4992   -0.7162   -0.4267   O.3       1 RES1   0.0000
    92 C31       2.8278   -2.0419   -0.8147   C.3       1 RES1   0.0000
    93 C32       1.5735   -2.6405   -1.4718   C.2       1 RES1   0.0000
    94 O9        0.5789   -1.9029   -1.6276   O.2       1 RES1   0.0000
    95 N5        1.6160   -3.8930   -1.8840   N.am      1 RES1   0.0000
    96 C33       2.7802   -4.7621   -1.8450   C.3       1 RES1   0.0000
    97 C34       3.2311   -5.0201   -3.2828   C.3       1 RES1   0.0000
    98 C35       2.1158   -5.7249   -4.0747   C.3       1 RES1   0.0000
    99 C36       0.8085   -5.7685   -3.2773   C.3       1 RES1   0.0000
   100 C37       0.4797   -4.4211   -2.6441   C.3       1 RES1   0.0000
   101 N6        3.7376    2.6607   -0.5276   N.am      1 RES1   0.0000
   102 C38       5.1845    2.6634   -0.3611   C.3       1 RES1   0.0000
   103 C39       5.5674    3.6159    0.7762   C.3       1 RES1   0.0000
   104 C40       5.1024    5.0272    0.4432   C.3       1 RES1   0.0000
   105 C41       3.5910    5.0171    0.2425   C.3       1 RES1   0.0000
   106 C42       3.1914    3.9851   -0.8107   C.3       1 RES1   0.0000
   107 H49       4.2864    0.0544    0.3191   H         1 RES1   0.0000
   108 H50       4.1100    0.0852   -1.4568   H         1 RES1   0.0000
   109 H51       3.1464   -2.6251    0.0612   H         1 RES1   0.0000
   110 H52       3.6358   -2.0324   -1.5568   H         1 RES1   0.0000
   111 H53       2.4895   -5.7013   -1.3694   H         1 RES1   0.0000
   112 H54       3.5821   -4.3219   -1.2568   H         1 RES1   0.0000
   113 H55       4.1397   -5.6200   -3.2646   H         1 RES1   0.0000
   114 H56       3.4718   -4.0603   -3.7446   H         1 RES1   0.0000
   115 H57       2.4132   -6.7454   -4.3098   H         1 RES1   0.0000
   116 H58       1.9596   -5.2119   -5.0237   H         1 RES1   0.0000
   117 H59       0.8672   -6.5375   -2.5064   H         1 RES1   0.0000
   118 H60      -0.0087   -6.0514   -3.9400   H         1 RES1   0.0000
   119 H61      -0.3806   -4.5131   -1.9749   H         1 RES1   0.0000
   120 H62       0.2248   -3.6877   -3.4150   H         1 RES1   0.0000
   121 H63       5.6383    3.0192   -1.2922   H         1 RES1   0.0000
   122 H64       5.5563    1.6606   -0.1595   H         1 RES1   0.0000
   123 H65       6.6477    3.5852    0.9089   H         1 RES1   0.0000
   124 H66       5.1004    3.2864    1.7070   H         1 RES1   0.0000
   125 H67       5.6004    5.3716   -0.4632   H         1 RES1   0.0000
   126 H68       5.3687    5.7085    1.2495   H         1 RES1   0.0000
   127 H69       3.2543    5.9992   -0.0889   H         1 RES1   0.0000
   128 H70       3.1022    4.7901    1.1914   H         1 RES1   0.0000
   129 H71       3.5831    4.2970   -1.7859   H         1 RES1   0.0000
   130 H72       2.1059    3.8910   -0.8716   H         1 RES1   0.0000
@<TRIPOS>BOND
     1     1     2    1
     2     1     5    1
     3     1     8    1
     4     1    45    1
     5     1    48    1
     6     1    51    1
     7     1    88    1
     8     1    91    1
     9     1    94    1
    10     2     3    2
    11     3     4    1
    12     3    15    1
    13     4     5    1
    14     4    21    1
    15     4    22    1
    16     5     6    1
    17     6     7    1
    18     6    23    1
    19     6    24    1
    20     7     8    2
    21     7     9    1
    22     9    10    1
    23     9    14    1
    24    10    11    1
    25    10    25    1
    26    10    26    1
    27    11    12    1
    28    11    27    1
    29    11    28    1
    30    12    13    1
    31    12    29    1
    32    12    30    1
    33    13    14    1
    34    13    31    1
    35    13    32    1
    36    14    33    1
    37    14    34    1
    38    15    16    1
    39    15    20    1
    40    16    17    1
    41    16    35    1
    42    16    36    1
    43    17    18    1
    44    17    37    1
    45    17    38    1
    46    18    19    1
    47    18    39    1
    48    18    40    1
    49    19    20    1
    50    19    41    1
    51    19    42    1
    52    20    43    1
    53    20    44    1
    54    45    46    2
    55    46    47    1
    56    46    58    1
    57    47    48    1
    58    47    64    1
    59    47    65    1
    60    48    49    1
    61    49    50    1
    62    49    66    1
    63    49    67    1
    64    50    51    2
    65    50    52    1
    66    52    53    1
    67    52    57    1
    68    53    54    1
    69    53    68    1
    70    53    69    1
    71    54    55    1
    72    54    70    1
    73    54    71    1
    74    55    56    1
    75    55    72    1
    76    55    73    1
    77    56    57    1
    78    56    74    1
    79    56    75    1
    80    57    76    1
    81    57    77    1
    82    58    59    1
    83    58    63    1
    84    59    60    1
    85    59    78    1
    86    59    79    1
    87    60    61    1
    88    60    80    1
    89    60    81    1
    90    61    62    1
    91    61    82    1
    92    61    83    1
    93    62    63    1
    94    62    84    1
    95    62    85    1
    96    63    86    1
    97    63    87    1
    98    88    89    2
    99    89    90    1
   100    89   101    1
   101    90    91    1
   102    90   107    1
   103    90   108    1
   104    91    92    1
   105    92    93    1
   106    92   109    1
   107    92   110    1
   108    93    94    2
   109    93    95    1
   110    95    96    1
   111    95   100    1
   112    96    97    1
   113    96   111    1
   114    96   112    1
   115    97    98    1
   116    97   113    1
   117    97   114    1
   118    98    99    1
   119    98   115    1
   120    98   116    1
   121    99   100    1
   122    99   117    1
   123    99   118    1
   124   100   119    1
   125   100   120    1
   126   101   102    1
   127   101   106    1
   128   102   103    1
   129   102   121    1
   130   102   122    1
   131   103   104    1
   132   103   123    1
   133   103   124    1
   134   104   105    1
   135   104   125    1
   136   104   126    1
   137   105   106    1
   138   105   127    1
   139   105   128    1
   140   106   129    1
   141   106   130    1
@<TRIPOS>SUBSTRUCTURE
     1 RES1      130 GROUP             0 ****  ****    0  
