@<TRIPOS>MOLECULE
am_c3_9H2O_c0_0_nunpairedes_0_charge_3 Charge: 3 Unpaired_Electrons: 7 XTB_Unpaired_Electrons: 0 XTB_Charge: 3
   340   345     1     0     0
SMALL
NoCharges
****
Generated from Architector

@<TRIPOS>ATOM
     1 Gd1      -0.2767   -0.1309    0.2391   Gd        1 RES1   0.0000
     2 C1        5.7454    6.7149    1.3202   C.3       1 RES1   0.0000
     3 C2        5.8329    6.6584   -0.2007   C.3       1 RES1   0.0000
     4 C3        4.5339    6.9890   -0.9358   C.3       1 RES1   0.0000
     5 C4        3.3720    6.0221   -0.6673   C.3       1 RES1   0.0000
     6 C5        2.4486    6.4879    0.4613   C.3       1 RES1   0.0000
     7 C6        1.2053    5.6055    0.6355   C.3       1 RES1   0.0000
     8 C7        0.3391    6.1217    1.7876   C.3       1 RES1   0.0000
     9 C8       -0.8854    5.2638    2.1361   C.3       1 RES1   0.0000
    10 N1       -0.5762    3.8788    2.4655   N.am      1 RES1   0.0000
    11 C9       -0.3352    3.5400    3.8719   C.3       1 RES1   0.0000
    12 C10       0.9204    4.1324    4.5579   C.3       1 RES1   0.0000
    13 C11       0.6170    5.5000    5.2011   C.3       1 RES1   0.0000
    14 C12       1.7780    6.4922    5.2436   C.3       1 RES1   0.0000
    15 C13       1.3802    3.1212    5.6233   C.3       1 RES1   0.0000
    16 C14       2.7026    3.4680    6.3053   C.3       1 RES1   0.0000
    17 C15       3.2080    2.3241    7.2056   C.3       1 RES1   0.0000
    18 C16       4.5973    1.8532    6.7894   C.3       1 RES1   0.0000
    19 C17      -0.6362    2.9019    1.5699   C.2       1 RES1   0.0000
    20 O1       -0.3017    1.7168    1.8033   O.2       1 RES1   0.0000
    21 C18      -1.1679    3.1736    0.1527   C.3       1 RES1   0.0000
    22 O2       -1.7099    1.9605   -0.3519   O.3       1 RES1   0.0000
    23 C19      -3.1174    1.8332   -0.0691   C.3       1 RES1   0.0000
    24 C20      -3.4047    0.3383   -0.1196   C.2       1 RES1   0.0000
    25 O3       -2.5122   -0.3664    0.4094   O.2       1 RES1   0.0000
    26 N2       -4.4898   -0.2048   -0.6381   N.am      1 RES1   0.0000
    27 C21      -5.5792    0.4516   -1.3599   C.3       1 RES1   0.0000
    28 C22      -6.0852    1.7876   -0.7957   C.3       1 RES1   0.0000
    29 C23      -7.6082    1.7614   -0.6535   C.3       1 RES1   0.0000
    30 C24      -8.2399    3.0781   -0.1982   C.3       1 RES1   0.0000
    31 C25      -7.8853    3.5589    1.2135   C.3       1 RES1   0.0000
    32 C26      -6.5819    4.3399    1.4307   C.3       1 RES1   0.0000
    33 C27      -6.4423    5.6331    0.6154   C.3       1 RES1   0.0000
    34 C28      -5.7091    5.4592   -0.7129   C.3       1 RES1   0.0000
    35 C29      -4.5356   -1.6648   -0.6016   C.3       1 RES1   0.0000
    36 C30      -4.8711   -2.2312    0.7958   C.3       1 RES1   0.0000
    37 C31      -5.4833   -3.6242    0.6226   C.3       1 RES1   0.0000
    38 C32      -4.4441   -4.6504    0.1813   C.3       1 RES1   0.0000
    39 C33      -5.7598   -1.2857    1.6291   C.3       1 RES1   0.0000
    40 C34      -4.9296   -0.5016    2.6628   C.3       1 RES1   0.0000
    41 C35      -5.5120    0.8637    3.0222   C.3       1 RES1   0.0000
    42 C36      -4.5249    1.6920    3.8357   C.3       1 RES1   0.0000
    43 H1        6.7346    6.5800    1.7556   H         1 RES1   0.0000
    44 H2        5.1019    5.9284    1.7133   H         1 RES1   0.0000
    45 H3        5.3570    7.6772    1.6468   H         1 RES1   0.0000
    46 H4        6.1798    5.6675   -0.5052   H         1 RES1   0.0000
    47 H5        6.5896    7.3732   -0.5259   H         1 RES1   0.0000
    48 H6        4.7568    6.9800   -2.0031   H         1 RES1   0.0000
    49 H7        4.2236    8.0014   -0.6813   H         1 RES1   0.0000
    50 H8        3.7780    5.0319   -0.4371   H         1 RES1   0.0000
    51 H9        2.7756    5.9178   -1.5785   H         1 RES1   0.0000
    52 H10       2.1288    7.5076    0.2416   H         1 RES1   0.0000
    53 H11       3.0020    6.5126    1.3998   H         1 RES1   0.0000
    54 H12       1.5120    4.5722    0.8378   H         1 RES1   0.0000
    55 H13       0.6300    5.6127   -0.2932   H         1 RES1   0.0000
    56 H14      -0.0370    7.1154    1.5349   H         1 RES1   0.0000
    57 H15       0.9655    6.2251    2.6700   H         1 RES1   0.0000
    58 H16      -1.5882    5.3062    1.3089   H         1 RES1   0.0000
    59 H17      -1.3800    5.7027    3.0036   H         1 RES1   0.0000
    60 H18      -0.2790    2.4492    3.9021   H         1 RES1   0.0000
    61 H19      -1.2222    3.8466    4.4388   H         1 RES1   0.0000
    62 H20       1.7159    4.2389    3.8137   H         1 RES1   0.0000
    63 H21       0.2684    5.3199    6.2182   H         1 RES1   0.0000
    64 H22      -0.2058    5.9804    4.6712   H         1 RES1   0.0000
    65 H23       2.6223    6.1219    5.8182   H         1 RES1   0.0000
    66 H24       1.4256    7.4081    5.7112   H         1 RES1   0.0000
    67 H25       2.1285    6.7374    4.2417   H         1 RES1   0.0000
    68 H26       1.4822    2.1353    5.1634   H         1 RES1   0.0000
    69 H27       0.6020    3.0346    6.3824   H         1 RES1   0.0000
    70 H28       2.5755    4.3653    6.9047   H         1 RES1   0.0000
    71 H29       3.4581    3.6855    5.5442   H         1 RES1   0.0000
    72 H30       2.5079    1.4844    7.1666   H         1 RES1   0.0000
    73 H31       3.2488    2.6577    8.2443   H         1 RES1   0.0000
    74 H32       5.3184    2.6559    6.9140   H         1 RES1   0.0000
    75 H33       4.6068    1.5427    5.7449   H         1 RES1   0.0000
    76 H34       4.9139    1.0085    7.3955   H         1 RES1   0.0000
    77 H35      -0.3348    3.4549   -0.4980   H         1 RES1   0.0000
    78 H36      -1.9258    3.9627    0.1163   H         1 RES1   0.0000
    79 H37      -3.6730    2.4473   -0.7810   H         1 RES1   0.0000
    80 H38      -3.3362    2.1594    0.9598   H         1 RES1   0.0000
    81 H39      -6.4134   -0.2527   -1.3506   H         1 RES1   0.0000
    82 H40      -5.2680    0.5664   -2.4078   H         1 RES1   0.0000
    83 H41      -5.7922    2.6100   -1.4477   H         1 RES1   0.0000
    84 H42      -5.6545    1.9575    0.1874   H         1 RES1   0.0000
    85 H43      -7.8805    0.9854    0.0647   H         1 RES1   0.0000
    86 H44      -8.0470    1.4956   -1.6199   H         1 RES1   0.0000
    87 H45      -9.3164    2.9034   -0.2067   H         1 RES1   0.0000
    88 H46      -8.0450    3.8604   -0.9272   H         1 RES1   0.0000
    89 H47      -7.8819    2.7003    1.8881   H         1 RES1   0.0000
    90 H48      -8.6955    4.2121    1.5432   H         1 RES1   0.0000
    91 H49      -5.7024    3.7146    1.2559   H         1 RES1   0.0000
    92 H50      -6.5700    4.6071    2.4922   H         1 RES1   0.0000
    93 H51      -5.8855    6.3631    1.2104   H         1 RES1   0.0000
    94 H52      -7.4328    6.0538    0.4373   H         1 RES1   0.0000
    95 H53      -4.7340    4.9940   -0.5517   H         1 RES1   0.0000
    96 H54      -5.5502    6.4284   -1.1793   H         1 RES1   0.0000
    97 H55      -6.2747    4.8448   -1.4074   H         1 RES1   0.0000
    98 H56      -3.5519   -2.0393   -0.9080   H         1 RES1   0.0000
    99 H57      -5.2787   -1.9939   -1.3284   H         1 RES1   0.0000
   100 H58      -3.9263   -2.3408    1.3361   H         1 RES1   0.0000
   101 H59      -6.3029   -3.5890   -0.0969   H         1 RES1   0.0000
   102 H60      -5.9051   -3.9624    1.5682   H         1 RES1   0.0000
   103 H61      -3.9368   -4.3504   -0.7373   H         1 RES1   0.0000
   104 H62      -4.9196   -5.6124    0.0063   H         1 RES1   0.0000
   105 H63      -3.6974   -4.7755    0.9666   H         1 RES1   0.0000
   106 H64      -6.5263   -1.8563    2.1544   H         1 RES1   0.0000
   107 H65      -6.2898   -0.5854    0.9848   H         1 RES1   0.0000
   108 H66      -3.9135   -0.3549    2.2805   H         1 RES1   0.0000
   109 H67      -4.8439   -1.0924    3.5743   H         1 RES1   0.0000
   110 H68      -6.4324    0.7414    3.5935   H         1 RES1   0.0000
   111 H69      -5.7714    1.3970    2.1076   H         1 RES1   0.0000
   112 H70      -4.3551    1.2482    4.8121   H         1 RES1   0.0000
   113 H71      -4.8994    2.7019    3.9813   H         1 RES1   0.0000
   114 H72      -3.5611    1.7473    3.3280   H         1 RES1   0.0000
   115 C37      -4.6580    3.5044   -7.8552   C.3       1 RES1   0.0000
   116 C38      -4.2294    4.9657   -7.7819   C.3       1 RES1   0.0000
   117 C39      -2.7147    5.1317   -7.9302   C.3       1 RES1   0.0000
   118 C40      -1.9241    4.7027   -6.6860   C.3       1 RES1   0.0000
   119 C41      -0.5879    4.0684   -7.0629   C.3       1 RES1   0.0000
   120 C42       0.2544    3.6061   -5.8674   C.3       1 RES1   0.0000
   121 C43       1.4073    2.7502   -6.3774   C.3       1 RES1   0.0000
   122 C44       2.3057    2.1104   -5.3058   C.3       1 RES1   0.0000
   123 N3        1.6814    0.9822   -4.6127   N.am      1 RES1   0.0000
   124 C45       1.7214   -0.3237   -5.3343   C.3       1 RES1   0.0000
   125 C46       1.2377   -0.5444   -6.7996   C.3       1 RES1   0.0000
   126 C47       2.1845    0.0219   -7.8726   C.3       1 RES1   0.0000
   127 C48       1.4631    0.1957   -9.2036   C.3       1 RES1   0.0000
   128 C49       1.1703   -2.0720   -7.0895   C.3       1 RES1   0.0000
   129 C50      -0.2274   -2.6645   -7.2343   C.3       1 RES1   0.0000
   130 C51      -0.1691   -4.1626   -7.5908   C.3       1 RES1   0.0000
   131 C52      -1.2595   -4.9728   -6.8912   C.3       1 RES1   0.0000
   132 C53       1.4280    1.0061   -3.2921   C.2       1 RES1   0.0000
   133 O4        0.8570    0.1084   -2.6491   O.2       1 RES1   0.0000
   134 C54       1.9121    2.2051   -2.4272   C.3       1 RES1   0.0000
   135 O5        1.6772    1.8965   -1.0433   O.3       1 RES1   0.0000
   136 C55       2.8410    1.8620   -0.2163   C.3       1 RES1   0.0000
   137 C56       2.5568    0.9023    0.9362   C.2       1 RES1   0.0000
   138 O6        1.7783   -0.0419    0.6908   O.2       1 RES1   0.0000
   139 N4        3.0805    1.0630    2.1412   N.am      1 RES1   0.0000
   140 C57       4.0574    2.0925    2.4621   C.3       1 RES1   0.0000
   141 C58       5.4138    1.9061    1.7802   C.3       1 RES1   0.0000
   142 C59       6.4788    2.7559    2.4793   C.3       1 RES1   0.0000
   143 C60       7.6547    3.1379    1.5804   C.3       1 RES1   0.0000
   144 C61       8.5111    1.9763    1.0731   C.3       1 RES1   0.0000
   145 C62       8.0321    1.2639   -0.1971   C.3       1 RES1   0.0000
   146 C63       7.9092    2.1838   -1.4257   C.3       1 RES1   0.0000
   147 C64       6.4728    2.5730   -1.7671   C.3       1 RES1   0.0000
   148 C65       2.5205    0.2720    3.2379   C.3       1 RES1   0.0000
   149 C66       2.9979   -1.1860    3.4405   C.3       1 RES1   0.0000
   150 C67       2.8527   -1.4791    4.9457   C.3       1 RES1   0.0000
   151 C68       3.0910   -2.9340    5.3390   C.3       1 RES1   0.0000
   152 C69       4.4280   -1.4747    2.9717   C.3       1 RES1   0.0000
   153 C70       4.5338   -1.8669    1.4952   C.3       1 RES1   0.0000
   154 C71       5.8724   -2.5493    1.2018   C.3       1 RES1   0.0000
   155 C72       5.9909   -2.9849   -0.2541   C.3       1 RES1   0.0000
   156 H73      -5.7323    3.4106   -7.7248   H         1 RES1   0.0000
   157 H74      -4.1682    2.9096   -7.0871   H         1 RES1   0.0000
   158 H75      -4.3966    3.0880   -8.8238   H         1 RES1   0.0000
   159 H76      -4.5622    5.4107   -6.8408   H         1 RES1   0.0000
   160 H77      -4.7197    5.5121   -8.5895   H         1 RES1   0.0000
   161 H78      -2.4889    6.1726   -8.1579   H         1 RES1   0.0000
   162 H79      -2.3923    4.5369   -8.7864   H         1 RES1   0.0000
   163 H80      -2.5072    3.9717   -6.1251   H         1 RES1   0.0000
   164 H81      -1.7535    5.5623   -6.0343   H         1 RES1   0.0000
   165 H82      -0.0124    4.7809   -7.6573   H         1 RES1   0.0000
   166 H83      -0.7962    3.2033   -7.6983   H         1 RES1   0.0000
   167 H84      -0.3464    2.9968   -5.1917   H         1 RES1   0.0000
   168 H85       0.6244    4.4678   -5.3090   H         1 RES1   0.0000
   169 H86       2.0395    3.3626   -7.0246   H         1 RES1   0.0000
   170 H87       0.9694    1.9606   -6.9785   H         1 RES1   0.0000
   171 H88       2.6097    2.8767   -4.5997   H         1 RES1   0.0000
   172 H89       3.2108    1.7341   -5.7933   H         1 RES1   0.0000
   173 H90       1.1770   -1.0122   -4.6931   H         1 RES1   0.0000
   174 H91       2.7764   -0.6122   -5.3453   H         1 RES1   0.0000
   175 H92       0.2367   -0.1273   -6.9406   H         1 RES1   0.0000
   176 H93       3.0090   -0.6789   -8.0009   H         1 RES1   0.0000
   177 H94       2.6297    0.9675   -7.5856   H         1 RES1   0.0000
   178 H95       1.0583   -0.7471   -9.5623   H         1 RES1   0.0000
   179 H96       2.1583    0.5702   -9.9517   H         1 RES1   0.0000
   180 H97       0.6422    0.9030   -9.1060   H         1 RES1   0.0000
   181 H98       1.7085   -2.6237   -6.3232   H         1 RES1   0.0000
   182 H99       1.6835   -2.2731   -8.0270   H         1 RES1   0.0000
   183 H100     -0.7663   -2.1331   -8.0194   H         1 RES1   0.0000
   184 H101     -0.7733   -2.5371   -6.3068   H         1 RES1   0.0000
   185 H102      0.8033   -4.5695   -7.3041   H         1 RES1   0.0000
   186 H103     -0.2719   -4.3095   -8.6686   H         1 RES1   0.0000
   187 H104     -1.1113   -4.9525   -5.8104   H         1 RES1   0.0000
   188 H105     -2.2454   -4.5806   -7.1184   H         1 RES1   0.0000
   189 H106     -1.2232   -6.0105   -7.2135   H         1 RES1   0.0000
   190 H107      1.3668    3.1257   -2.6655   H         1 RES1   0.0000
   191 H108      2.9819    2.3785   -2.5894   H         1 RES1   0.0000
   192 H109      3.0653    2.8723    0.1489   H         1 RES1   0.0000
   193 H110      3.7006    1.4703   -0.7726   H         1 RES1   0.0000
   194 H111      4.2080    2.0720    3.5427   H         1 RES1   0.0000
   195 H112      3.6440    3.0745    2.2045   H         1 RES1   0.0000
   196 H113      5.3465    2.1926    0.7345   H         1 RES1   0.0000
   197 H114      5.7015    0.8583    1.8196   H         1 RES1   0.0000
   198 H115      6.8528    2.2184    3.3522   H         1 RES1   0.0000
   199 H116      6.0181    3.6829    2.8341   H         1 RES1   0.0000
   200 H117      8.2980    3.7910    2.1697   H         1 RES1   0.0000
   201 H118      7.2941    3.7291    0.7403   H         1 RES1   0.0000
   202 H119      8.6190    1.2368    1.8683   H         1 RES1   0.0000
   203 H120      9.5079    2.3658    0.8622   H         1 RES1   0.0000
   204 H121      7.0833    0.7496   -0.0244   H         1 RES1   0.0000
   205 H122      8.7719    0.4887   -0.4174   H         1 RES1   0.0000
   206 H123      8.3291    1.6787   -2.2981   H         1 RES1   0.0000
   207 H124      8.5026    3.0851   -1.2610   H         1 RES1   0.0000
   208 H125      5.8614    1.6782   -1.8836   H         1 RES1   0.0000
   209 H126      6.4530    3.1233   -2.7038   H         1 RES1   0.0000
   210 H127      6.0315    3.2041   -0.9981   H         1 RES1   0.0000
   211 H128      1.4326    0.2499    3.0952   H         1 RES1   0.0000
   212 H129      2.7427    0.8291    4.1477   H         1 RES1   0.0000
   213 H130      2.3209   -1.8436    2.8849   H         1 RES1   0.0000
   214 H131      1.8445   -1.1954    5.2569   H         1 RES1   0.0000
   215 H132      3.5570   -0.8515    5.4947   H         1 RES1   0.0000
   216 H133      2.5555   -3.6120    4.6781   H         1 RES1   0.0000
   217 H134      2.7486   -3.0987    6.3576   H         1 RES1   0.0000
   218 H135      4.1461   -3.1894    5.3060   H         1 RES1   0.0000
   219 H136      4.8034   -2.3236    3.5446   H         1 RES1   0.0000
   220 H137      5.0756   -0.6281    3.2022   H         1 RES1   0.0000
   221 H138      4.4147   -0.9955    0.8437   H         1 RES1   0.0000
   222 H139      3.7194   -2.5589    1.2576   H         1 RES1   0.0000
   223 H140      5.9758   -3.4236    1.8482   H         1 RES1   0.0000
   224 H141      6.6916   -1.8667    1.4384   H         1 RES1   0.0000
   225 H142      5.1782   -3.6592   -0.5252   H         1 RES1   0.0000
   226 H143      6.9283   -3.5105   -0.4143   H         1 RES1   0.0000
   227 H144      5.9671   -2.1205   -0.9166   H         1 RES1   0.0000
   228 C73       5.6978    0.7806   -6.6650   C.3       1 RES1   0.0000
   229 C74       6.3923    1.0769   -5.3401   C.3       1 RES1   0.0000
   230 C75       6.5284   -0.1732   -4.4594   C.3       1 RES1   0.0000
   231 C76       5.2710   -0.4997   -3.6264   C.3       1 RES1   0.0000
   232 C77       4.6051   -1.8325   -3.9722   C.3       1 RES1   0.0000
   233 C78       3.3162   -2.0844   -3.1679   C.3       1 RES1   0.0000
   234 C79       2.5593   -3.2951   -3.7427   C.3       1 RES1   0.0000
   235 C80       1.0066   -3.5114   -3.6375   C.3       1 RES1   0.0000
   236 N5        0.0868   -2.5642   -2.9879   N.am      1 RES1   0.0000
   237 C81      -1.2761   -2.3963   -3.5535   C.3       1 RES1   0.0000
   238 C82      -1.7280   -1.1239   -4.3284   C.3       1 RES1   0.0000
   239 C83      -2.9322   -1.5511   -5.2171   C.3       1 RES1   0.0000
   240 C84      -3.0701   -0.8634   -6.5811   C.3       1 RES1   0.0000
   241 C85      -2.1478    0.0389   -3.4017   C.3       1 RES1   0.0000
   242 C86      -2.6434    1.2271   -4.2433   C.3       1 RES1   0.0000
   243 C87      -3.1318    2.4957   -3.5341   C.3       1 RES1   0.0000
   244 C88      -2.0362    3.4450   -3.0564   C.3       1 RES1   0.0000
   245 C89       0.1622   -2.3199   -1.6894   C.2       1 RES1   0.0000
   246 O7       -0.7484   -1.7047   -1.0949   O.2       1 RES1   0.0000
   247 C90       1.3155   -2.8441   -0.8480   C.3       1 RES1   0.0000
   248 O8        1.0678   -2.5335    0.5069   O.3       1 RES1   0.0000
   249 C91       0.3712   -3.5504    1.2174   C.3       1 RES1   0.0000
   250 C92      -0.3175   -2.8480    2.3918   C.2       1 RES1   0.0000
   251 O9       -0.5971   -1.6405    2.2308   O.2       1 RES1   0.0000
   252 N6       -0.5438   -3.5131    3.5228   N.am      1 RES1   0.0000
   253 C93      -0.1255   -4.8927    3.8263   C.3       1 RES1   0.0000
   254 C94      -0.3569   -6.0196    2.8004   C.3       1 RES1   0.0000
   255 C95      -1.5278   -6.9606    3.1004   C.3       1 RES1   0.0000
   256 C96      -1.5404   -8.1895    2.1747   C.3       1 RES1   0.0000
   257 C97      -2.2807   -8.0358    0.8411   C.3       1 RES1   0.0000
   258 C98      -1.6833   -7.1621   -0.2689   C.3       1 RES1   0.0000
   259 C99      -0.4311   -7.7219   -0.9580   C.3       1 RES1   0.0000
   260 C100      0.8913   -7.3197   -0.3124   C.3       1 RES1   0.0000
   261 C101     -0.9276   -2.7213    4.6951   C.3       1 RES1   0.0000
   262 C102     -2.4377   -2.5373    4.9220   C.3       1 RES1   0.0000
   263 C103     -2.5728   -1.7141    6.2153   C.3       1 RES1   0.0000
   264 C104     -3.9989   -1.4296    6.6698   C.3       1 RES1   0.0000
   265 C105     -3.1809   -3.8798    4.9907   C.3       1 RES1   0.0000
   266 C106     -4.6131   -3.8033    4.4558   C.3       1 RES1   0.0000
   267 C107     -5.3525   -5.1373    4.5679   C.3       1 RES1   0.0000
   268 C108     -6.8510   -4.9623    4.3470   C.3       1 RES1   0.0000
   269 H145      5.4224    1.6992   -7.1779   H         1 RES1   0.0000
   270 H146      4.8002    0.1877   -6.5045   H         1 RES1   0.0000
   271 H147      6.3591    0.2199   -7.3183   H         1 RES1   0.0000
   272 H148      5.8500    1.8585   -4.7972   H         1 RES1   0.0000
   273 H149      7.3875    1.4750   -5.5517   H         1 RES1   0.0000
   274 H150      7.3727   -0.0236   -3.7854   H         1 RES1   0.0000
   275 H151      6.7878   -1.0163   -5.0998   H         1 RES1   0.0000
   276 H152      4.5379    0.3040   -3.7500   H         1 RES1   0.0000
   277 H153      5.5460   -0.5251   -2.5696   H         1 RES1   0.0000
   278 H154      5.2956   -2.6515   -3.7637   H         1 RES1   0.0000
   279 H155      4.3961   -1.8588   -5.0420   H         1 RES1   0.0000
   280 H156      2.6851   -1.2015   -3.1500   H         1 RES1   0.0000
   281 H157      3.6372   -2.2817   -2.1447   H         1 RES1   0.0000
   282 H158      3.0402   -4.1858   -3.3296   H         1 RES1   0.0000
   283 H159      2.7925   -3.3201   -4.8140   H         1 RES1   0.0000
   284 H160      0.8607   -4.4853   -3.1519   H         1 RES1   0.0000
   285 H161      0.6351   -3.6072   -4.6584   H         1 RES1   0.0000
   286 H162     -1.9581   -2.4797   -2.6975   H         1 RES1   0.0000
   287 H163     -1.4308   -3.2657   -4.1917   H         1 RES1   0.0000
   288 H164     -0.9220   -0.7739   -4.9734   H         1 RES1   0.0000
   289 H165     -3.8529   -1.4266   -4.6409   H         1 RES1   0.0000
   290 H166     -2.8524   -2.6176   -5.4255   H         1 RES1   0.0000
   291 H167     -3.6212    0.0687   -6.5469   H         1 RES1   0.0000
   292 H168     -3.6146   -1.5212   -7.2514   H         1 RES1   0.0000
   293 H169     -2.1006   -0.6623   -7.0143   H         1 RES1   0.0000
   294 H170     -1.3144    0.3293   -2.7469   H         1 RES1   0.0000
   295 H171     -2.9596   -0.3226   -2.7612   H         1 RES1   0.0000
   296 H172     -3.4972    0.8756   -4.8129   H         1 RES1   0.0000
   297 H173     -1.8668    1.5051   -4.9573   H         1 RES1   0.0000
   298 H174     -3.7777    2.2163   -2.7022   H         1 RES1   0.0000
   299 H175     -3.7645    3.0425   -4.2398   H         1 RES1   0.0000
   300 H176     -1.2444    2.8994   -2.5487   H         1 RES1   0.0000
   301 H177     -2.4549    4.1972   -2.3894   H         1 RES1   0.0000
   302 H178     -1.6117    3.9768   -3.9016   H         1 RES1   0.0000
   303 H179      2.2401   -2.3258   -1.0953   H         1 RES1   0.0000
   304 H180      1.4628   -3.9218   -1.0013   H         1 RES1   0.0000
   305 H181      1.0985   -4.2985    1.5560   H         1 RES1   0.0000
   306 H182     -0.3963   -3.9975    0.5706   H         1 RES1   0.0000
   307 H183     -0.6452   -5.1721    4.7433   H         1 RES1   0.0000
   308 H184      0.9431   -4.8481    4.0685   H         1 RES1   0.0000
   309 H185      0.5558   -6.6204    2.7840   H         1 RES1   0.0000
   310 H186     -0.5158   -5.6356    1.8028   H         1 RES1   0.0000
   311 H187     -2.4778   -6.4303    2.9990   H         1 RES1   0.0000
   312 H188     -1.4473   -7.3101    4.1327   H         1 RES1   0.0000
   313 H189     -2.0563   -8.9880    2.7110   H         1 RES1   0.0000
   314 H190     -0.5219   -8.5403    2.0083   H         1 RES1   0.0000
   315 H191     -3.2815   -7.6559    1.0607   H         1 RES1   0.0000
   316 H192     -2.4039   -9.0390    0.4274   H         1 RES1   0.0000
   317 H193     -1.4896   -6.1484    0.0921   H         1 RES1   0.0000
   318 H194     -2.4622   -7.0776   -1.0316   H         1 RES1   0.0000
   319 H195     -0.4179   -7.3727   -1.9958   H         1 RES1   0.0000
   320 H196     -0.5001   -8.8099   -0.9890   H         1 RES1   0.0000
   321 H197      0.9836   -6.2326   -0.2625   H         1 RES1   0.0000
   322 H198      1.7229   -7.7041   -0.8990   H         1 RES1   0.0000
   323 H199      0.9780   -7.7192    0.6929   H         1 RES1   0.0000
   324 H200     -0.4791   -1.7299    4.5814   H         1 RES1   0.0000
   325 H201     -0.4931   -3.1994    5.5747   H         1 RES1   0.0000
   326 H202     -2.8276   -1.9580    4.0799   H         1 RES1   0.0000
   327 H203     -2.0530   -0.7630    6.0723   H         1 RES1   0.0000
   328 H204     -2.0605   -2.2455    7.0203   H         1 RES1   0.0000
   329 H205     -4.5726   -0.9229    5.8975   H         1 RES1   0.0000
   330 H206     -3.9762   -0.7879    7.5476   H         1 RES1   0.0000
   331 H207     -4.5096   -2.3468    6.9467   H         1 RES1   0.0000
   332 H208     -3.1845   -4.2407    6.0221   H         1 RES1   0.0000
   333 H209     -2.6609   -4.6185    4.3829   H         1 RES1   0.0000
   334 H210     -4.5768   -3.5006    3.4069   H         1 RES1   0.0000
   335 H211     -5.1834   -3.0513    4.9983   H         1 RES1   0.0000
   336 H212     -5.1942   -5.5569    5.5629   H         1 RES1   0.0000
   337 H213     -4.9534   -5.8507    3.8427   H         1 RES1   0.0000
   338 H214     -7.2653   -4.2910    5.0962   H         1 RES1   0.0000
   339 H215     -7.3619   -5.9181    4.4262   H         1 RES1   0.0000
   340 H216     -7.0653   -4.5466    3.3631   H         1 RES1   0.0000
@<TRIPOS>BOND
     1     1    20    1
     2     1    22    1
     3     1    25    1
     4     1   133    1
     5     1   135    1
     6     1   138    1
     7     1   246    1
     8     1   248    1
     9     1   251    1
    10     2     3    1
    11     2    43    1
    12     2    44    1
    13     2    45    1
    14     3     4    1
    15     3    46    1
    16     3    47    1
    17     4     5    1
    18     4    48    1
    19     4    49    1
    20     5     6    1
    21     5    50    1
    22     5    51    1
    23     6     7    1
    24     6    52    1
    25     6    53    1
    26     7     8    1
    27     7    54    1
    28     7    55    1
    29     8     9    1
    30     8    56    1
    31     8    57    1
    32     9    10    1
    33     9    58    1
    34     9    59    1
    35    10    11    1
    36    10    19    1
    37    11    12    1
    38    11    60    1
    39    11    61    1
    40    12    13    1
    41    12    15    1
    42    12    62    1
    43    13    14    1
    44    13    63    1
    45    13    64    1
    46    14    65    1
    47    14    66    1
    48    14    67    1
    49    15    16    1
    50    15    68    1
    51    15    69    1
    52    16    17    1
    53    16    70    1
    54    16    71    1
    55    17    18    1
    56    17    72    1
    57    17    73    1
    58    18    74    1
    59    18    75    1
    60    18    76    1
    61    19    20    2
    62    19    21    1
    63    21    22    1
    64    21    77    1
    65    21    78    1
    66    22    23    1
    67    23    24    1
    68    23    79    1
    69    23    80    1
    70    24    25    2
    71    24    26    1
    72    26    27    1
    73    26    35    1
    74    27    28    1
    75    27    81    1
    76    27    82    1
    77    28    29    1
    78    28    83    1
    79    28    84    1
    80    29    30    1
    81    29    85    1
    82    29    86    1
    83    30    31    1
    84    30    87    1
    85    30    88    1
    86    31    32    1
    87    31    89    1
    88    31    90    1
    89    32    33    1
    90    32    91    1
    91    32    92    1
    92    33    34    1
    93    33    93    1
    94    33    94    1
    95    34    95    1
    96    34    96    1
    97    34    97    1
    98    35    36    1
    99    35    98    1
   100    35    99    1
   101    36    37    1
   102    36    39    1
   103    36   100    1
   104    37    38    1
   105    37   101    1
   106    37   102    1
   107    38   103    1
   108    38   104    1
   109    38   105    1
   110    39    40    1
   111    39   106    1
   112    39   107    1
   113    40    41    1
   114    40   108    1
   115    40   109    1
   116    41    42    1
   117    41   110    1
   118    41   111    1
   119    42   112    1
   120    42   113    1
   121    42   114    1
   122   115   116    1
   123   115   156    1
   124   115   157    1
   125   115   158    1
   126   116   117    1
   127   116   159    1
   128   116   160    1
   129   117   118    1
   130   117   161    1
   131   117   162    1
   132   118   119    1
   133   118   163    1
   134   118   164    1
   135   119   120    1
   136   119   165    1
   137   119   166    1
   138   120   121    1
   139   120   167    1
   140   120   168    1
   141   121   122    1
   142   121   169    1
   143   121   170    1
   144   122   123    1
   145   122   171    1
   146   122   172    1
   147   123   124    1
   148   123   132    1
   149   124   125    1
   150   124   173    1
   151   124   174    1
   152   125   126    1
   153   125   128    1
   154   125   175    1
   155   126   127    1
   156   126   176    1
   157   126   177    1
   158   127   178    1
   159   127   179    1
   160   127   180    1
   161   128   129    1
   162   128   181    1
   163   128   182    1
   164   129   130    1
   165   129   183    1
   166   129   184    1
   167   130   131    1
   168   130   185    1
   169   130   186    1
   170   131   187    1
   171   131   188    1
   172   131   189    1
   173   132   133    2
   174   132   134    1
   175   134   135    1
   176   134   190    1
   177   134   191    1
   178   135   136    1
   179   136   137    1
   180   136   192    1
   181   136   193    1
   182   137   138    2
   183   137   139    1
   184   139   140    1
   185   139   148    1
   186   140   141    1
   187   140   194    1
   188   140   195    1
   189   141   142    1
   190   141   196    1
   191   141   197    1
   192   142   143    1
   193   142   198    1
   194   142   199    1
   195   143   144    1
   196   143   200    1
   197   143   201    1
   198   144   145    1
   199   144   202    1
   200   144   203    1
   201   145   146    1
   202   145   204    1
   203   145   205    1
   204   146   147    1
   205   146   206    1
   206   146   207    1
   207   147   208    1
   208   147   209    1
   209   147   210    1
   210   148   149    1
   211   148   211    1
   212   148   212    1
   213   149   150    1
   214   149   152    1
   215   149   213    1
   216   150   151    1
   217   150   214    1
   218   150   215    1
   219   151   216    1
   220   151   217    1
   221   151   218    1
   222   152   153    1
   223   152   219    1
   224   152   220    1
   225   153   154    1
   226   153   221    1
   227   153   222    1
   228   154   155    1
   229   154   223    1
   230   154   224    1
   231   155   225    1
   232   155   226    1
   233   155   227    1
   234   228   229    1
   235   228   269    1
   236   228   270    1
   237   228   271    1
   238   229   230    1
   239   229   272    1
   240   229   273    1
   241   230   231    1
   242   230   274    1
   243   230   275    1
   244   231   232    1
   245   231   276    1
   246   231   277    1
   247   232   233    1
   248   232   278    1
   249   232   279    1
   250   233   234    1
   251   233   280    1
   252   233   281    1
   253   234   235    1
   254   234   282    1
   255   234   283    1
   256   235   236    1
   257   235   284    1
   258   235   285    1
   259   236   237    1
   260   236   245    1
   261   237   238    1
   262   237   286    1
   263   237   287    1
   264   238   239    1
   265   238   241    1
   266   238   288    1
   267   239   240    1
   268   239   289    1
   269   239   290    1
   270   240   291    1
   271   240   292    1
   272   240   293    1
   273   241   242    1
   274   241   294    1
   275   241   295    1
   276   242   243    1
   277   242   296    1
   278   242   297    1
   279   243   244    1
   280   243   298    1
   281   243   299    1
   282   244   300    1
   283   244   301    1
   284   244   302    1
   285   245   246    2
   286   245   247    1
   287   247   248    1
   288   247   303    1
   289   247   304    1
   290   248   249    1
   291   249   250    1
   292   249   305    1
   293   249   306    1
   294   250   251    2
   295   250   252    1
   296   252   253    1
   297   252   261    1
   298   253   254    1
   299   253   307    1
   300   253   308    1
   301   254   255    1
   302   254   309    1
   303   254   310    1
   304   255   256    1
   305   255   311    1
   306   255   312    1
   307   256   257    1
   308   256   313    1
   309   256   314    1
   310   257   258    1
   311   257   315    1
   312   257   316    1
   313   258   259    1
   314   258   317    1
   315   258   318    1
   316   259   260    1
   317   259   319    1
   318   259   320    1
   319   260   321    1
   320   260   322    1
   321   260   323    1
   322   261   262    1
   323   261   324    1
   324   261   325    1
   325   262   263    1
   326   262   265    1
   327   262   326    1
   328   263   264    1
   329   263   327    1
   330   263   328    1
   331   264   329    1
   332   264   330    1
   333   264   331    1
   334   265   266    1
   335   265   332    1
   336   265   333    1
   337   266   267    1
   338   266   334    1
   339   266   335    1
   340   267   268    1
   341   267   336    1
   342   267   337    1
   343   268   338    1
   344   268   339    1
   345   268   340    1
@<TRIPOS>SUBSTRUCTURE
     1 RES1      340 GROUP             0 ****  ****    0  
