@<TRIPOS>MOLECULE
am_c3_9H2O_c0_0_nunpairedes_0_charge_3 Charge: 3 Unpaired_Electrons: 7 XTB_Unpaired_Electrons: 0 XTB_Charge: 3
   277   282     1     0     0
SMALL
NoCharges
****
Generated from Architector

@<TRIPOS>ATOM
     1 Gd1      -0.0661    0.0531    0.4316   Gd        1 RES1   0.0000
     2 C1        4.3937    3.2572    2.2853   C.3       1 RES1   0.0000
     3 C2        4.1365    4.2928    1.1945   C.3       1 RES1   0.0000
     4 C3        2.8819    5.1250    1.4658   C.3       1 RES1   0.0000
     5 C4        3.0060    6.0224    2.6972   C.3       1 RES1   0.0000
     6 C5        1.8356    6.9915    2.8844   C.3       1 RES1   0.0000
     7 C6        0.4967    6.2858    3.1405   C.3       1 RES1   0.0000
     8 C7       -0.2963    6.0530    1.8546   C.3       1 RES1   0.0000
     9 C8       -1.5415    5.1654    2.0114   C.3       1 RES1   0.0000
    10 N1       -1.2400    3.7628    2.2485   N.am      1 RES1   0.0000
    11 C9       -0.9009    3.3702    3.6094   C.3       1 RES1   0.0000
    12 C10      -1.2301    2.7973    1.3385   C.2       1 RES1   0.0000
    13 O1       -0.9067    1.6304    1.6524   O.2       1 RES1   0.0000
    14 C11      -1.6510    3.0587   -0.1085   C.3       1 RES1   0.0000
    15 O2       -1.7449    1.8237   -0.8385   O.3       1 RES1   0.0000
    16 C12      -3.0490    1.4451   -1.2953   C.3       1 RES1   0.0000
    17 C13      -3.4325    0.0729   -0.7403   C.2       1 RES1   0.0000
    18 O3       -2.5745   -0.5024   -0.0439   O.2       1 RES1   0.0000
    19 N2       -4.6500   -0.4067   -1.0089   N.am      1 RES1   0.0000
    20 C14      -5.5124    0.1813   -2.0283   C.3       1 RES1   0.0000
    21 C15      -5.0572   -0.0492   -3.4745   C.3       1 RES1   0.0000
    22 C16      -6.1211    0.5128   -4.4232   C.3       1 RES1   0.0000
    23 C17      -5.6848    0.5597   -5.8898   C.3       1 RES1   0.0000
    24 C18      -4.7111    1.7004   -6.1941   C.3       1 RES1   0.0000
    25 C19      -4.5400    1.9860   -7.6922   C.3       1 RES1   0.0000
    26 C20      -3.4780    1.1615   -8.4246   C.3       1 RES1   0.0000
    27 C21      -3.7517   -0.3369   -8.4989   C.3       1 RES1   0.0000
    28 C22      -4.9882   -1.7672   -0.5649   C.3       1 RES1   0.0000
    29 C23      -6.3750   -2.0659    0.0471   C.3       1 RES1   0.0000
    30 C24      -6.6842   -1.7452    1.5276   C.3       1 RES1   0.0000
    31 C25      -7.4487   -0.4378    1.7587   C.3       1 RES1   0.0000
    32 C26      -8.0794   -0.2948    3.1560   C.3       1 RES1   0.0000
    33 C27      -7.0907   -0.0955    4.3070   C.3       1 RES1   0.0000
    34 C28      -7.7484    0.2232    5.6519   C.3       1 RES1   0.0000
    35 C29      -6.6859    0.5678    6.6950   C.3       1 RES1   0.0000
    36 H1        5.2275    2.6124    2.0136   H         1 RES1   0.0000
    37 H2        4.6453    3.7469    3.2210   H         1 RES1   0.0000
    38 H3        3.5060    2.6430    2.4438   H         1 RES1   0.0000
    39 H4        5.0021    4.9501    1.1029   H         1 RES1   0.0000
    40 H5        4.0106    3.7845    0.2303   H         1 RES1   0.0000
    41 H6        2.6960    5.7630    0.5978   H         1 RES1   0.0000
    42 H7        2.0420    4.4326    1.5824   H         1 RES1   0.0000
    43 H8        3.0943    5.4080    3.5943   H         1 RES1   0.0000
    44 H9        3.9216    6.6083    2.6031   H         1 RES1   0.0000
    45 H10       2.0709    7.6253    3.7397   H         1 RES1   0.0000
    46 H11       1.7502    7.6444    2.0149   H         1 RES1   0.0000
    47 H12       0.7055    5.3463    3.6462   H         1 RES1   0.0000
    48 H13      -0.1116    6.8933    3.8093   H         1 RES1   0.0000
    49 H14      -0.6183    7.0304    1.4856   H         1 RES1   0.0000
    50 H15       0.3583    5.6168    1.1029   H         1 RES1   0.0000
    51 H16      -2.1488    5.5400    2.8392   H         1 RES1   0.0000
    52 H17      -2.1291    5.2437    1.1004   H         1 RES1   0.0000
    53 H18      -1.1215    4.1732    4.3046   H         1 RES1   0.0000
    54 H19      -1.4814    2.4957    3.8922   H         1 RES1   0.0000
    55 H20       0.1488    3.0922    3.6941   H         1 RES1   0.0000
    56 H21      -2.5865    3.6154   -0.1336   H         1 RES1   0.0000
    57 H22      -0.8885    3.6634   -0.6031   H         1 RES1   0.0000
    58 H23      -3.7782    2.1867   -0.9860   H         1 RES1   0.0000
    59 H24      -3.0362    1.4079   -2.3901   H         1 RES1   0.0000
    60 H25      -6.5047   -0.2591   -1.9232   H         1 RES1   0.0000
    61 H26      -5.6140    1.2538   -1.8609   H         1 RES1   0.0000
    62 H27      -4.1043    0.4386   -3.6817   H         1 RES1   0.0000
    63 H28      -4.9246   -1.1151   -3.6619   H         1 RES1   0.0000
    64 H29      -7.0142   -0.1065   -4.3426   H         1 RES1   0.0000
    65 H30      -6.3876    1.5233   -4.1042   H         1 RES1   0.0000
    66 H31      -5.2569   -0.4017   -6.1697   H         1 RES1   0.0000
    67 H32      -6.5764    0.7128   -6.4993   H         1 RES1   0.0000
    68 H33      -5.1087    2.6048   -5.7267   H         1 RES1   0.0000
    69 H34      -3.7337    1.5060   -5.7457   H         1 RES1   0.0000
    70 H35      -5.5030    1.8509   -8.1848   H         1 RES1   0.0000
    71 H36      -4.2616    3.0360   -7.8086   H         1 RES1   0.0000
    72 H37      -3.4158    1.5457   -9.4443   H         1 RES1   0.0000
    73 H38      -2.5040    1.3326   -7.9600   H         1 RES1   0.0000
    74 H39      -4.7481   -0.5252   -8.8898   H         1 RES1   0.0000
    75 H40      -3.0333   -0.8080   -9.1659   H         1 RES1   0.0000
    76 H41      -3.6627   -0.8112   -7.5229   H         1 RES1   0.0000
    77 H42      -4.8975   -2.4142   -1.4455   H         1 RES1   0.0000
    78 H43      -4.2004   -2.0333    0.1337   H         1 RES1   0.0000
    79 H44      -7.1577   -1.6279   -0.5690   H         1 RES1   0.0000
    80 H45      -6.4805   -3.1473   -0.0618   H         1 RES1   0.0000
    81 H46      -7.3191   -2.5464    1.9113   H         1 RES1   0.0000
    82 H47      -5.7745   -1.7555    2.1243   H         1 RES1   0.0000
    83 H48      -6.8015    0.4147    1.5681   H         1 RES1   0.0000
    84 H49      -8.2667   -0.3970    1.0385   H         1 RES1   0.0000
    85 H50      -8.7400    0.5760    3.1307   H         1 RES1   0.0000
    86 H51      -8.6975   -1.1696    3.3629   H         1 RES1   0.0000
    87 H52      -6.4636   -0.9848    4.4260   H         1 RES1   0.0000
    88 H53      -6.4471    0.7572    4.0835   H         1 RES1   0.0000
    89 H54      -8.4202    1.0764    5.5317   H         1 RES1   0.0000
    90 H55      -8.3418   -0.6242    5.9970   H         1 RES1   0.0000
    91 H56      -6.1058    1.4347    6.3776   H         1 RES1   0.0000
    92 H57      -7.1489    0.7976    7.6503   H         1 RES1   0.0000
    93 H58      -6.0019   -0.2666    6.8429   H         1 RES1   0.0000
    94 C30       0.0792   -6.3467   -0.2879   C.3       1 RES1   0.0000
    95 C31       1.4811   -5.7850   -0.5131   C.3       1 RES1   0.0000
    96 C32       2.2329   -5.5236    0.7928   C.3       1 RES1   0.0000
    97 C33       3.6759   -5.1038    0.5202   C.3       1 RES1   0.0000
    98 C34       4.5047   -4.8804    1.7866   C.3       1 RES1   0.0000
    99 C35       4.2714   -3.5162    2.4461   C.3       1 RES1   0.0000
   100 C36       4.9773   -2.3886    1.6903   C.3       1 RES1   0.0000
   101 C37       4.8682   -1.0187    2.3734   C.3       1 RES1   0.0000
   102 N3        3.4986   -0.5371    2.5063   N.am      1 RES1   0.0000
   103 C38       2.8967   -0.7071    3.8225   C.3       1 RES1   0.0000
   104 C39       2.7759    0.0547    1.5690   C.2       1 RES1   0.0000
   105 O4        1.6009    0.4204    1.7932   O.2       1 RES1   0.0000
   106 C40       3.3611    0.4191    0.1975   C.3       1 RES1   0.0000
   107 O5        2.3069    0.3390   -0.7716   O.3       1 RES1   0.0000
   108 C41       2.3931    1.2288   -1.8723   C.3       1 RES1   0.0000
   109 C42       1.6021    2.4875   -1.5321   C.2       1 RES1   0.0000
   110 O6        0.9502    2.4484   -0.4742   O.2       1 RES1   0.0000
   111 N4        1.6897    3.5390   -2.3379   N.am      1 RES1   0.0000
   112 C43       2.2928    3.4947   -3.6672   C.3       1 RES1   0.0000
   113 C44       1.5812    2.6271   -4.7199   C.3       1 RES1   0.0000
   114 C45       0.0785    2.8795   -4.7591   C.3       1 RES1   0.0000
   115 C46      -0.6968    2.1595   -5.8594   C.3       1 RES1   0.0000
   116 C47      -0.8955    0.6612   -5.6161   C.3       1 RES1   0.0000
   117 C48       0.1430   -0.2224   -6.3042   C.3       1 RES1   0.0000
   118 C49      -0.2953   -1.6862   -6.3220   C.3       1 RES1   0.0000
   119 C50       0.6761   -2.5645   -7.1025   C.3       1 RES1   0.0000
   120 C51       1.1731    4.8301   -1.8877   C.3       1 RES1   0.0000
   121 C52      -0.1454    5.2426   -2.5548   C.3       1 RES1   0.0000
   122 C53      -1.0234    6.1485   -1.6818   C.3       1 RES1   0.0000
   123 C54      -0.7467    7.6495   -1.8314   C.3       1 RES1   0.0000
   124 C55      -1.7852    8.3579   -2.7046   C.3       1 RES1   0.0000
   125 C56      -1.8249    7.8957   -4.1608   C.3       1 RES1   0.0000
   126 C57      -0.5693    8.2675   -4.9491   C.3       1 RES1   0.0000
   127 C58      -0.6657    7.8071   -6.4000   C.3       1 RES1   0.0000
   128 H59      -0.4834   -6.3671   -1.2197   H         1 RES1   0.0000
   129 H60      -0.4719   -5.7622    0.4470   H         1 RES1   0.0000
   130 H61       0.1424   -7.3626    0.0872   H         1 RES1   0.0000
   131 H62       1.4332   -4.8501   -1.0838   H         1 RES1   0.0000
   132 H63       2.0486   -6.4972   -1.1154   H         1 RES1   0.0000
   133 H64       2.2384   -6.4369    1.3878   H         1 RES1   0.0000
   134 H65       1.7140   -4.7478    1.3674   H         1 RES1   0.0000
   135 H66       3.6694   -4.1938   -0.0784   H         1 RES1   0.0000
   136 H67       4.1485   -5.8871   -0.0742   H         1 RES1   0.0000
   137 H68       5.5630   -4.9719    1.5395   H         1 RES1   0.0000
   138 H69       4.2765   -5.6738    2.4990   H         1 RES1   0.0000
   139 H70       4.6638   -3.5559    3.4626   H         1 RES1   0.0000
   140 H71       3.1988   -3.3163    2.4930   H         1 RES1   0.0000
   141 H72       4.5628   -2.3338    0.6846   H         1 RES1   0.0000
   142 H73       6.0386   -2.6353    1.6034   H         1 RES1   0.0000
   143 H74       5.4648   -0.2829    1.8295   H         1 RES1   0.0000
   144 H75       5.2730   -1.1084    3.3833   H         1 RES1   0.0000
   145 H76       2.9991   -1.7380    4.1549   H         1 RES1   0.0000
   146 H77       1.8410   -0.4441    3.7684   H         1 RES1   0.0000
   147 H78       3.3959   -0.0490    4.5357   H         1 RES1   0.0000
   148 H79       4.1825   -0.2387   -0.0969   H         1 RES1   0.0000
   149 H80       3.7141    1.4542    0.2713   H         1 RES1   0.0000
   150 H81       1.9421    0.7202   -2.7281   H         1 RES1   0.0000
   151 H82       3.4253    1.4870   -2.1213   H         1 RES1   0.0000
   152 H83       3.3311    3.1687   -3.5985   H         1 RES1   0.0000
   153 H84       2.2939    4.5215   -4.0304   H         1 RES1   0.0000
   154 H85       1.7736    1.5643   -4.5781   H         1 RES1   0.0000
   155 H86       2.0145    2.8929   -5.6855   H         1 RES1   0.0000
   156 H87      -0.0675    3.9468   -4.9086   H         1 RES1   0.0000
   157 H88      -0.3588    2.5948   -3.7950   H         1 RES1   0.0000
   158 H89      -0.2106    2.3140   -6.8214   H         1 RES1   0.0000
   159 H90      -1.6758    2.6390   -5.9226   H         1 RES1   0.0000
   160 H91      -1.8691    0.3698   -6.0125   H         1 RES1   0.0000
   161 H92      -0.9132    0.4649   -4.5361   H         1 RES1   0.0000
   162 H93       1.1187   -0.1386   -5.8169   H         1 RES1   0.0000
   163 H94       0.2596    0.1149   -7.3352   H         1 RES1   0.0000
   164 H95      -1.2815   -1.7534   -6.7863   H         1 RES1   0.0000
   165 H96      -0.3942   -2.0520   -5.2917   H         1 RES1   0.0000
   166 H97       0.6925   -2.2597   -8.1453   H         1 RES1   0.0000
   167 H98       0.3702   -3.6066   -7.0555   H         1 RES1   0.0000
   168 H99       1.6889   -2.4817   -6.7117   H         1 RES1   0.0000
   169 H100      1.9451    5.5808   -2.0700   H         1 RES1   0.0000
   170 H101      1.0336    4.7464   -0.8094   H         1 RES1   0.0000
   171 H102     -0.7101    4.3370   -2.7672   H         1 RES1   0.0000
   172 H103      0.0585    5.7495   -3.4963   H         1 RES1   0.0000
   173 H104     -0.8925    5.8648   -0.6403   H         1 RES1   0.0000
   174 H105     -2.0706    5.9672   -1.9340   H         1 RES1   0.0000
   175 H106      0.2534    7.8002   -2.2336   H         1 RES1   0.0000
   176 H107     -0.7702    8.1225   -0.8494   H         1 RES1   0.0000
   177 H108     -1.5861    9.4292   -2.6844   H         1 RES1   0.0000
   178 H109     -2.7724    8.2037   -2.2622   H         1 RES1   0.0000
   179 H110     -2.6796    8.3694   -4.6474   H         1 RES1   0.0000
   180 H111     -1.9843    6.8141   -4.2067   H         1 RES1   0.0000
   181 H112      0.3165    7.8212   -4.4870   H         1 RES1   0.0000
   182 H113     -0.4389    9.3508   -4.9211   H         1 RES1   0.0000
   183 H114     -0.7941    6.7261   -6.4550   H         1 RES1   0.0000
   184 H115      0.2344    8.0764   -6.9467   H         1 RES1   0.0000
   185 H116     -1.5151    8.2753   -6.8912   H         1 RES1   0.0000
   186 C59       6.1082    3.5830   -3.9032   C.3       1 RES1   0.0000
   187 C60       6.0285    3.7031   -2.3844   C.3       1 RES1   0.0000
   188 C61       6.8430    2.6566   -1.6154   C.3       1 RES1   0.0000
   189 C62       6.2075    1.2632   -1.5201   C.3       1 RES1   0.0000
   190 C63       6.5083    0.2955   -2.6669   C.3       1 RES1   0.0000
   191 C64       5.9697   -1.1239   -2.4116   C.3       1 RES1   0.0000
   192 C65       4.5291   -1.3295   -2.9112   C.3       1 RES1   0.0000
   193 C66       3.8407   -2.4890   -2.1788   C.3       1 RES1   0.0000
   194 N5        2.4207   -2.6558   -2.4874   N.am      1 RES1   0.0000
   195 C67       2.1885   -3.2097   -3.8036   C.3       1 RES1   0.0000
   196 C68       1.4813   -2.4002   -1.5795   C.2       1 RES1   0.0000
   197 O7        1.7014   -1.9870   -0.4297   O.2       1 RES1   0.0000
   198 C69      -0.0124   -2.5577   -1.9501   C.3       1 RES1   0.0000
   199 O8       -0.7816   -2.0887   -0.8466   O.3       1 RES1   0.0000
   200 C70      -1.0821   -3.1097    0.1247   C.3       1 RES1   0.0000
   201 C71      -1.4276   -2.4011    1.4485   C.2       1 RES1   0.0000
   202 O9       -0.5813   -1.5610    1.8371   O.2       1 RES1   0.0000
   203 N6       -2.5341   -2.6317    2.1370   N.am      1 RES1   0.0000
   204 C72      -2.8228   -1.7824    3.3122   C.3       1 RES1   0.0000
   205 C73      -2.8894   -0.2519    3.1230   C.3       1 RES1   0.0000
   206 C74      -4.1531    0.3614    2.4955   C.3       1 RES1   0.0000
   207 C75      -4.0776    1.8994    2.5046   C.3       1 RES1   0.0000
   208 C76      -5.3659    2.7081    2.2561   C.3       1 RES1   0.0000
   209 C77      -5.9107    2.8083    0.8233   C.3       1 RES1   0.0000
   210 C78      -5.3174    3.9092   -0.0665   C.3       1 RES1   0.0000
   211 C79      -5.5937    5.3452    0.3639   C.3       1 RES1   0.0000
   212 C80      -3.4720   -3.7258    1.9026   C.3       1 RES1   0.0000
   213 C81      -3.6456   -4.7242    3.0600   C.3       1 RES1   0.0000
   214 C82      -2.5783   -5.8122    3.2151   C.3       1 RES1   0.0000
   215 C83      -1.3178   -5.3824    3.9677   C.3       1 RES1   0.0000
   216 C84      -0.5393   -6.5468    4.5965   C.3       1 RES1   0.0000
   217 C85       0.2812   -7.4089    3.6336   C.3       1 RES1   0.0000
   218 C86      -0.5045   -8.4653    2.8559   C.3       1 RES1   0.0000
   219 C87       0.4342   -9.4106    2.1090   C.3       1 RES1   0.0000
   220 H117      5.6090    4.4275   -4.3740   H         1 RES1   0.0000
   221 H118      5.6498    2.6670   -4.2709   H         1 RES1   0.0000
   222 H119      7.1475    3.5932   -4.2191   H         1 RES1   0.0000
   223 H120      4.9820    3.6681   -2.0534   H         1 RES1   0.0000
   224 H121      6.4086    4.6888   -2.1101   H         1 RES1   0.0000
   225 H122      6.9646    3.0333   -0.5970   H         1 RES1   0.0000
   226 H123      7.8356    2.5774   -2.0552   H         1 RES1   0.0000
   227 H124      5.1321    1.4010   -1.4152   H         1 RES1   0.0000
   228 H125      6.5655    0.7974   -0.5989   H         1 RES1   0.0000
   229 H126      7.5905    0.2498   -2.7766   H         1 RES1   0.0000
   230 H127      6.1057    0.6706   -3.6068   H         1 RES1   0.0000
   231 H128      6.0338   -1.3413   -1.3419   H         1 RES1   0.0000
   232 H129      6.6136   -1.8406   -2.9173   H         1 RES1   0.0000
   233 H130      4.5582   -1.5058   -3.9873   H         1 RES1   0.0000
   234 H131      3.9571   -0.4222   -2.7411   H         1 RES1   0.0000
   235 H132      3.9042   -2.3019   -1.1078   H         1 RES1   0.0000
   236 H133      4.3505   -3.4278   -2.4129   H         1 RES1   0.0000
   237 H134      2.6605   -4.1909   -3.8807   H         1 RES1   0.0000
   238 H135      2.6427   -2.5525   -4.5446   H         1 RES1   0.0000
   239 H136      1.1374   -3.3213   -4.0338   H         1 RES1   0.0000
   240 H137     -0.2835   -3.5869   -2.2067   H         1 RES1   0.0000
   241 H138     -0.2612   -1.9061   -2.7948   H         1 RES1   0.0000
   242 H139     -0.1782   -3.7039    0.2996   H         1 RES1   0.0000
   243 H140     -1.8805   -3.7417   -0.2739   H         1 RES1   0.0000
   244 H141     -2.0213   -1.9746    4.0329   H         1 RES1   0.0000
   245 H142     -3.7677   -2.1300    3.7306   H         1 RES1   0.0000
   246 H143     -1.9975    0.0803    2.5856   H         1 RES1   0.0000
   247 H144     -2.8331    0.1457    4.1399   H         1 RES1   0.0000
   248 H145     -5.0045    0.0557    3.0904   H         1 RES1   0.0000
   249 H146     -4.2999    0.0032    1.4825   H         1 RES1   0.0000
   250 H147     -3.3242    2.2090    1.7839   H         1 RES1   0.0000
   251 H148     -3.7368    2.1960    3.4994   H         1 RES1   0.0000
   252 H149     -5.1911    3.7224    2.6158   H         1 RES1   0.0000
   253 H150     -6.1577    2.2986    2.8797   H         1 RES1   0.0000
   254 H151     -6.9825    3.0033    0.8812   H         1 RES1   0.0000
   255 H152     -5.7836    1.8458    0.3227   H         1 RES1   0.0000
   256 H153     -5.7020    3.7742   -1.0835   H         1 RES1   0.0000
   257 H154     -4.2325    3.8077   -0.1104   H         1 RES1   0.0000
   258 H155     -6.6576    5.5355    0.4537   H         1 RES1   0.0000
   259 H156     -5.1914    6.0269   -0.3836   H         1 RES1   0.0000
   260 H157     -5.1166    5.5707    1.3141   H         1 RES1   0.0000
   261 H158     -3.1848   -4.2866    1.0151   H         1 RES1   0.0000
   262 H159     -4.4558   -3.2875    1.7266   H         1 RES1   0.0000
   263 H160     -4.5900   -5.2337    2.8613   H         1 RES1   0.0000
   264 H161     -3.7634   -4.1918    4.0027   H         1 RES1   0.0000
   265 H162     -2.3276   -6.2162    2.2340   H         1 RES1   0.0000
   266 H163     -3.0351   -6.6236    3.7841   H         1 RES1   0.0000
   267 H164     -1.6249   -4.7270    4.7865   H         1 RES1   0.0000
   268 H165     -0.6500   -4.8102    3.3160   H         1 RES1   0.0000
   269 H166     -1.2284   -7.1827    5.1538   H         1 RES1   0.0000
   270 H167      0.1553   -6.1151    5.3199   H         1 RES1   0.0000
   271 H168      1.0370   -7.9356    4.2205   H         1 RES1   0.0000
   272 H169      0.8083   -6.7561    2.9346   H         1 RES1   0.0000
   273 H170     -1.1804   -7.9924    2.1405   H         1 RES1   0.0000
   274 H171     -1.1121   -9.0457    3.5524   H         1 RES1   0.0000
   275 H172      1.0947   -8.8585    1.4408   H         1 RES1   0.0000
   276 H173     -0.1350  -10.1252    1.5194   H         1 RES1   0.0000
   277 H174      1.0556   -9.9643    2.8081   H         1 RES1   0.0000
@<TRIPOS>BOND
     1     1    13    1
     2     1    15    1
     3     1    18    1
     4     1   105    1
     5     1   107    1
     6     1   110    1
     7     1   197    1
     8     1   199    1
     9     1   202    1
    10     2     3    1
    11     2    36    1
    12     2    37    1
    13     2    38    1
    14     3     4    1
    15     3    39    1
    16     3    40    1
    17     4     5    1
    18     4    41    1
    19     4    42    1
    20     5     6    1
    21     5    43    1
    22     5    44    1
    23     6     7    1
    24     6    45    1
    25     6    46    1
    26     7     8    1
    27     7    47    1
    28     7    48    1
    29     8     9    1
    30     8    49    1
    31     8    50    1
    32     9    10    1
    33     9    51    1
    34     9    52    1
    35    10    11    1
    36    10    12    1
    37    11    53    1
    38    11    54    1
    39    11    55    1
    40    12    13    2
    41    12    14    1
    42    14    15    1
    43    14    56    1
    44    14    57    1
    45    15    16    1
    46    16    17    1
    47    16    58    1
    48    16    59    1
    49    17    18    2
    50    17    19    1
    51    19    20    1
    52    19    28    1
    53    20    21    1
    54    20    60    1
    55    20    61    1
    56    21    22    1
    57    21    62    1
    58    21    63    1
    59    22    23    1
    60    22    64    1
    61    22    65    1
    62    23    24    1
    63    23    66    1
    64    23    67    1
    65    24    25    1
    66    24    68    1
    67    24    69    1
    68    25    26    1
    69    25    70    1
    70    25    71    1
    71    26    27    1
    72    26    72    1
    73    26    73    1
    74    27    74    1
    75    27    75    1
    76    27    76    1
    77    28    29    1
    78    28    77    1
    79    28    78    1
    80    29    30    1
    81    29    79    1
    82    29    80    1
    83    30    31    1
    84    30    81    1
    85    30    82    1
    86    31    32    1
    87    31    83    1
    88    31    84    1
    89    32    33    1
    90    32    85    1
    91    32    86    1
    92    33    34    1
    93    33    87    1
    94    33    88    1
    95    34    35    1
    96    34    89    1
    97    34    90    1
    98    35    91    1
    99    35    92    1
   100    35    93    1
   101    94    95    1
   102    94   128    1
   103    94   129    1
   104    94   130    1
   105    95    96    1
   106    95   131    1
   107    95   132    1
   108    96    97    1
   109    96   133    1
   110    96   134    1
   111    97    98    1
   112    97   135    1
   113    97   136    1
   114    98    99    1
   115    98   137    1
   116    98   138    1
   117    99   100    1
   118    99   139    1
   119    99   140    1
   120   100   101    1
   121   100   141    1
   122   100   142    1
   123   101   102    1
   124   101   143    1
   125   101   144    1
   126   102   103    1
   127   102   104    1
   128   103   145    1
   129   103   146    1
   130   103   147    1
   131   104   105    2
   132   104   106    1
   133   106   107    1
   134   106   148    1
   135   106   149    1
   136   107   108    1
   137   108   109    1
   138   108   150    1
   139   108   151    1
   140   109   110    2
   141   109   111    1
   142   111   112    1
   143   111   120    1
   144   112   113    1
   145   112   152    1
   146   112   153    1
   147   113   114    1
   148   113   154    1
   149   113   155    1
   150   114   115    1
   151   114   156    1
   152   114   157    1
   153   115   116    1
   154   115   158    1
   155   115   159    1
   156   116   117    1
   157   116   160    1
   158   116   161    1
   159   117   118    1
   160   117   162    1
   161   117   163    1
   162   118   119    1
   163   118   164    1
   164   118   165    1
   165   119   166    1
   166   119   167    1
   167   119   168    1
   168   120   121    1
   169   120   169    1
   170   120   170    1
   171   121   122    1
   172   121   171    1
   173   121   172    1
   174   122   123    1
   175   122   173    1
   176   122   174    1
   177   123   124    1
   178   123   175    1
   179   123   176    1
   180   124   125    1
   181   124   177    1
   182   124   178    1
   183   125   126    1
   184   125   179    1
   185   125   180    1
   186   126   127    1
   187   126   181    1
   188   126   182    1
   189   127   183    1
   190   127   184    1
   191   127   185    1
   192   186   187    1
   193   186   220    1
   194   186   221    1
   195   186   222    1
   196   187   188    1
   197   187   223    1
   198   187   224    1
   199   188   189    1
   200   188   225    1
   201   188   226    1
   202   189   190    1
   203   189   227    1
   204   189   228    1
   205   190   191    1
   206   190   229    1
   207   190   230    1
   208   191   192    1
   209   191   231    1
   210   191   232    1
   211   192   193    1
   212   192   233    1
   213   192   234    1
   214   193   194    1
   215   193   235    1
   216   193   236    1
   217   194   195    1
   218   194   196    1
   219   195   237    1
   220   195   238    1
   221   195   239    1
   222   196   197    2
   223   196   198    1
   224   198   199    1
   225   198   240    1
   226   198   241    1
   227   199   200    1
   228   200   201    1
   229   200   242    1
   230   200   243    1
   231   201   202    2
   232   201   203    1
   233   203   204    1
   234   203   212    1
   235   204   205    1
   236   204   244    1
   237   204   245    1
   238   205   206    1
   239   205   246    1
   240   205   247    1
   241   206   207    1
   242   206   248    1
   243   206   249    1
   244   207   208    1
   245   207   250    1
   246   207   251    1
   247   208   209    1
   248   208   252    1
   249   208   253    1
   250   209   210    1
   251   209   254    1
   252   209   255    1
   253   210   211    1
   254   210   256    1
   255   210   257    1
   256   211   258    1
   257   211   259    1
   258   211   260    1
   259   212   213    1
   260   212   261    1
   261   212   262    1
   262   213   214    1
   263   213   263    1
   264   213   264    1
   265   214   215    1
   266   214   265    1
   267   214   266    1
   268   215   216    1
   269   215   267    1
   270   215   268    1
   271   216   217    1
   272   216   269    1
   273   216   270    1
   274   217   218    1
   275   217   271    1
   276   217   272    1
   277   218   219    1
   278   218   273    1
   279   218   274    1
   280   219   275    1
   281   219   276    1
   282   219   277    1
@<TRIPOS>SUBSTRUCTURE
     1 RES1      277 GROUP             0 ****  ****    0  
