@<TRIPOS>MOLECULE
am_c3_9H2O_c0_0_nunpairedes_0_charge_3 Charge: 3 Unpaired_Electrons: 7 XTB_Unpaired_Electrons: 0 XTB_Charge: 3
   277   282     1     0     0
SMALL
NoCharges
****
Generated from Architector

@<TRIPOS>ATOM
     1 Gd1       0.1883    0.2338    0.3418   Gd        1 RES1   0.0000
     2 C1       -9.1096    0.9646    4.0549   C.3       1 RES1   0.0000
     3 C2       -7.9942    2.0038    4.0377   C.3       1 RES1   0.0000
     4 C3       -8.3257    3.1663    3.1000   C.3       1 RES1   0.0000
     5 C4       -7.2482    4.2528    3.0843   C.3       1 RES1   0.0000
     6 C5       -5.9918    3.8677    2.2992   C.3       1 RES1   0.0000
     7 C6       -6.1139    4.1442    0.8014   C.3       1 RES1   0.0000
     8 C7       -4.8407    3.7723    0.0311   C.3       1 RES1   0.0000
     9 C8       -4.8020    2.3488   -0.5339   C.3       1 RES1   0.0000
    10 N1       -4.7150    1.2807    0.4537   N.am      1 RES1   0.0000
    11 C9       -5.9770    0.6651    0.8436   C.3       1 RES1   0.0000
    12 C10      -3.5140    0.7513    0.6856   C.2       1 RES1   0.0000
    13 O1       -2.4550    1.1464    0.1803   O.2       1 RES1   0.0000
    14 C11      -3.4503   -0.3700    1.7377   C.3       1 RES1   0.0000
    15 C12      -3.3685   -1.7581    1.0689   C.3       1 RES1   0.0000
    16 C13      -2.3666   -1.9580   -0.0808   C.3       1 RES1   0.0000
    17 O2       -2.7628   -1.3041   -1.2661   O.3       1 RES1   0.0000
    18 C14      -2.9678   -2.1243   -2.4206   C.3       1 RES1   0.0000
    19 C15      -1.8168   -2.0467   -3.4203   C.3       1 RES1   0.0000
    20 C16      -1.9901   -2.9910   -4.6225   C.3       1 RES1   0.0000
    21 C17      -2.4449   -2.3023   -5.9193   C.3       1 RES1   0.0000
    22 C18      -3.9572   -2.3506   -6.1353   C.3       1 RES1   0.0000
    23 C19      -4.3913   -1.5189   -7.3374   C.3       1 RES1   0.0000
    24 C20      -2.2492    0.0376    2.5719   C.2       1 RES1   0.0000
    25 O3       -1.0836   -0.2273    2.1731   O.2       1 RES1   0.0000
    26 N2       -2.4603    0.7619    3.6634   N.am      1 RES1   0.0000
    27 C21      -3.7729    1.1790    4.1180   C.3       1 RES1   0.0000
    28 C22      -1.3188    1.2848    4.3992   C.3       1 RES1   0.0000
    29 C23      -1.1933    2.8135    4.3054   C.3       1 RES1   0.0000
    30 C24       0.2824    3.2180    4.3921   C.3       1 RES1   0.0000
    31 C25       0.4838    4.6593    4.8596   C.3       1 RES1   0.0000
    32 C26       1.9521    5.0776    4.9574   C.3       1 RES1   0.0000
    33 C27       2.7010    5.1159    3.6243   C.3       1 RES1   0.0000
    34 C28       4.2164    5.1927    3.8312   C.3       1 RES1   0.0000
    35 C29       5.0027    4.8548    2.5665   C.3       1 RES1   0.0000
    36 H1       -8.8575    0.1371    4.7144   H         1 RES1   0.0000
    37 H2       -9.2885    0.5711    3.0556   H         1 RES1   0.0000
    38 H3      -10.0323    1.4128    4.4129   H         1 RES1   0.0000
    39 H4       -7.0561    1.5248    3.7349   H         1 RES1   0.0000
    40 H5       -7.8504    2.3953    5.0474   H         1 RES1   0.0000
    41 H6       -9.2637    3.6099    3.4390   H         1 RES1   0.0000
    42 H7       -8.4933    2.7911    2.0872   H         1 RES1   0.0000
    43 H8       -6.9698    4.4719    4.1159   H         1 RES1   0.0000
    44 H9       -7.6691    5.1640    2.6562   H         1 RES1   0.0000
    45 H10      -5.7801    2.8107    2.4641   H         1 RES1   0.0000
    46 H11      -5.1439    4.4447    2.6766   H         1 RES1   0.0000
    47 H12      -6.2998    5.2116    0.6692   H         1 RES1   0.0000
    48 H13      -6.9707    3.6152    0.3807   H         1 RES1   0.0000
    49 H14      -3.9754    3.9304    0.6787   H         1 RES1   0.0000
    50 H15      -4.7373    4.4415   -0.8267   H         1 RES1   0.0000
    51 H16      -3.9135    2.2448   -1.1567   H         1 RES1   0.0000
    52 H17      -5.6930    2.1664   -1.1326   H         1 RES1   0.0000
    53 H18      -6.7804    1.3488    0.5855   H         1 RES1   0.0000
    54 H19      -6.0672    0.4788    1.9132   H         1 RES1   0.0000
    55 H20      -6.1345   -0.2672    0.2979   H         1 RES1   0.0000
    56 H21      -4.3574   -0.3849    2.3354   H         1 RES1   0.0000
    57 H22      -4.3590   -1.9889    0.6645   H         1 RES1   0.0000
    58 H23      -3.1534   -2.4883    1.8532   H         1 RES1   0.0000
    59 H24      -2.3141   -3.0417   -0.2508   H         1 RES1   0.0000
    60 H25      -1.3462   -1.5916    0.1966   H         1 RES1   0.0000
    61 H26      -3.8719   -1.7594   -2.9038   H         1 RES1   0.0000
    62 H27      -3.1400   -3.1626   -2.1168   H         1 RES1   0.0000
    63 H28      -0.8872   -2.2861   -2.9114   H         1 RES1   0.0000
    64 H29      -1.7338   -1.0129   -3.7540   H         1 RES1   0.0000
    65 H30      -2.7038   -3.7800   -4.3776   H         1 RES1   0.0000
    66 H31      -1.0346   -3.4814   -4.8144   H         1 RES1   0.0000
    67 H32      -1.9728   -2.7883   -6.7776   H         1 RES1   0.0000
    68 H33      -2.1188   -1.2574   -5.9224   H         1 RES1   0.0000
    69 H34      -4.4712   -1.9797   -5.2486   H         1 RES1   0.0000
    70 H35      -4.2693   -3.3845   -6.2885   H         1 RES1   0.0000
    71 H36      -4.1298   -0.4703   -7.2014   H         1 RES1   0.0000
    72 H37      -5.4641   -1.5958   -7.4938   H         1 RES1   0.0000
    73 H38      -3.9051   -1.8659   -8.2436   H         1 RES1   0.0000
    74 H39      -4.2325    1.8482    3.3874   H         1 RES1   0.0000
    75 H40      -3.6703    1.7129    5.0599   H         1 RES1   0.0000
    76 H41      -4.4262    0.3210    4.2882   H         1 RES1   0.0000
    77 H42      -0.4332    0.8273    3.9513   H         1 RES1   0.0000
    78 H43      -1.3886    0.9640    5.4431   H         1 RES1   0.0000
    79 H44      -1.7580    3.3029    5.1021   H         1 RES1   0.0000
    80 H45      -1.6058    3.1295    3.3444   H         1 RES1   0.0000
    81 H46       0.7342    3.0477    3.4119   H         1 RES1   0.0000
    82 H47       0.7795    2.5672    5.1113   H         1 RES1   0.0000
    83 H48       0.0479    4.7531    5.8553   H         1 RES1   0.0000
    84 H49      -0.0457    5.3523    4.2100   H         1 RES1   0.0000
    85 H50       2.4641    4.3929    5.6342   H         1 RES1   0.0000
    86 H51       1.9965    6.0733    5.4011   H         1 RES1   0.0000
    87 H52       2.3835    5.9876    3.0483   H         1 RES1   0.0000
    88 H53       2.4610    4.2269    3.0345   H         1 RES1   0.0000
    89 H54       4.5131    4.4990    4.6201   H         1 RES1   0.0000
    90 H55       4.4849    6.1950    4.1658   H         1 RES1   0.0000
    91 H56       4.8739    3.8026    2.3051   H         1 RES1   0.0000
    92 H57       6.0650    5.0318    2.7209   H         1 RES1   0.0000
    93 H58       4.6787    5.4704    1.7272   H         1 RES1   0.0000
    94 C30       2.9166    8.5860   -3.4249   C.3       1 RES1   0.0000
    95 C31       1.4124    8.3510   -3.3656   C.3       1 RES1   0.0000
    96 C32       0.7728    9.1212   -2.2112   C.3       1 RES1   0.0000
    97 C33      -0.7451    8.9385   -2.1340   C.3       1 RES1   0.0000
    98 C34      -1.1854    7.6050   -1.5199   C.3       1 RES1   0.0000
    99 C35      -1.1137    7.6179    0.0090   C.3       1 RES1   0.0000
   100 C36      -1.4508    6.2528    0.6429   C.3       1 RES1   0.0000
   101 C37      -0.2914    5.5784    1.3922   C.3       1 RES1   0.0000
   102 N3        0.6994    5.0156    0.4860   N.am      1 RES1   0.0000
   103 C38       1.6649    5.9688   -0.0317   C.3       1 RES1   0.0000
   104 C39       0.7350    3.7027    0.2399   C.2       1 RES1   0.0000
   105 O4        0.1969    2.8417    0.9570   O.2       1 RES1   0.0000
   106 C40       1.3923    3.3052   -1.0976   C.3       1 RES1   0.0000
   107 C41       2.6075    2.3437   -0.9982   C.3       1 RES1   0.0000
   108 C42       3.2316    2.2160    0.3883   C.3       1 RES1   0.0000
   109 O5        2.4412    1.3639    1.2113   O.3       1 RES1   0.0000
   110 C43       3.1414    1.0467    2.4202   C.3       1 RES1   0.0000
   111 C44       2.3936   -0.0648    3.1361   C.3       1 RES1   0.0000
   112 C45       3.1138   -0.6006    4.3827   C.3       1 RES1   0.0000
   113 C46       2.9065    0.2191    5.6631   C.3       1 RES1   0.0000
   114 C47       3.7996    1.4551    5.7958   C.3       1 RES1   0.0000
   115 C48       3.6119    2.1259    7.1531   C.3       1 RES1   0.0000
   116 C49       0.2624    2.5736   -1.8361   C.2       1 RES1   0.0000
   117 O6       -0.2860    1.6094   -1.2784   O.2       1 RES1   0.0000
   118 N4       -0.0999    2.9642   -3.0502   N.am      1 RES1   0.0000
   119 C50       0.6788    3.8951   -3.8405   C.3       1 RES1   0.0000
   120 C51      -1.1467    2.1776   -3.7007   C.3       1 RES1   0.0000
   121 C52      -2.5826    2.6923   -3.5598   C.3       1 RES1   0.0000
   122 C53      -3.5295    1.5128   -3.8221   C.3       1 RES1   0.0000
   123 C54      -4.9936    1.8869   -4.0733   C.3       1 RES1   0.0000
   124 C55      -5.8899    0.6483   -4.1954   C.3       1 RES1   0.0000
   125 C56      -6.1484   -0.0838   -2.8746   C.3       1 RES1   0.0000
   126 C57      -6.6753   -1.5053   -3.0929   C.3       1 RES1   0.0000
   127 C58      -6.7309   -2.3249   -1.8051   C.3       1 RES1   0.0000
   128 H59       3.3616    8.0480   -4.2586   H         1 RES1   0.0000
   129 H60       3.3977    8.2623   -2.5032   H         1 RES1   0.0000
   130 H61       3.1225    9.6442   -3.5599   H         1 RES1   0.0000
   131 H62       1.2121    7.2780   -3.2693   H         1 RES1   0.0000
   132 H63       0.9608    8.6848   -4.3012   H         1 RES1   0.0000
   133 H64       0.9881   10.1798   -2.3576   H         1 RES1   0.0000
   134 H65       1.2329    8.8324   -1.2628   H         1 RES1   0.0000
   135 H66      -1.1546    9.0147   -3.1425   H         1 RES1   0.0000
   136 H67      -1.1739    9.7503   -1.5439   H         1 RES1   0.0000
   137 H68      -0.5743    6.7912   -1.9236   H         1 RES1   0.0000
   138 H69      -2.2187    7.4039   -1.8113   H         1 RES1   0.0000
   139 H70      -1.8237    8.3654    0.3668   H         1 RES1   0.0000
   140 H71      -0.1280    7.9543    0.3287   H         1 RES1   0.0000
   141 H72      -1.8217    5.5782   -0.1319   H         1 RES1   0.0000
   142 H73      -2.2567    6.3892    1.3655   H         1 RES1   0.0000
   143 H74      -0.6703    4.7678    2.0147   H         1 RES1   0.0000
   144 H75       0.1985    6.3137    2.0323   H         1 RES1   0.0000
   145 H76       1.8752    6.6862    0.7624   H         1 RES1   0.0000
   146 H77       1.2877    6.5320   -0.8855   H         1 RES1   0.0000
   147 H78       2.6060    5.4940   -0.2966   H         1 RES1   0.0000
   148 H79       1.6541    4.2103   -1.6366   H         1 RES1   0.0000
   149 H80       3.3922    2.6837   -1.6800   H         1 RES1   0.0000
   150 H81       2.3036    1.3324   -1.3039   H         1 RES1   0.0000
   151 H82       3.3284    3.2024    0.8661   H         1 RES1   0.0000
   152 H83       4.2388    1.7779    0.2842   H         1 RES1   0.0000
   153 H84       3.2092    1.9436    3.0435   H         1 RES1   0.0000
   154 H85       4.1665    0.7236    2.1865   H         1 RES1   0.0000
   155 H86       2.2619   -0.8803    2.4140   H         1 RES1   0.0000
   156 H87       1.3987    0.3017    3.4080   H         1 RES1   0.0000
   157 H88       4.1850   -0.6915    4.1865   H         1 RES1   0.0000
   158 H89       2.7355   -1.6067    4.5776   H         1 RES1   0.0000
   159 H90       3.1215   -0.4314    6.5161   H         1 RES1   0.0000
   160 H91       1.8534    0.5105    5.7412   H         1 RES1   0.0000
   161 H92       3.5691    2.1817    5.0136   H         1 RES1   0.0000
   162 H93       4.8457    1.1597    5.6816   H         1 RES1   0.0000
   163 H94       2.5791    2.4425    7.2875   H         1 RES1   0.0000
   164 H95       4.2558    2.9970    7.2416   H         1 RES1   0.0000
   165 H96       3.8655    1.4462    7.9615   H         1 RES1   0.0000
   166 H97       0.3471    4.9258   -3.7149   H         1 RES1   0.0000
   167 H98       0.5814    3.6235   -4.8874   H         1 RES1   0.0000
   168 H99       1.7370    3.8320   -3.6007   H         1 RES1   0.0000
   169 H100     -0.8994    2.1047   -4.7564   H         1 RES1   0.0000
   170 H101     -1.1108    1.1837   -3.2402   H         1 RES1   0.0000
   171 H102     -2.7817    3.4963   -4.2679   H         1 RES1   0.0000
   172 H103     -2.7209    3.0825   -2.5504   H         1 RES1   0.0000
   173 H104     -3.4497    0.8357   -2.9690   H         1 RES1   0.0000
   174 H105     -3.1731    0.9740   -4.7045   H         1 RES1   0.0000
   175 H106     -5.0567    2.4448   -5.0099   H         1 RES1   0.0000
   176 H107     -5.3740    2.5362   -3.2852   H         1 RES1   0.0000
   177 H108     -5.4292   -0.0395   -4.9051   H         1 RES1   0.0000
   178 H109     -6.8496    0.9477   -4.6145   H         1 RES1   0.0000
   179 H110     -6.8864    0.4660   -2.2862   H         1 RES1   0.0000
   180 H111     -5.2238   -0.1326   -2.2942   H         1 RES1   0.0000
   181 H112     -6.0377   -2.0228   -3.8132   H         1 RES1   0.0000
   182 H113     -7.6739   -1.4623   -3.5285   H         1 RES1   0.0000
   183 H114     -5.7619   -2.3222   -1.3023   H         1 RES1   0.0000
   184 H115     -6.9907   -3.3573   -2.0298   H         1 RES1   0.0000
   185 H116     -7.4830   -1.9327   -1.1229   H         1 RES1   0.0000
   186 C59       5.6171   -5.8403   -3.7125   C.3       1 RES1   0.0000
   187 C60       5.9026   -4.3472   -3.8061   C.3       1 RES1   0.0000
   188 C61       7.1891   -3.9593   -3.0783   C.3       1 RES1   0.0000
   189 C62       7.4355   -2.4482   -3.0619   C.3       1 RES1   0.0000
   190 C63       6.5087   -1.6499   -2.1330   C.3       1 RES1   0.0000
   191 C64       6.9368   -1.6903   -0.6624   C.3       1 RES1   0.0000
   192 C65       5.9039   -1.0695    0.2914   C.3       1 RES1   0.0000
   193 C66       4.8948   -2.0398    0.9185   C.3       1 RES1   0.0000
   194 N5        4.0065   -2.6439   -0.0678   N.am      1 RES1   0.0000
   195 C67       4.4192   -3.9715   -0.4843   C.3       1 RES1   0.0000
   196 C68       2.9146   -1.9980   -0.4720   C.2       1 RES1   0.0000
   197 O7        2.4669   -0.9813    0.0891   O.2       1 RES1   0.0000
   198 C69       2.2139   -2.5534   -1.7117   C.3       1 RES1   0.0000
   199 C70       1.0410   -3.4805   -1.2936   C.3       1 RES1   0.0000
   200 C71       0.9730   -3.8886    0.1792   C.3       1 RES1   0.0000
   201 O8        0.5342   -2.8061    1.0013   O.3       1 RES1   0.0000
   202 C72      -0.2309   -3.2428    2.1323   C.3       1 RES1   0.0000
   203 C73       0.5713   -3.7721    3.3165   C.3       1 RES1   0.0000
   204 C74      -0.3349   -3.8093    4.5524   C.3       1 RES1   0.0000
   205 C75       0.4068   -3.9055    5.8866   C.3       1 RES1   0.0000
   206 C76       0.9930   -5.2864    6.1846   C.3       1 RES1   0.0000
   207 C77       1.2601   -5.4848    7.6747   C.3       1 RES1   0.0000
   208 C78       1.6084   -1.4110   -2.5404   C.2       1 RES1   0.0000
   209 O9        0.7927   -0.6426   -1.9879   O.2       1 RES1   0.0000
   210 N6        1.9252   -1.3219   -3.8356   N.am      1 RES1   0.0000
   211 C79       2.9504   -2.1446   -4.4576   C.3       1 RES1   0.0000
   212 C80       1.0523   -0.6059   -4.7737   C.3       1 RES1   0.0000
   213 C81       1.6827    0.4543   -5.6878   C.3       1 RES1   0.0000
   214 C82       0.6303    0.9494   -6.7005   C.3       1 RES1   0.0000
   215 C83       0.9548    2.2693   -7.4164   C.3       1 RES1   0.0000
   216 C84      -0.3074    3.0015   -7.9457   C.3       1 RES1   0.0000
   217 C85      -0.6817    4.1930   -7.0553   C.3       1 RES1   0.0000
   218 C86      -1.8987    5.0145   -7.4805   C.3       1 RES1   0.0000
   219 C87      -2.2208    6.0815   -6.4329   C.3       1 RES1   0.0000
   220 H117      4.7049   -6.0916   -4.2495   H         1 RES1   0.0000
   221 H118      5.5010   -6.1501   -2.6754   H         1 RES1   0.0000
   222 H119      6.4329   -6.4119   -4.1449   H         1 RES1   0.0000
   223 H120      5.0546   -3.7995   -3.3865   H         1 RES1   0.0000
   224 H121      5.9918   -4.0593   -4.8549   H         1 RES1   0.0000
   225 H122      8.0243   -4.4359   -3.5912   H         1 RES1   0.0000
   226 H123      7.1860   -4.3468   -2.0566   H         1 RES1   0.0000
   227 H124      7.3143   -2.0730   -4.0809   H         1 RES1   0.0000
   228 H125      8.4700   -2.2617   -2.7668   H         1 RES1   0.0000
   229 H126      5.4783   -2.0012   -2.2415   H         1 RES1   0.0000
   230 H127      6.5226   -0.6040   -2.4523   H         1 RES1   0.0000
   231 H128      7.8619   -1.1176   -0.5821   H         1 RES1   0.0000
   232 H129      7.1654   -2.7073   -0.3463   H         1 RES1   0.0000
   233 H130      5.3544   -0.2914   -0.2412   H         1 RES1   0.0000
   234 H131      6.4343   -0.5953    1.1189   H         1 RES1   0.0000
   235 H132      4.2806   -1.5049    1.6426   H         1 RES1   0.0000
   236 H133      5.4279   -2.8349    1.4391   H         1 RES1   0.0000
   237 H134      5.3332   -3.9186   -1.0731   H         1 RES1   0.0000
   238 H135      3.6725   -4.5132   -1.0549   H         1 RES1   0.0000
   239 H136      4.6270   -4.5588    0.4098   H         1 RES1   0.0000
   240 H137      2.9353   -3.1027   -2.3041   H         1 RES1   0.0000
   241 H138      1.0789   -4.3953   -1.8876   H         1 RES1   0.0000
   242 H139      0.1021   -2.9681   -1.5079   H         1 RES1   0.0000
   243 H140      1.9360   -4.2755    0.5348   H         1 RES1   0.0000
   244 H141      0.2357   -4.7008    0.2413   H         1 RES1   0.0000
   245 H142     -0.9744   -3.9823    1.8008   H         1 RES1   0.0000
   246 H143     -0.7498   -2.3431    2.4644   H         1 RES1   0.0000
   247 H144      1.4023   -3.0888    3.4940   H         1 RES1   0.0000
   248 H145      0.9778   -4.7595    3.1068   H         1 RES1   0.0000
   249 H146     -1.0307   -4.6481    4.4765   H         1 RES1   0.0000
   250 H147     -0.9259   -2.8871    4.5627   H         1 RES1   0.0000
   251 H148     -0.3027   -3.6646    6.6790   H         1 RES1   0.0000
   252 H149      1.1940   -3.1511    5.9177   H         1 RES1   0.0000
   253 H150      1.9219   -5.4263    5.6314   H         1 RES1   0.0000
   254 H151      0.2903   -6.0534    5.8519   H         1 RES1   0.0000
   255 H152      1.9222   -4.7148    8.0608   H         1 RES1   0.0000
   256 H153      1.7241   -6.4520    7.8493   H         1 RES1   0.0000
   257 H154      0.3294   -5.4488    8.2347   H         1 RES1   0.0000
   258 H155      3.9142   -1.9817   -3.9769   H         1 RES1   0.0000
   259 H156      3.0596   -1.8493   -5.4960   H         1 RES1   0.0000
   260 H157      2.6913   -3.2038   -4.4350   H         1 RES1   0.0000
   261 H158      0.5986   -1.3755   -5.4047   H         1 RES1   0.0000
   262 H159      0.2751   -0.1369   -4.1737   H         1 RES1   0.0000
   263 H160      2.5293    0.0434   -6.2374   H         1 RES1   0.0000
   264 H161      2.0447    1.2914   -5.0886   H         1 RES1   0.0000
   265 H162     -0.3147    1.0758   -6.1773   H         1 RES1   0.0000
   266 H163      0.4686    0.1772   -7.4494   H         1 RES1   0.0000
   267 H164      1.6301    2.0657   -8.2459   H         1 RES1   0.0000
   268 H165      1.4892    2.9345   -6.7332   H         1 RES1   0.0000
   269 H166     -1.1484    2.3064   -8.0159   H         1 RES1   0.0000
   270 H167     -0.1242    3.3677   -8.9545   H         1 RES1   0.0000
   271 H168      0.1824    4.8634   -7.0027   H         1 RES1   0.0000
   272 H169     -0.8951    3.8183   -6.0516   H         1 RES1   0.0000
   273 H170     -2.7610    4.3580   -7.6003   H         1 RES1   0.0000
   274 H171     -1.7074    5.4987   -8.4375   H         1 RES1   0.0000
   275 H172     -2.4617    5.6296   -5.4678   H         1 RES1   0.0000
   276 H173     -3.0726    6.6755   -6.7548   H         1 RES1   0.0000
   277 H174     -1.3771    6.7575   -6.2911   H         1 RES1   0.0000
@<TRIPOS>BOND
     1     1    13    1
     2     1    17    1
     3     1    25    1
     4     1   105    1
     5     1   109    1
     6     1   117    1
     7     1   197    1
     8     1   201    1
     9     1   209    1
    10     2     3    1
    11     2    36    1
    12     2    37    1
    13     2    38    1
    14     3     4    1
    15     3    39    1
    16     3    40    1
    17     4     5    1
    18     4    41    1
    19     4    42    1
    20     5     6    1
    21     5    43    1
    22     5    44    1
    23     6     7    1
    24     6    45    1
    25     6    46    1
    26     7     8    1
    27     7    47    1
    28     7    48    1
    29     8     9    1
    30     8    49    1
    31     8    50    1
    32     9    10    1
    33     9    51    1
    34     9    52    1
    35    10    11    1
    36    10    12    1
    37    11    53    1
    38    11    54    1
    39    11    55    1
    40    12    13    2
    41    12    14    1
    42    14    15    1
    43    14    24    1
    44    14    56    1
    45    15    16    1
    46    15    57    1
    47    15    58    1
    48    16    17    1
    49    16    59    1
    50    16    60    1
    51    17    18    1
    52    18    19    1
    53    18    61    1
    54    18    62    1
    55    19    20    1
    56    19    63    1
    57    19    64    1
    58    20    21    1
    59    20    65    1
    60    20    66    1
    61    21    22    1
    62    21    67    1
    63    21    68    1
    64    22    23    1
    65    22    69    1
    66    22    70    1
    67    23    71    1
    68    23    72    1
    69    23    73    1
    70    24    25    2
    71    24    26    1
    72    26    27    1
    73    26    28    1
    74    27    74    1
    75    27    75    1
    76    27    76    1
    77    28    29    1
    78    28    77    1
    79    28    78    1
    80    29    30    1
    81    29    79    1
    82    29    80    1
    83    30    31    1
    84    30    81    1
    85    30    82    1
    86    31    32    1
    87    31    83    1
    88    31    84    1
    89    32    33    1
    90    32    85    1
    91    32    86    1
    92    33    34    1
    93    33    87    1
    94    33    88    1
    95    34    35    1
    96    34    89    1
    97    34    90    1
    98    35    91    1
    99    35    92    1
   100    35    93    1
   101    94    95    1
   102    94   128    1
   103    94   129    1
   104    94   130    1
   105    95    96    1
   106    95   131    1
   107    95   132    1
   108    96    97    1
   109    96   133    1
   110    96   134    1
   111    97    98    1
   112    97   135    1
   113    97   136    1
   114    98    99    1
   115    98   137    1
   116    98   138    1
   117    99   100    1
   118    99   139    1
   119    99   140    1
   120   100   101    1
   121   100   141    1
   122   100   142    1
   123   101   102    1
   124   101   143    1
   125   101   144    1
   126   102   103    1
   127   102   104    1
   128   103   145    1
   129   103   146    1
   130   103   147    1
   131   104   105    2
   132   104   106    1
   133   106   107    1
   134   106   116    1
   135   106   148    1
   136   107   108    1
   137   107   149    1
   138   107   150    1
   139   108   109    1
   140   108   151    1
   141   108   152    1
   142   109   110    1
   143   110   111    1
   144   110   153    1
   145   110   154    1
   146   111   112    1
   147   111   155    1
   148   111   156    1
   149   112   113    1
   150   112   157    1
   151   112   158    1
   152   113   114    1
   153   113   159    1
   154   113   160    1
   155   114   115    1
   156   114   161    1
   157   114   162    1
   158   115   163    1
   159   115   164    1
   160   115   165    1
   161   116   117    2
   162   116   118    1
   163   118   119    1
   164   118   120    1
   165   119   166    1
   166   119   167    1
   167   119   168    1
   168   120   121    1
   169   120   169    1
   170   120   170    1
   171   121   122    1
   172   121   171    1
   173   121   172    1
   174   122   123    1
   175   122   173    1
   176   122   174    1
   177   123   124    1
   178   123   175    1
   179   123   176    1
   180   124   125    1
   181   124   177    1
   182   124   178    1
   183   125   126    1
   184   125   179    1
   185   125   180    1
   186   126   127    1
   187   126   181    1
   188   126   182    1
   189   127   183    1
   190   127   184    1
   191   127   185    1
   192   186   187    1
   193   186   220    1
   194   186   221    1
   195   186   222    1
   196   187   188    1
   197   187   223    1
   198   187   224    1
   199   188   189    1
   200   188   225    1
   201   188   226    1
   202   189   190    1
   203   189   227    1
   204   189   228    1
   205   190   191    1
   206   190   229    1
   207   190   230    1
   208   191   192    1
   209   191   231    1
   210   191   232    1
   211   192   193    1
   212   192   233    1
   213   192   234    1
   214   193   194    1
   215   193   235    1
   216   193   236    1
   217   194   195    1
   218   194   196    1
   219   195   237    1
   220   195   238    1
   221   195   239    1
   222   196   197    2
   223   196   198    1
   224   198   199    1
   225   198   208    1
   226   198   240    1
   227   199   200    1
   228   199   241    1
   229   199   242    1
   230   200   201    1
   231   200   243    1
   232   200   244    1
   233   201   202    1
   234   202   203    1
   235   202   245    1
   236   202   246    1
   237   203   204    1
   238   203   247    1
   239   203   248    1
   240   204   205    1
   241   204   249    1
   242   204   250    1
   243   205   206    1
   244   205   251    1
   245   205   252    1
   246   206   207    1
   247   206   253    1
   248   206   254    1
   249   207   255    1
   250   207   256    1
   251   207   257    1
   252   208   209    2
   253   208   210    1
   254   210   211    1
   255   210   212    1
   256   211   258    1
   257   211   259    1
   258   211   260    1
   259   212   213    1
   260   212   261    1
   261   212   262    1
   262   213   214    1
   263   213   263    1
   264   213   264    1
   265   214   215    1
   266   214   265    1
   267   214   266    1
   268   215   216    1
   269   215   267    1
   270   215   268    1
   271   216   217    1
   272   216   269    1
   273   216   270    1
   274   217   218    1
   275   217   271    1
   276   217   272    1
   277   218   219    1
   278   218   273    1
   279   218   274    1
   280   219   275    1
   281   219   276    1
   282   219   277    1
@<TRIPOS>SUBSTRUCTURE
     1 RES1      277 GROUP             0 ****  ****    0  
