@<TRIPOS>MOLECULE
cn9_YICLED_0_nunpairedes_0_charge_3 Charge: 3 Unpaired_Electrons: 7 XTB_Unpaired_Electrons: 0 XTB_Charge: 3
   340   345     1     0     0
SMALL
NoCharges
****
Generated from Architector

@<TRIPOS>ATOM
     1 Gd1      -0.0862   -0.3233    0.0979   Gd        1 RES1   0.0000
     2 C1       -2.4244    6.4091    1.2909   C.3       1 RES1   0.0000
     3 C2       -1.1721    6.5129    2.1514   C.3       1 RES1   0.0000
     4 C3       -0.2733    5.2979    1.9529   C.3       1 RES1   0.0000
     5 C4        0.9742    5.3078    2.8352   C.3       1 RES1   0.0000
     6 C5        1.7975    4.0245    2.6671   C.3       1 RES1   0.0000
     7 C6        1.4447    2.8878    3.6277   C.3       1 RES1   0.0000
     8 N1        0.0636    2.4271    3.6474   N.am      1 RES1   0.0000
     9 C7       -0.8091    2.9882    4.6708   C.3       1 RES1   0.0000
    10 C8       -0.7330    2.2885    6.0296   C.3       1 RES1   0.0000
    11 C9       -1.5621    3.0129    7.1051   C.3       1 RES1   0.0000
    12 C10      -1.4854    2.2113    8.4060   C.3       1 RES1   0.0000
    13 C11      -3.0264    3.2248    6.6711   C.3       1 RES1   0.0000
    14 C12      -3.3065    4.6280    6.1198   C.3       1 RES1   0.0000
    15 C13      -4.6913    4.7267    5.4775   C.3       1 RES1   0.0000
    16 C14      -4.8881    5.9778    4.6117   C.3       1 RES1   0.0000
    17 C15      -6.2547    5.9328    3.9304   C.3       1 RES1   0.0000
    18 C16      -4.7676    7.2667    5.4176   C.3       1 RES1   0.0000
    19 C17      -0.3086    1.4886    2.7887   C.2       1 RES1   0.0000
    20 O1        0.3668    1.1872    1.7811   O.2       1 RES1   0.0000
    21 C18      -1.5931    0.7134    3.1023   C.3       1 RES1   0.0000
    22 O2       -1.6860   -0.4041    2.2361   O.3       1 RES1   0.0000
    23 C19      -2.1066   -1.6494    2.8023   C.3       1 RES1   0.0000
    24 C20      -1.2657   -2.7244    2.0944   C.2       1 RES1   0.0000
    25 O3       -0.4964   -2.3253    1.2031   O.2       1 RES1   0.0000
    26 N2       -1.3152   -3.9886    2.4814   N.am      1 RES1   0.0000
    27 C21      -2.3658   -4.5335    3.3231   C.3       1 RES1   0.0000
    28 C22      -3.4959   -5.2070    2.5208   C.3       1 RES1   0.0000
    29 C23      -3.2989   -6.7043    2.2692   C.3       1 RES1   0.0000
    30 C24      -4.5198   -7.3381    1.5920   C.3       1 RES1   0.0000
    31 C25      -4.7229   -6.9513    0.1242   C.3       1 RES1   0.0000
    32 C26      -3.6808   -7.5359   -0.8244   C.3       1 RES1   0.0000
    33 C27      -0.2568   -4.8865    2.0078   C.3       1 RES1   0.0000
    34 C28      -0.3200   -5.1620    0.5058   C.3       1 RES1   0.0000
    35 C29       0.5924   -6.3009    0.0369   C.3       1 RES1   0.0000
    36 C30       0.4346   -6.4655   -1.4768   C.3       1 RES1   0.0000
    37 C31       2.0683   -6.0772    0.4135   C.3       1 RES1   0.0000
    38 C32       2.4834   -6.8928    1.6361   C.3       1 RES1   0.0000
    39 C33       3.9584   -6.7073    1.9706   C.3       1 RES1   0.0000
    40 C34       4.4103   -7.4260    3.2496   C.3       1 RES1   0.0000
    41 C35       3.6682   -6.9186    4.4860   C.3       1 RES1   0.0000
    42 C36       4.2681   -8.9407    3.1348   C.3       1 RES1   0.0000
    43 H1       -3.0658    7.2720    1.4378   H         1 RES1   0.0000
    44 H2       -2.9884    5.5112    1.5375   H         1 RES1   0.0000
    45 H3       -2.1620    6.3644    0.2371   H         1 RES1   0.0000
    46 H4       -1.4585    6.5957    3.1997   H         1 RES1   0.0000
    47 H5       -0.6275    7.4172    1.8854   H         1 RES1   0.0000
    48 H6        0.0411    5.2682    0.9080   H         1 RES1   0.0000
    49 H7       -0.8518    4.3915    2.1400   H         1 RES1   0.0000
    50 H8        0.6996    5.4460    3.8820   H         1 RES1   0.0000
    51 H9        1.5925    6.1674    2.5683   H         1 RES1   0.0000
    52 H10       2.8517    4.2479    2.8466   H         1 RES1   0.0000
    53 H11       1.7080    3.6597    1.6427   H         1 RES1   0.0000
    54 H12       1.6969    3.1845    4.6453   H         1 RES1   0.0000
    55 H13       2.0522    2.0194    3.3556   H         1 RES1   0.0000
    56 H14      -1.8333    2.9940    4.2981   H         1 RES1   0.0000
    57 H15      -0.5078    4.0275    4.8057   H         1 RES1   0.0000
    58 H16       0.3077    2.2497    6.3555   H         1 RES1   0.0000
    59 H17      -1.0934    1.2620    5.9455   H         1 RES1   0.0000
    60 H18      -1.1073    3.9924    7.2812   H         1 RES1   0.0000
    61 H19      -1.9836    1.2482    8.3010   H         1 RES1   0.0000
    62 H20      -1.9678    2.7611    9.2081   H         1 RES1   0.0000
    63 H21      -0.4510    2.0395    8.6977   H         1 RES1   0.0000
    64 H22      -3.6719    3.0660    7.5351   H         1 RES1   0.0000
    65 H23      -3.3020    2.4668    5.9306   H         1 RES1   0.0000
    66 H24      -2.5550    4.8999    5.3770   H         1 RES1   0.0000
    67 H25      -3.2250    5.3400    6.9402   H         1 RES1   0.0000
    68 H26      -5.4552    4.7046    6.2545   H         1 RES1   0.0000
    69 H27      -4.8483    3.8469    4.8434   H         1 RES1   0.0000
    70 H28      -4.1167    5.9818    3.8317   H         1 RES1   0.0000
    71 H29      -7.0499    5.9497    4.6698   H         1 RES1   0.0000
    72 H30      -6.3717    5.0340    3.3275   H         1 RES1   0.0000
    73 H31      -6.3833    6.7960    3.2829   H         1 RES1   0.0000
    74 H32      -5.4734    7.2677    6.2435   H         1 RES1   0.0000
    75 H33      -4.9900    8.1216    4.7841   H         1 RES1   0.0000
    76 H34      -3.7663    7.3980    5.8177   H         1 RES1   0.0000
    77 H35      -2.4610    1.3711    2.9570   H         1 RES1   0.0000
    78 H36      -1.5609    0.3975    4.1482   H         1 RES1   0.0000
    79 H37      -3.1794   -1.7941    2.6330   H         1 RES1   0.0000
    80 H38      -1.9033   -1.6845    3.8790   H         1 RES1   0.0000
    81 H39      -2.7890   -3.7318    3.9246   H         1 RES1   0.0000
    82 H40      -1.9235   -5.2598    4.0065   H         1 RES1   0.0000
    83 H41      -3.6110   -4.6843    1.5696   H         1 RES1   0.0000
    84 H42      -4.4225   -5.0831    3.0850   H         1 RES1   0.0000
    85 H43      -3.1475   -7.2066    3.2280   H         1 RES1   0.0000
    86 H44      -2.4128   -6.8776    1.6593   H         1 RES1   0.0000
    87 H45      -5.4133   -7.0506    2.1526   H         1 RES1   0.0000
    88 H46      -4.4303   -8.4244    1.6528   H         1 RES1   0.0000
    89 H47      -4.7406   -5.8628    0.0295   H         1 RES1   0.0000
    90 H48      -5.7038   -7.3185   -0.1820   H         1 RES1   0.0000
    91 H49      -2.6885   -7.1369   -0.6247   H         1 RES1   0.0000
    92 H50      -3.9451   -7.2983   -1.8532   H         1 RES1   0.0000
    93 H51      -3.6417   -8.6176   -0.7238   H         1 RES1   0.0000
    94 H52      -0.3506   -5.8156    2.5695   H         1 RES1   0.0000
    95 H53       0.6983   -4.4112    2.2505   H         1 RES1   0.0000
    96 H54      -0.0488   -4.2515   -0.0315   H         1 RES1   0.0000
    97 H55      -1.3486   -5.4146    0.2496   H         1 RES1   0.0000
    98 H56       0.2501   -7.2275    0.5066   H         1 RES1   0.0000
    99 H57       0.7581   -5.5661   -1.9998   H         1 RES1   0.0000
   100 H58      -0.6013   -6.6671   -1.7442   H         1 RES1   0.0000
   101 H59       1.0360   -7.2956   -1.8358   H         1 RES1   0.0000
   102 H60       2.2467   -5.0134    0.5918   H         1 RES1   0.0000
   103 H61       2.7023   -6.3727   -0.4233   H         1 RES1   0.0000
   104 H62       2.2867   -7.9423    1.4298   H         1 RES1   0.0000
   105 H63       1.8854   -6.5968    2.4951   H         1 RES1   0.0000
   106 H64       4.1530   -5.6375    2.0802   H         1 RES1   0.0000
   107 H65       4.5675   -7.0678    1.1397   H         1 RES1   0.0000
   108 H66       5.4747   -7.2030    3.3811   H         1 RES1   0.0000
   109 H67       2.6549   -7.3134    4.5168   H         1 RES1   0.0000
   110 H68       3.6174   -5.8300    4.4949   H         1 RES1   0.0000
   111 H69       4.1777   -7.2453    5.3892   H         1 RES1   0.0000
   112 H70       3.2216   -9.2303    3.0801   H         1 RES1   0.0000
   113 H71       4.7036   -9.4240    4.0057   H         1 RES1   0.0000
   114 H72       4.7791   -9.3090    2.2488   H         1 RES1   0.0000
   115 C37       6.2776   -2.9536   -4.1636   C.3       1 RES1   0.0000
   116 C38       6.3818   -1.4575   -4.4492   C.3       1 RES1   0.0000
   117 C39       5.1909   -0.7139   -3.8451   C.3       1 RES1   0.0000
   118 C40       5.1832    0.7902   -4.1175   C.3       1 RES1   0.0000
   119 C41       4.2434    1.6036   -3.2113   C.3       1 RES1   0.0000
   120 C42       2.7750    1.6463   -3.6344   C.3       1 RES1   0.0000
   121 N3        1.9996    2.6435   -2.8807   N.am      1 RES1   0.0000
   122 C43       2.2950    4.0372   -3.2477   C.3       1 RES1   0.0000
   123 C44       2.6314    5.0735   -2.1565   C.3       1 RES1   0.0000
   124 C45       3.6995    4.7026   -1.1081   C.3       1 RES1   0.0000
   125 C46       3.5339    5.6059    0.1195   C.3       1 RES1   0.0000
   126 C47       5.1282    4.8530   -1.6628   C.3       1 RES1   0.0000
   127 C48       6.1866    4.2312   -0.7469   C.3       1 RES1   0.0000
   128 C49       7.6456    4.4175   -1.1903   C.3       1 RES1   0.0000
   129 C50       8.2773    3.3550   -2.1083   C.3       1 RES1   0.0000
   130 C51       7.8307    3.4739   -3.5642   C.3       1 RES1   0.0000
   131 C52       8.0767    1.9317   -1.5866   C.3       1 RES1   0.0000
   132 C53       0.9402    2.2381   -2.1802   C.2       1 RES1   0.0000
   133 O4        0.6105    1.0404   -2.0441   O.2       1 RES1   0.0000
   134 C54       0.0555    3.2574   -1.4618   C.3       1 RES1   0.0000
   135 O5       -0.9606    2.5674   -0.7521   O.3       1 RES1   0.0000
   136 C55      -2.2194    2.4656   -1.4174   C.3       1 RES1   0.0000
   137 C56      -2.9686    1.3972   -0.6156   C.2       1 RES1   0.0000
   138 O6       -2.2816    0.4005   -0.2829   O.2       1 RES1   0.0000
   139 N4       -4.2250    1.5524   -0.2271   N.am      1 RES1   0.0000
   140 C57      -4.7283    0.6474    0.8137   C.3       1 RES1   0.0000
   141 C58      -5.6579    1.2770    1.8562   C.3       1 RES1   0.0000
   142 C59      -6.0276    0.2474    2.9431   C.3       1 RES1   0.0000
   143 C60      -5.0798    0.3160    4.1425   C.3       1 RES1   0.0000
   144 C61      -5.1040   -0.9081    5.0569   C.3       1 RES1   0.0000
   145 C62      -4.0589   -0.7653    6.1590   C.3       1 RES1   0.0000
   146 C63      -5.1729    2.5222   -0.7725   C.3       1 RES1   0.0000
   147 C64      -6.4697    1.9118   -1.3635   C.3       1 RES1   0.0000
   148 C65      -6.6328    1.8237   -2.9066   C.3       1 RES1   0.0000
   149 C66      -5.8348    2.8769   -3.6722   C.3       1 RES1   0.0000
   150 C67      -6.3671    0.4212   -3.4914   C.3       1 RES1   0.0000
   151 C68      -7.2947    0.1316   -4.6808   C.3       1 RES1   0.0000
   152 C69      -6.7950   -0.9291   -5.6701   C.3       1 RES1   0.0000
   153 C70      -6.6571   -2.3672   -5.1545   C.3       1 RES1   0.0000
   154 C71      -5.9281   -3.2262   -6.1895   C.3       1 RES1   0.0000
   155 C72      -8.0035   -3.0140   -4.8374   C.3       1 RES1   0.0000
   156 H73       7.1578   -3.4725   -4.5336   H         1 RES1   0.0000
   157 H74       6.1980   -3.1378   -3.0916   H         1 RES1   0.0000
   158 H75       5.4017   -3.3776   -4.6520   H         1 RES1   0.0000
   159 H76       7.3043   -1.0664   -4.0221   H         1 RES1   0.0000
   160 H77       6.4165   -1.2877   -5.5259   H         1 RES1   0.0000
   161 H78       4.2879   -1.1675   -4.2571   H         1 RES1   0.0000
   162 H79       5.2142   -0.8789   -2.7634   H         1 RES1   0.0000
   163 H80       6.1972    1.1581   -3.9521   H         1 RES1   0.0000
   164 H81       4.9436    0.9712   -5.1667   H         1 RES1   0.0000
   165 H82       4.3130    1.2392   -2.1881   H         1 RES1   0.0000
   166 H83       4.6128    2.6264   -3.2037   H         1 RES1   0.0000
   167 H84       2.7130    1.9118   -4.6927   H         1 RES1   0.0000
   168 H85       2.2793    0.6879   -3.4853   H         1 RES1   0.0000
   169 H86       3.1409    3.9922   -3.9347   H         1 RES1   0.0000
   170 H87       1.4451    4.4298   -3.8198   H         1 RES1   0.0000
   171 H88       2.9832    5.9562   -2.6929   H         1 RES1   0.0000
   172 H89       1.7163    5.3701   -1.6458   H         1 RES1   0.0000
   173 H90       3.5242    3.6616   -0.7998   H         1 RES1   0.0000
   174 H91       3.7993    6.6322   -0.1225   H         1 RES1   0.0000
   175 H92       2.5094    5.6048    0.4827   H         1 RES1   0.0000
   176 H93       4.1858    5.2757    0.9253   H         1 RES1   0.0000
   177 H94       5.1859    4.4094   -2.6555   H         1 RES1   0.0000
   178 H95       5.3405    5.9168   -1.7822   H         1 RES1   0.0000
   179 H96       6.0959    4.6960    0.2358   H         1 RES1   0.0000
   180 H97       5.9729    3.1700   -0.6176   H         1 RES1   0.0000
   181 H98       7.7504    5.3901   -1.6698   H         1 RES1   0.0000
   182 H99       8.2528    4.4422   -0.2838   H         1 RES1   0.0000
   183 H100      9.3550    3.5511   -2.0925   H         1 RES1   0.0000
   184 H101      6.7566    3.3350   -3.6640   H         1 RES1   0.0000
   185 H102      8.0907    4.4535   -3.9564   H         1 RES1   0.0000
   186 H103      8.3336    2.7252   -4.1744   H         1 RES1   0.0000
   187 H104      7.0579    1.5866   -1.7501   H         1 RES1   0.0000
   188 H105      8.7485    1.2493   -2.0997   H         1 RES1   0.0000
   189 H106      8.2994    1.8798   -0.5234   H         1 RES1   0.0000
   190 H107      0.6367    3.7940   -0.7043   H         1 RES1   0.0000
   191 H108     -0.3725    3.9782   -2.1683   H         1 RES1   0.0000
   192 H109     -2.7091    3.4435   -1.4173   H         1 RES1   0.0000
   193 H110     -2.0905    2.1209   -2.4508   H         1 RES1   0.0000
   194 H111     -5.2702   -0.1660    0.3339   H         1 RES1   0.0000
   195 H112     -3.8517    0.2081    1.2920   H         1 RES1   0.0000
   196 H113     -5.1942    2.1433    2.3253   H         1 RES1   0.0000
   197 H114     -6.5673    1.6189    1.3689   H         1 RES1   0.0000
   198 H115     -7.0459    0.4324    3.2841   H         1 RES1   0.0000
   199 H116     -6.0155   -0.7561    2.5071   H         1 RES1   0.0000
   200 H117     -4.0612    0.4392    3.7732   H         1 RES1   0.0000
   201 H118     -5.3294    1.1985    4.7357   H         1 RES1   0.0000
   202 H119     -6.0884   -1.0098    5.5108   H         1 RES1   0.0000
   203 H120     -4.9156   -1.8163    4.4762   H         1 RES1   0.0000
   204 H121     -4.2243    0.1541    6.7150   H         1 RES1   0.0000
   205 H122     -4.1074   -1.5992    6.8530   H         1 RES1   0.0000
   206 H123     -3.0519   -0.7314    5.7408   H         1 RES1   0.0000
   207 H124     -5.4497    3.1930    0.0468   H         1 RES1   0.0000
   208 H125     -4.6789    3.1196   -1.5313   H         1 RES1   0.0000
   209 H126     -6.6321    0.9161   -0.9614   H         1 RES1   0.0000
   210 H127     -7.2846    2.5346   -0.9942   H         1 RES1   0.0000
   211 H128     -7.6939    2.0237   -3.0795   H         1 RES1   0.0000
   212 H129     -4.7652    2.6741   -3.6223   H         1 RES1   0.0000
   213 H130     -6.1174    2.8643   -4.7205   H         1 RES1   0.0000
   214 H131     -6.0274    3.8773   -3.2937   H         1 RES1   0.0000
   215 H132     -5.3243    0.3495   -3.8108   H         1 RES1   0.0000
   216 H133     -6.5424   -0.3330   -2.7240   H         1 RES1   0.0000
   217 H134     -8.2774   -0.1442   -4.2985   H         1 RES1   0.0000
   218 H135     -7.4209    1.0543   -5.2496   H         1 RES1   0.0000
   219 H136     -7.4848   -0.9358   -6.5149   H         1 RES1   0.0000
   220 H137     -5.8233   -0.6071   -6.0557   H         1 RES1   0.0000
   221 H138     -6.0466   -2.3502   -4.2473   H         1 RES1   0.0000
   222 H139     -6.4784   -3.2474   -7.1264   H         1 RES1   0.0000
   223 H140     -4.9303   -2.8398   -6.3902   H         1 RES1   0.0000
   224 H141     -5.8352   -4.2488   -5.8299   H         1 RES1   0.0000
   225 H142     -7.8558   -4.0501   -4.5407   H         1 RES1   0.0000
   226 H143     -8.5234   -2.5019   -4.0315   H         1 RES1   0.0000
   227 H144     -8.6462   -3.0080   -5.7135   H         1 RES1   0.0000
   228 C73      -1.8852    1.2185   -5.6996   C.3       1 RES1   0.0000
   229 C74      -1.9172    0.4152   -6.9967   C.3       1 RES1   0.0000
   230 C75      -0.5834   -0.1846   -7.4509   C.3       1 RES1   0.0000
   231 C76      -0.0737   -1.3546   -6.5930   C.3       1 RES1   0.0000
   232 C77       0.8884   -0.9135   -5.4861   C.3       1 RES1   0.0000
   233 C78       1.4819   -2.0656   -4.6491   C.3       1 RES1   0.0000
   234 N5        0.7100   -2.3108   -3.4448   N.am      1 RES1   0.0000
   235 C79      -0.5527   -3.0489   -3.6032   C.3       1 RES1   0.0000
   236 C80      -1.8135   -2.2171   -3.3388   C.3       1 RES1   0.0000
   237 C81      -2.9973   -2.9956   -2.7225   C.3       1 RES1   0.0000
   238 C82      -2.5648   -3.9542   -1.6278   C.3       1 RES1   0.0000
   239 C83      -3.9713   -1.9505   -2.1572   C.3       1 RES1   0.0000
   240 C84      -5.0208   -2.3724   -1.1190   C.3       1 RES1   0.0000
   241 C85      -6.0828   -3.4097   -1.4802   C.3       1 RES1   0.0000
   242 C86      -7.1087   -3.5647   -0.3419   C.3       1 RES1   0.0000
   243 C87      -8.0924   -4.6867   -0.6592   C.3       1 RES1   0.0000
   244 C88      -7.8927   -2.2737   -0.0904   C.3       1 RES1   0.0000
   245 C89       1.0257   -1.9148   -2.2166   C.2       1 RES1   0.0000
   246 O7        0.1947   -1.9953   -1.2892   O.2       1 RES1   0.0000
   247 C90       2.4395   -1.4778   -1.7922   C.3       1 RES1   0.0000
   248 O8        2.2943   -0.3495   -0.9173   O.3       1 RES1   0.0000
   249 C91       3.3690   -0.0631   -0.0287   C.3       1 RES1   0.0000
   250 C92       2.9695   -0.5777    1.3680   C.2       1 RES1   0.0000
   251 O9        1.8430   -1.0930    1.4598   O.2       1 RES1   0.0000
   252 N6        3.8341   -0.5205    2.3791   N.am      1 RES1   0.0000
   253 C93       5.0360    0.2988    2.3955   C.3       1 RES1   0.0000
   254 C94       5.0259    1.4869    3.3726   C.3       1 RES1   0.0000
   255 C95       5.2048    1.1381    4.8635   C.3       1 RES1   0.0000
   256 C96       3.8997    1.1820    5.6673   C.3       1 RES1   0.0000
   257 C97       4.0459    0.5497    7.0531   C.3       1 RES1   0.0000
   258 C98       2.7603    0.6612    7.8657   C.3       1 RES1   0.0000
   259 C99       3.6549   -1.5018    3.4485   C.3       1 RES1   0.0000
   260 C100      4.2577   -2.8601    3.0632   C.3       1 RES1   0.0000
   261 C101      5.7972   -2.8738    2.9447   C.3       1 RES1   0.0000
   262 C102      6.3921   -4.1563    3.5224   C.3       1 RES1   0.0000
   263 C103      6.2407   -2.6958    1.4818   C.3       1 RES1   0.0000
   264 C104      7.7487   -2.4938    1.2790   C.3       1 RES1   0.0000
   265 C105      8.2869   -1.2068    1.9045   C.3       1 RES1   0.0000
   266 C106      9.8044   -1.0233    1.7747   C.3       1 RES1   0.0000
   267 C107     10.1832    0.3578    2.3072   C.3       1 RES1   0.0000
   268 C108     10.5674   -2.0997    2.5408   C.3       1 RES1   0.0000
   269 H145     -2.8571    1.6857   -5.5536   H         1 RES1   0.0000
   270 H146     -1.6771    0.5893   -4.8357   H         1 RES1   0.0000
   271 H147     -1.1372    2.0069   -5.7532   H         1 RES1   0.0000
   272 H148     -2.6498   -0.3892   -6.9036   H         1 RES1   0.0000
   273 H149     -2.2661    1.0768   -7.7911   H         1 RES1   0.0000
   274 H150     -0.7320   -0.5487   -8.4690   H         1 RES1   0.0000
   275 H151      0.1760    0.5972   -7.5065   H         1 RES1   0.0000
   276 H152     -0.9329   -1.8754   -6.1712   H         1 RES1   0.0000
   277 H153      0.4535   -2.0583   -7.2415   H         1 RES1   0.0000
   278 H154      1.7129   -0.3883   -5.9696   H         1 RES1   0.0000
   279 H155      0.3924   -0.2198   -4.8056   H         1 RES1   0.0000
   280 H156      1.4971   -2.9857   -5.2350   H         1 RES1   0.0000
   281 H157      2.5108   -1.8343   -4.3787   H         1 RES1   0.0000
   282 H158     -0.5736   -3.4646   -4.6095   H         1 RES1   0.0000
   283 H159     -0.4997   -3.8811   -2.9009   H         1 RES1   0.0000
   284 H160     -1.5519   -1.4040   -2.6483   H         1 RES1   0.0000
   285 H161     -2.1558   -1.7602   -4.2679   H         1 RES1   0.0000
   286 H162     -3.4947   -3.5718   -3.5072   H         1 RES1   0.0000
   287 H163     -1.9946   -3.4125   -0.8751   H         1 RES1   0.0000
   288 H164     -3.4392   -4.4058   -1.1743   H         1 RES1   0.0000
   289 H165     -1.9764   -4.7713   -2.0301   H         1 RES1   0.0000
   290 H166     -3.3684   -1.1827   -1.6545   H         1 RES1   0.0000
   291 H167     -4.4792   -1.4718   -2.9925   H         1 RES1   0.0000
   292 H168     -4.5169   -2.6794   -0.1983   H         1 RES1   0.0000
   293 H169     -5.5682   -1.4569   -0.8968   H         1 RES1   0.0000
   294 H170     -6.6152   -3.0973   -2.3770   H         1 RES1   0.0000
   295 H171     -5.6278   -4.3804   -1.6846   H         1 RES1   0.0000
   296 H172     -6.5696   -3.8279    0.5768   H         1 RES1   0.0000
   297 H173     -8.6693   -4.4485   -1.5484   H         1 RES1   0.0000
   298 H174     -7.5733   -5.6252   -0.8254   H         1 RES1   0.0000
   299 H175     -8.7851   -4.8237    0.1666   H         1 RES1   0.0000
   300 H176     -8.2770   -1.8712   -1.0247   H         1 RES1   0.0000
   301 H177     -8.7366   -2.4773    0.5617   H         1 RES1   0.0000
   302 H178     -7.2904   -1.5085    0.3954   H         1 RES1   0.0000
   303 H179      2.8556   -2.3395   -1.2487   H         1 RES1   0.0000
   304 H180      3.1008   -1.2097   -2.6163   H         1 RES1   0.0000
   305 H181      4.3035   -0.5403   -0.3521   H         1 RES1   0.0000
   306 H182      3.4932    1.0262   -0.0198   H         1 RES1   0.0000
   307 H183      5.8836   -0.3271    2.6585   H         1 RES1   0.0000
   308 H184      5.2105    0.6900    1.3956   H         1 RES1   0.0000
   309 H185      5.8759    2.0992    3.0632   H         1 RES1   0.0000
   310 H186      4.1264    2.0872    3.2346   H         1 RES1   0.0000
   311 H187      5.6732    0.1565    4.9632   H         1 RES1   0.0000
   312 H188      5.8989    1.8482    5.3169   H         1 RES1   0.0000
   313 H189      3.6010    2.2268    5.7877   H         1 RES1   0.0000
   314 H190      3.1014    0.6654    5.1240   H         1 RES1   0.0000
   315 H191      4.3139   -0.5043    6.9437   H         1 RES1   0.0000
   316 H192      4.8546    1.0456    7.5914   H         1 RES1   0.0000
   317 H193      1.9339    0.1657    7.3577   H         1 RES1   0.0000
   318 H194      2.8916    0.1952    8.8377   H         1 RES1   0.0000
   319 H195      2.4995    1.7059    8.0225   H         1 RES1   0.0000
   320 H196      4.1311   -1.1406    4.3530   H         1 RES1   0.0000
   321 H197      2.5828   -1.6128    3.6296   H         1 RES1   0.0000
   322 H198      3.9593   -3.5608    3.8427   H         1 RES1   0.0000
   323 H199      3.8029   -3.2034    2.1311   H         1 RES1   0.0000
   324 H200      6.1885   -2.0630    3.5639   H         1 RES1   0.0000
   325 H201      6.1534   -5.0105    2.8988   H         1 RES1   0.0000
   326 H202      7.4730   -4.0737    3.5828   H         1 RES1   0.0000
   327 H203      6.0186   -4.3386    4.5268   H         1 RES1   0.0000
   328 H204      5.9423   -3.5943    0.9364   H         1 RES1   0.0000
   329 H205      5.7074   -1.8556    1.0266   H         1 RES1   0.0000
   330 H206      8.2787   -3.3530    1.6826   H         1 RES1   0.0000
   331 H207      7.9517   -2.4719    0.2054   H         1 RES1   0.0000
   332 H208      7.7976   -0.3513    1.4269   H         1 RES1   0.0000
   333 H209      8.0493   -1.1864    2.9705   H         1 RES1   0.0000
   334 H210     10.0769   -1.0785    0.7164   H         1 RES1   0.0000
   335 H211      9.9274    0.4396    3.3621   H         1 RES1   0.0000
   336 H212     11.2507    0.5247    2.2037   H         1 RES1   0.0000
   337 H213      9.6614    1.1431    1.7632   H         1 RES1   0.0000
   338 H214     10.2401   -2.1274    3.5787   H         1 RES1   0.0000
   339 H215     10.4187   -3.0812    2.0991   H         1 RES1   0.0000
   340 H216     11.6321   -1.8851    2.5240   H         1 RES1   0.0000
@<TRIPOS>BOND
     1     1    20    1
     2     1    22    1
     3     1    25    1
     4     1   133    1
     5     1   135    1
     6     1   138    1
     7     1   246    1
     8     1   248    1
     9     1   251    1
    10     2     3    1
    11     2    43    1
    12     2    44    1
    13     2    45    1
    14     3     4    1
    15     3    46    1
    16     3    47    1
    17     4     5    1
    18     4    48    1
    19     4    49    1
    20     5     6    1
    21     5    50    1
    22     5    51    1
    23     6     7    1
    24     6    52    1
    25     6    53    1
    26     7     8    1
    27     7    54    1
    28     7    55    1
    29     8     9    1
    30     8    19    1
    31     9    10    1
    32     9    56    1
    33     9    57    1
    34    10    11    1
    35    10    58    1
    36    10    59    1
    37    11    12    1
    38    11    13    1
    39    11    60    1
    40    12    61    1
    41    12    62    1
    42    12    63    1
    43    13    14    1
    44    13    64    1
    45    13    65    1
    46    14    15    1
    47    14    66    1
    48    14    67    1
    49    15    16    1
    50    15    68    1
    51    15    69    1
    52    16    17    1
    53    16    18    1
    54    16    70    1
    55    17    71    1
    56    17    72    1
    57    17    73    1
    58    18    74    1
    59    18    75    1
    60    18    76    1
    61    19    20    2
    62    19    21    1
    63    21    22    1
    64    21    77    1
    65    21    78    1
    66    22    23    1
    67    23    24    1
    68    23    79    1
    69    23    80    1
    70    24    25    2
    71    24    26    1
    72    26    27    1
    73    26    33    1
    74    27    28    1
    75    27    81    1
    76    27    82    1
    77    28    29    1
    78    28    83    1
    79    28    84    1
    80    29    30    1
    81    29    85    1
    82    29    86    1
    83    30    31    1
    84    30    87    1
    85    30    88    1
    86    31    32    1
    87    31    89    1
    88    31    90    1
    89    32    91    1
    90    32    92    1
    91    32    93    1
    92    33    34    1
    93    33    94    1
    94    33    95    1
    95    34    35    1
    96    34    96    1
    97    34    97    1
    98    35    36    1
    99    35    37    1
   100    35    98    1
   101    36    99    1
   102    36   100    1
   103    36   101    1
   104    37    38    1
   105    37   102    1
   106    37   103    1
   107    38    39    1
   108    38   104    1
   109    38   105    1
   110    39    40    1
   111    39   106    1
   112    39   107    1
   113    40    41    1
   114    40    42    1
   115    40   108    1
   116    41   109    1
   117    41   110    1
   118    41   111    1
   119    42   112    1
   120    42   113    1
   121    42   114    1
   122   115   116    1
   123   115   156    1
   124   115   157    1
   125   115   158    1
   126   116   117    1
   127   116   159    1
   128   116   160    1
   129   117   118    1
   130   117   161    1
   131   117   162    1
   132   118   119    1
   133   118   163    1
   134   118   164    1
   135   119   120    1
   136   119   165    1
   137   119   166    1
   138   120   121    1
   139   120   167    1
   140   120   168    1
   141   121   122    1
   142   121   132    1
   143   122   123    1
   144   122   169    1
   145   122   170    1
   146   123   124    1
   147   123   171    1
   148   123   172    1
   149   124   125    1
   150   124   126    1
   151   124   173    1
   152   125   174    1
   153   125   175    1
   154   125   176    1
   155   126   127    1
   156   126   177    1
   157   126   178    1
   158   127   128    1
   159   127   179    1
   160   127   180    1
   161   128   129    1
   162   128   181    1
   163   128   182    1
   164   129   130    1
   165   129   131    1
   166   129   183    1
   167   130   184    1
   168   130   185    1
   169   130   186    1
   170   131   187    1
   171   131   188    1
   172   131   189    1
   173   132   133    2
   174   132   134    1
   175   134   135    1
   176   134   190    1
   177   134   191    1
   178   135   136    1
   179   136   137    1
   180   136   192    1
   181   136   193    1
   182   137   138    2
   183   137   139    1
   184   139   140    1
   185   139   146    1
   186   140   141    1
   187   140   194    1
   188   140   195    1
   189   141   142    1
   190   141   196    1
   191   141   197    1
   192   142   143    1
   193   142   198    1
   194   142   199    1
   195   143   144    1
   196   143   200    1
   197   143   201    1
   198   144   145    1
   199   144   202    1
   200   144   203    1
   201   145   204    1
   202   145   205    1
   203   145   206    1
   204   146   147    1
   205   146   207    1
   206   146   208    1
   207   147   148    1
   208   147   209    1
   209   147   210    1
   210   148   149    1
   211   148   150    1
   212   148   211    1
   213   149   212    1
   214   149   213    1
   215   149   214    1
   216   150   151    1
   217   150   215    1
   218   150   216    1
   219   151   152    1
   220   151   217    1
   221   151   218    1
   222   152   153    1
   223   152   219    1
   224   152   220    1
   225   153   154    1
   226   153   155    1
   227   153   221    1
   228   154   222    1
   229   154   223    1
   230   154   224    1
   231   155   225    1
   232   155   226    1
   233   155   227    1
   234   228   229    1
   235   228   269    1
   236   228   270    1
   237   228   271    1
   238   229   230    1
   239   229   272    1
   240   229   273    1
   241   230   231    1
   242   230   274    1
   243   230   275    1
   244   231   232    1
   245   231   276    1
   246   231   277    1
   247   232   233    1
   248   232   278    1
   249   232   279    1
   250   233   234    1
   251   233   280    1
   252   233   281    1
   253   234   235    1
   254   234   245    1
   255   235   236    1
   256   235   282    1
   257   235   283    1
   258   236   237    1
   259   236   284    1
   260   236   285    1
   261   237   238    1
   262   237   239    1
   263   237   286    1
   264   238   287    1
   265   238   288    1
   266   238   289    1
   267   239   240    1
   268   239   290    1
   269   239   291    1
   270   240   241    1
   271   240   292    1
   272   240   293    1
   273   241   242    1
   274   241   294    1
   275   241   295    1
   276   242   243    1
   277   242   244    1
   278   242   296    1
   279   243   297    1
   280   243   298    1
   281   243   299    1
   282   244   300    1
   283   244   301    1
   284   244   302    1
   285   245   246    2
   286   245   247    1
   287   247   248    1
   288   247   303    1
   289   247   304    1
   290   248   249    1
   291   249   250    1
   292   249   305    1
   293   249   306    1
   294   250   251    2
   295   250   252    1
   296   252   253    1
   297   252   259    1
   298   253   254    1
   299   253   307    1
   300   253   308    1
   301   254   255    1
   302   254   309    1
   303   254   310    1
   304   255   256    1
   305   255   311    1
   306   255   312    1
   307   256   257    1
   308   256   313    1
   309   256   314    1
   310   257   258    1
   311   257   315    1
   312   257   316    1
   313   258   317    1
   314   258   318    1
   315   258   319    1
   316   259   260    1
   317   259   320    1
   318   259   321    1
   319   260   261    1
   320   260   322    1
   321   260   323    1
   322   261   262    1
   323   261   263    1
   324   261   324    1
   325   262   325    1
   326   262   326    1
   327   262   327    1
   328   263   264    1
   329   263   328    1
   330   263   329    1
   331   264   265    1
   332   264   330    1
   333   264   331    1
   334   265   266    1
   335   265   332    1
   336   265   333    1
   337   266   267    1
   338   266   268    1
   339   266   334    1
   340   267   335    1
   341   267   336    1
   342   267   337    1
   343   268   338    1
   344   268   339    1
   345   268   340    1
@<TRIPOS>SUBSTRUCTURE
     1 RES1      340 GROUP             0 ****  ****    0  
