@<TRIPOS>MOLECULE
capped_square_antiprismatic_0_nunpairedes_0_charge_3 Charge: 3 Unpaired_Electrons: 7 XTB_Unpaired_Electrons: 0 XTB_Charge: 3
   340   345     1     0     0
SMALL
NoCharges
****
Generated from Architector

@<TRIPOS>ATOM
     1 Gd1      -0.1026    0.0308   -0.0421   Gd        1 RES1   0.0000
     2 C1        4.6136    1.1298    5.0808   C.3       1 RES1   0.0000
     3 C2        4.7201    0.5790    6.4970   C.3       1 RES1   0.0000
     4 C3        4.9873   -0.9263    6.5682   C.3       1 RES1   0.0000
     5 C4        3.7515   -1.8155    6.3690   C.3       1 RES1   0.0000
     6 C5        3.5499   -2.3524    4.9391   C.3       1 RES1   0.0000
     7 C6        4.3092   -3.6767    4.7158   C.3       1 RES1   0.0000
     8 C7        5.7262   -3.7540    5.2767   C.3       1 RES1   0.0000
     9 C8        2.0294   -2.5492    4.7177   C.3       1 RES1   0.0000
    10 N1        1.6115   -2.6163    3.3199   N.am      1 RES1   0.0000
    11 C9        1.7339   -3.9135    2.6528   C.3       1 RES1   0.0000
    12 C10       0.5229   -4.8734    2.7561   C.3       1 RES1   0.0000
    13 C11       0.0542   -5.0695    4.2075   C.3       1 RES1   0.0000
    14 C12      -1.1446   -6.0033    4.3730   C.3       1 RES1   0.0000
    15 C13       0.9144   -6.2478    2.1822   C.3       1 RES1   0.0000
    16 C14       1.0286   -6.4060    0.6623   C.3       1 RES1   0.0000
    17 C15       2.3124   -5.9064   -0.0095   C.3       1 RES1   0.0000
    18 C16       3.5694   -6.5695    0.5390   C.3       1 RES1   0.0000
    19 C17       1.2958   -1.5250    2.6244   C.2       1 RES1   0.0000
    20 O1        1.2081   -1.4864    1.3817   O.2       1 RES1   0.0000
    21 C18       0.9286   -0.2625    3.4170   C.3       1 RES1   0.0000
    22 O2        0.4509    0.7095    2.4967   O.3       1 RES1   0.0000
    23 C19      -0.3883    1.7013    3.0859   C.3       1 RES1   0.0000
    24 C20      -1.7934    1.5821    2.4727   C.2       1 RES1   0.0000
    25 O3       -1.8554    1.0927    1.3302   O.2       1 RES1   0.0000
    26 N2       -2.8567    2.0307    3.1378   N.am      1 RES1   0.0000
    27 C21      -4.2066    1.6911    2.6360   C.3       1 RES1   0.0000
    28 C22      -4.6907    2.1086    1.2368   C.3       1 RES1   0.0000
    29 C23      -4.8308    3.6299    1.1041   C.3       1 RES1   0.0000
    30 C24      -5.2416    4.1118   -0.2837   C.3       1 RES1   0.0000
    31 C25      -6.0585    1.4320    1.0478   C.3       1 RES1   0.0000
    32 C26      -5.9687   -0.0511    0.7094   C.3       1 RES1   0.0000
    33 C27      -7.3130   -0.6233    0.2582   C.3       1 RES1   0.0000
    34 C28      -8.3677   -0.5824    1.3587   C.3       1 RES1   0.0000
    35 C29      -2.8422    2.4287    4.5540   C.3       1 RES1   0.0000
    36 C30      -2.7081    3.9267    4.9620   C.3       1 RES1   0.0000
    37 C31      -3.4034    4.9266    4.0192   C.3       1 RES1   0.0000
    38 C32      -2.5352    5.4552    2.8812   C.3       1 RES1   0.0000
    39 C33      -1.2765    4.3720    5.3090   C.3       1 RES1   0.0000
    40 C34      -0.7250    3.7599    6.6068   C.3       1 RES1   0.0000
    41 C35       0.1132    4.7401    7.4333   C.3       1 RES1   0.0000
    42 C36       1.4842    5.0602    6.8506   C.3       1 RES1   0.0000
    43 H1        4.4845    2.2087    5.1084   H         1 RES1   0.0000
    44 H2        3.7697    0.6999    4.5440   H         1 RES1   0.0000
    45 H3        5.5254    0.9113    4.5305   H         1 RES1   0.0000
    46 H4        3.8153    0.8141    7.0611   H         1 RES1   0.0000
    47 H5        5.5507    1.0894    6.9847   H         1 RES1   0.0000
    48 H6        5.3913   -1.1388    7.5572   H         1 RES1   0.0000
    49 H7        5.7560   -1.1786    5.8419   H         1 RES1   0.0000
    50 H8        2.8756   -1.2439    6.6830   H         1 RES1   0.0000
    51 H9        3.8125   -2.6710    7.0404   H         1 RES1   0.0000
    52 H10       3.9067   -1.6092    4.2211   H         1 RES1   0.0000
    53 H11       4.3811   -3.8685    3.6429   H         1 RES1   0.0000
    54 H12       3.7363   -4.4878    5.1745   H         1 RES1   0.0000
    55 H13       6.3877   -3.0295    4.8118   H         1 RES1   0.0000
    56 H14       6.1206   -4.7466    5.0744   H         1 RES1   0.0000
    57 H15       5.7418   -3.6017    6.3499   H         1 RES1   0.0000
    58 H16       1.4982   -1.7326    5.2033   H         1 RES1   0.0000
    59 H17       1.7238   -3.4712    5.2076   H         1 RES1   0.0000
    60 H18       2.5904   -4.4258    3.0840   H         1 RES1   0.0000
    61 H19       1.9356   -3.7099    1.6005   H         1 RES1   0.0000
    62 H20      -0.3152   -4.4591    2.1822   H         1 RES1   0.0000
    63 H21      -0.2205   -4.0953    4.6114   H         1 RES1   0.0000
    64 H22       0.8801   -5.4739    4.7934   H         1 RES1   0.0000
    65 H23      -1.9253   -5.7720    3.6520   H         1 RES1   0.0000
    66 H24      -1.5532   -5.8967    5.3745   H         1 RES1   0.0000
    67 H25      -0.8734   -7.0477    4.2634   H         1 RES1   0.0000
    68 H26       0.1395   -6.9476    2.4878   H         1 RES1   0.0000
    69 H27       1.8401   -6.5823    2.6505   H         1 RES1   0.0000
    70 H28       0.1596   -5.9424    0.1833   H         1 RES1   0.0000
    71 H29       0.9546   -7.4768    0.4546   H         1 RES1   0.0000
    72 H30       2.4127   -4.8196    0.0781   H         1 RES1   0.0000
    73 H31       2.2269   -6.1372   -1.0747   H         1 RES1   0.0000
    74 H32       3.7785   -6.2435    1.5543   H         1 RES1   0.0000
    75 H33       4.4217   -6.3178   -0.0844   H         1 RES1   0.0000
    76 H34       3.4583   -7.6494    0.5371   H         1 RES1   0.0000
    77 H35       1.7836    0.1428    3.9785   H         1 RES1   0.0000
    78 H36       0.1382   -0.5309    4.1320   H         1 RES1   0.0000
    79 H37       0.0149    2.6873    2.8249   H         1 RES1   0.0000
    80 H38      -0.3734    1.6155    4.1714   H         1 RES1   0.0000
    81 H39      -4.9177    2.1129    3.3457   H         1 RES1   0.0000
    82 H40      -4.2706    0.5996    2.6769   H         1 RES1   0.0000
    83 H41      -3.9840    1.7304    0.4893   H         1 RES1   0.0000
    84 H42      -3.8751    4.0885    1.3431   H         1 RES1   0.0000
    85 H43      -5.5724    3.9878    1.8200   H         1 RES1   0.0000
    86 H44      -4.5625    3.7210   -1.0376   H         1 RES1   0.0000
    87 H45      -5.2118    5.1985   -0.3254   H         1 RES1   0.0000
    88 H46      -6.2507    3.8097   -0.5483   H         1 RES1   0.0000
    89 H47      -6.5918    1.9286    0.2391   H         1 RES1   0.0000
    90 H48      -6.6487    1.5644    1.9559   H         1 RES1   0.0000
    91 H49      -5.6246   -0.6248    1.5690   H         1 RES1   0.0000
    92 H50      -5.2263   -0.1788   -0.0832   H         1 RES1   0.0000
    93 H51      -7.1621   -1.6595   -0.0525   H         1 RES1   0.0000
    94 H52      -7.6761   -0.0682   -0.6086   H         1 RES1   0.0000
    95 H53      -8.0105   -1.0928    2.2489   H         1 RES1   0.0000
    96 H54      -9.2779   -1.0764    1.0294   H         1 RES1   0.0000
    97 H55      -8.6177    0.4404    1.6282   H         1 RES1   0.0000
    98 H56      -2.0596    1.8846    5.0822   H         1 RES1   0.0000
    99 H57      -3.7834    2.0709    4.9781   H         1 RES1   0.0000
   100 H58      -3.2601    3.9814    5.9067   H         1 RES1   0.0000
   101 H59      -3.7236    5.7869    4.6095   H         1 RES1   0.0000
   102 H60      -4.3040    4.4640    3.6185   H         1 RES1   0.0000
   103 H61      -1.7718    6.1234    3.2680   H         1 RES1   0.0000
   104 H62      -3.1459    6.0297    2.1879   H         1 RES1   0.0000
   105 H63      -2.0481    4.6427    2.3433   H         1 RES1   0.0000
   106 H64      -1.3254    5.4524    5.4481   H         1 RES1   0.0000
   107 H65      -0.5957    4.1791    4.4810   H         1 RES1   0.0000
   108 H66      -0.1139    2.8783    6.3922   H         1 RES1   0.0000
   109 H67      -1.5613    3.4382    7.2309   H         1 RES1   0.0000
   110 H68       0.2548    4.3068    8.4223   H         1 RES1   0.0000
   111 H69      -0.4402    5.6708    7.5587   H         1 RES1   0.0000
   112 H70       2.0269    4.1519    6.5916   H         1 RES1   0.0000
   113 H71       2.0710    5.6030    7.5861   H         1 RES1   0.0000
   114 H72       1.4075    5.6864    5.9662   H         1 RES1   0.0000
   115 C37      -7.7116   -5.7361   -2.2787   C.3       1 RES1   0.0000
   116 C38      -6.6107   -4.6845   -2.3560   C.3       1 RES1   0.0000
   117 C39      -6.0180   -4.3122   -0.9875   C.3       1 RES1   0.0000
   118 C40      -5.1541   -5.4066   -0.3435   C.3       1 RES1   0.0000
   119 C41      -3.6551   -5.5483   -0.6793   C.3       1 RES1   0.0000
   120 C42      -3.2465   -5.3517   -2.1413   C.3       1 RES1   0.0000
   121 C43      -3.3041   -3.9400   -2.7089   C.3       1 RES1   0.0000
   122 C44      -2.6623   -4.9097    0.3233   C.3       1 RES1   0.0000
   123 N3       -2.5714   -3.4755    0.5430   N.am      1 RES1   0.0000
   124 C45      -3.6562   -2.8259    1.2951   C.3       1 RES1   0.0000
   125 C46      -3.8319   -3.2802    2.7614   C.3       1 RES1   0.0000
   126 C47      -5.3345   -3.3022    3.1706   C.3       1 RES1   0.0000
   127 C48      -5.8866   -2.1101    3.9548   C.3       1 RES1   0.0000
   128 C49      -2.9584   -2.4495    3.7134   C.3       1 RES1   0.0000
   129 C50      -2.9745   -3.0306    5.1340   C.3       1 RES1   0.0000
   130 C51      -2.6688   -2.0234    6.2464   C.3       1 RES1   0.0000
   131 C52      -1.1739   -1.8208    6.4573   C.3       1 RES1   0.0000
   132 C53      -1.5054   -2.7407    0.2395   C.2       1 RES1   0.0000
   133 O4       -1.3925   -1.5815    0.6776   O.2       1 RES1   0.0000
   134 C54      -0.3591   -3.2677   -0.6483   C.3       1 RES1   0.0000
   135 O5        0.2985   -2.1150   -1.1719   O.3       1 RES1   0.0000
   136 C55       1.5595   -2.3383   -1.8007   C.3       1 RES1   0.0000
   137 C56       1.9940   -0.9666   -2.3623   C.2       1 RES1   0.0000
   138 O6        1.2297   -0.0076   -2.1317   O.2       1 RES1   0.0000
   139 N4        3.1129   -0.8405   -3.0821   N.am      1 RES1   0.0000
   140 C57       4.1329   -1.8966   -3.1137   C.3       1 RES1   0.0000
   141 C58       5.5902   -1.4465   -3.3932   C.3       1 RES1   0.0000
   142 C59       6.3159   -2.5262   -4.2198   C.3       1 RES1   0.0000
   143 C60       6.5450   -3.8639   -3.5263   C.3       1 RES1   0.0000
   144 C61       6.3606   -1.0279   -2.1337   C.3       1 RES1   0.0000
   145 C62       7.5085   -0.0605   -2.4569   C.3       1 RES1   0.0000
   146 C63       8.4312    0.1866   -1.2497   C.3       1 RES1   0.0000
   147 C64       8.7059    1.6624   -0.9798   C.3       1 RES1   0.0000
   148 C65       3.3428    0.4300   -3.7920   C.3       1 RES1   0.0000
   149 C66       3.6688    0.3329   -5.2967   C.3       1 RES1   0.0000
   150 C67       2.4994   -0.2311   -6.1002   C.3       1 RES1   0.0000
   151 C68       2.7732   -0.2565   -7.5987   C.3       1 RES1   0.0000
   152 C69       4.2309    1.6780   -5.8110   C.3       1 RES1   0.0000
   153 C70       3.2265    2.7710   -6.1996   C.3       1 RES1   0.0000
   154 C71       2.9013    3.7861   -5.0971   C.3       1 RES1   0.0000
   155 C72       3.9261    4.9144   -5.0444   C.3       1 RES1   0.0000
   156 H73      -8.1284   -5.9001   -3.2693   H         1 RES1   0.0000
   157 H74      -8.5154   -5.4108   -1.6225   H         1 RES1   0.0000
   158 H75      -7.3297   -6.6878   -1.9178   H         1 RES1   0.0000
   159 H76      -7.0360   -3.7800   -2.7992   H         1 RES1   0.0000
   160 H77      -5.8355   -5.0476   -3.0309   H         1 RES1   0.0000
   161 H78      -6.8597   -4.1269   -0.3137   H         1 RES1   0.0000
   162 H79      -5.4719   -3.3704   -1.0772   H         1 RES1   0.0000
   163 H80      -5.6141   -6.3568   -0.6080   H         1 RES1   0.0000
   164 H81      -5.2312   -5.3269    0.7429   H         1 RES1   0.0000
   165 H82      -3.4488   -6.6098   -0.4867   H         1 RES1   0.0000
   166 H83      -3.8747   -5.9996   -2.7513   H         1 RES1   0.0000
   167 H84      -2.2233   -5.7293   -2.2413   H         1 RES1   0.0000
   168 H85      -4.3211   -3.5810   -2.8000   H         1 RES1   0.0000
   169 H86      -2.8850   -3.9675   -3.7106   H         1 RES1   0.0000
   170 H87      -2.7435   -3.2353   -2.0961   H         1 RES1   0.0000
   171 H88      -1.6741   -5.2721    0.0388   H         1 RES1   0.0000
   172 H89      -2.8895   -5.3497    1.2987   H         1 RES1   0.0000
   173 H90      -4.5702   -3.0301    0.7397   H         1 RES1   0.0000
   174 H91      -3.4570   -1.7526    1.2690   H         1 RES1   0.0000
   175 H92      -3.4841   -4.3153    2.8348   H         1 RES1   0.0000
   176 H93      -5.5131   -4.1922    3.7786   H         1 RES1   0.0000
   177 H94      -5.9414   -3.4133    2.2684   H         1 RES1   0.0000
   178 H95      -5.4765   -2.0505    4.9574   H         1 RES1   0.0000
   179 H96      -6.9617   -2.2412    4.0581   H         1 RES1   0.0000
   180 H97      -5.7127   -1.1616    3.4534   H         1 RES1   0.0000
   181 H98      -3.3281   -1.4226    3.7317   H         1 RES1   0.0000
   182 H99      -1.9382   -2.4188    3.3163   H         1 RES1   0.0000
   183 H100     -2.2649   -3.8501    5.2072   H         1 RES1   0.0000
   184 H101     -3.9595   -3.4484    5.3264   H         1 RES1   0.0000
   185 H102     -3.0996   -2.3926    7.1794   H         1 RES1   0.0000
   186 H103     -3.1411   -1.0629    6.0189   H         1 RES1   0.0000
   187 H104     -0.7242   -2.7199    6.8703   H         1 RES1   0.0000
   188 H105     -0.9964   -1.0078    7.1555   H         1 RES1   0.0000
   189 H106     -0.6939   -1.5980    5.5059   H         1 RES1   0.0000
   190 H107     -0.7101   -3.9122   -1.4631   H         1 RES1   0.0000
   191 H108      0.3346   -3.8308   -0.0149   H         1 RES1   0.0000
   192 H109      1.4673   -3.0696   -2.6163   H         1 RES1   0.0000
   193 H110      2.2852   -2.7159   -1.0676   H         1 RES1   0.0000
   194 H111      3.8498   -2.6229   -3.8816   H         1 RES1   0.0000
   195 H112      4.1142   -2.4023   -2.1458   H         1 RES1   0.0000
   196 H113      5.5760   -0.5612   -4.0221   H         1 RES1   0.0000
   197 H114      7.2828   -2.1248   -4.5275   H         1 RES1   0.0000
   198 H115      5.7313   -2.6935   -5.1289   H         1 RES1   0.0000
   199 H116      7.1899   -3.7555   -2.6591   H         1 RES1   0.0000
   200 H117      7.0385   -4.5400   -4.2189   H         1 RES1   0.0000
   201 H118      5.6065   -4.3178   -3.2160   H         1 RES1   0.0000
   202 H119      6.7655   -1.8996   -1.6216   H         1 RES1   0.0000
   203 H120      5.6652   -0.5309   -1.4555   H         1 RES1   0.0000
   204 H121      7.0894    0.8898   -2.8015   H         1 RES1   0.0000
   205 H122      8.1005   -0.4611   -3.2795   H         1 RES1   0.0000
   206 H123      9.3870   -0.3102   -1.4163   H         1 RES1   0.0000
   207 H124      7.9883   -0.2625   -0.3569   H         1 RES1   0.0000
   208 H125      9.2296    2.1155   -1.8162   H         1 RES1   0.0000
   209 H126      9.3350    1.7602   -0.0982   H         1 RES1   0.0000
   210 H127      7.7868    2.2200   -0.8061   H         1 RES1   0.0000
   211 H128      4.1695    0.9465   -3.3026   H         1 RES1   0.0000
   212 H129      2.4336    1.0208   -3.6615   H         1 RES1   0.0000
   213 H130      4.4776   -0.3819   -5.4396   H         1 RES1   0.0000
   214 H131      1.5863    0.3200   -5.8859   H         1 RES1   0.0000
   215 H132      2.3457   -1.2555   -5.7593   H         1 RES1   0.0000
   216 H133      2.8179    0.7437   -8.0170   H         1 RES1   0.0000
   217 H134      1.9916   -0.8045   -8.1175   H         1 RES1   0.0000
   218 H135      3.7203   -0.7510   -7.7947   H         1 RES1   0.0000
   219 H136      4.8226    1.4484   -6.6958   H         1 RES1   0.0000
   220 H137      4.9267    2.0754   -5.0670   H         1 RES1   0.0000
   221 H138      2.3025    2.3117   -6.5456   H         1 RES1   0.0000
   222 H139      3.6326    3.3257   -7.0484   H         1 RES1   0.0000
   223 H140      2.8356    3.2768   -4.1312   H         1 RES1   0.0000
   224 H141      1.9264    4.2299   -5.3081   H         1 RES1   0.0000
   225 H142      4.9366    4.5279   -4.9434   H         1 RES1   0.0000
   226 H143      3.7260    5.5925   -4.2172   H         1 RES1   0.0000
   227 H144      3.8757    5.4875   -5.9656   H         1 RES1   0.0000
   228 C73      -3.9429    6.1121   -5.2052   C.3       1 RES1   0.0000
   229 C74      -4.7527    4.8245   -5.2438   C.3       1 RES1   0.0000
   230 C75      -5.2136    4.4097   -3.8455   C.3       1 RES1   0.0000
   231 C76      -5.9406    3.0578   -3.8350   C.3       1 RES1   0.0000
   232 C77      -5.1645    1.8006   -3.3821   C.3       1 RES1   0.0000
   233 C78      -6.0368    0.5871   -3.7620   C.3       1 RES1   0.0000
   234 C79      -5.7774   -0.6982   -2.9777   C.3       1 RES1   0.0000
   235 C80      -3.7680    1.7789   -4.0271   C.3       1 RES1   0.0000
   236 N5       -2.8491    0.8096   -3.4640   N.am      1 RES1   0.0000
   237 C81      -2.7194   -0.4833   -4.1222   C.3       1 RES1   0.0000
   238 C82      -1.3528   -0.6901   -4.8062   C.3       1 RES1   0.0000
   239 C83      -1.2069   -2.2134   -4.9477   C.3       1 RES1   0.0000
   240 C84       0.1179   -2.7447   -5.4746   C.3       1 RES1   0.0000
   241 C85      -1.2358   -0.0205   -6.1840   C.3       1 RES1   0.0000
   242 C86      -1.2857    1.5134   -6.2797   C.3       1 RES1   0.0000
   243 C87      -0.4523    2.2622   -5.2413   C.3       1 RES1   0.0000
   244 C88      -0.7862    3.7505   -5.2235   C.3       1 RES1   0.0000
   245 C89      -2.1195    0.9890   -2.3654   C.2       1 RES1   0.0000
   246 O7       -1.6094    0.0256   -1.7556   O.2       1 RES1   0.0000
   247 C90      -1.7861    2.4045   -1.8640   C.3       1 RES1   0.0000
   248 O8       -0.6578    2.2852   -0.9868   O.3       1 RES1   0.0000
   249 C91       0.3864    3.2595   -1.1126   C.3       1 RES1   0.0000
   250 C92       1.4888    2.7772   -0.1538   C.2       1 RES1   0.0000
   251 O9        1.4539    1.5621    0.1434   O.2       1 RES1   0.0000
   252 N6        2.4431    3.5586    0.3382   N.am      1 RES1   0.0000
   253 C93       3.4552    2.8851    1.1607   C.3       1 RES1   0.0000
   254 C94       4.7343    2.4313    0.4261   C.3       1 RES1   0.0000
   255 C95       4.5596    2.1567   -1.0695   C.3       1 RES1   0.0000
   256 C96       4.7097    3.3996   -1.9461   C.3       1 RES1   0.0000
   257 C97       5.3260    1.2052    1.1478   C.3       1 RES1   0.0000
   258 C98       4.3802   -0.0009    1.2728   C.3       1 RES1   0.0000
   259 C99       5.1011   -1.3551    1.2902   C.3       1 RES1   0.0000
   260 C100      6.2588   -1.4337    2.2771   C.3       1 RES1   0.0000
   261 C101      2.6442    4.9769    0.0814   C.3       1 RES1   0.0000
   262 C102      2.1569    5.9781    1.1583   C.3       1 RES1   0.0000
   263 C103      2.7875    5.7393    2.5412   C.3       1 RES1   0.0000
   264 C104      2.1021    4.6666    3.3881   C.3       1 RES1   0.0000
   265 C105      0.6295    6.1200    1.2689   C.3       1 RES1   0.0000
   266 C106      0.0103    7.2467    0.4259   C.3       1 RES1   0.0000
   267 C107     -0.4663    6.8681   -0.9775   C.3       1 RES1   0.0000
   268 C108     -1.8103    6.1456   -0.9714   C.3       1 RES1   0.0000
   269 H145     -3.5659    6.3566   -6.1930   H         1 RES1   0.0000
   270 H146     -3.0946    6.0200   -4.5283   H         1 RES1   0.0000
   271 H147     -4.5619    6.9370   -4.8663   H         1 RES1   0.0000
   272 H148     -4.1638    4.0303   -5.7062   H         1 RES1   0.0000
   273 H149     -5.6307    4.9779   -5.8699   H         1 RES1   0.0000
   274 H150     -5.9005    5.1724   -3.4809   H         1 RES1   0.0000
   275 H151     -4.3690    4.4103   -3.1526   H         1 RES1   0.0000
   276 H152     -6.3046    2.8728   -4.8458   H         1 RES1   0.0000
   277 H153     -6.8160    3.1293   -3.1883   H         1 RES1   0.0000
   278 H154     -5.0326    1.8202   -2.2943   H         1 RES1   0.0000
   279 H155     -5.9426    0.3936   -4.8328   H         1 RES1   0.0000
   280 H156     -7.0748    0.8749   -3.5861   H         1 RES1   0.0000
   281 H157     -5.0334   -1.3313   -3.4480   H         1 RES1   0.0000
   282 H158     -6.7005   -1.2686   -2.9089   H         1 RES1   0.0000
   283 H159     -5.4414   -0.4563   -1.9738   H         1 RES1   0.0000
   284 H160     -3.3252    2.7671   -3.9302   H         1 RES1   0.0000
   285 H161     -3.8960    1.5532   -5.0854   H         1 RES1   0.0000
   286 H162     -3.5026   -0.5797   -4.8716   H         1 RES1   0.0000
   287 H163     -2.8438   -1.2581   -3.3621   H         1 RES1   0.0000
   288 H164     -0.5663   -0.3372   -4.1328   H         1 RES1   0.0000
   289 H165     -2.0109   -2.5729   -5.5913   H         1 RES1   0.0000
   290 H166     -1.3431   -2.6400   -3.9546   H         1 RES1   0.0000
   291 H167      0.3029   -2.4525   -6.5040   H         1 RES1   0.0000
   292 H168      0.0956   -3.8330   -5.4441   H         1 RES1   0.0000
   293 H169      0.9366   -2.3960   -4.8466   H         1 RES1   0.0000
   294 H170     -2.0328   -0.4201   -6.8171   H         1 RES1   0.0000
   295 H171     -0.2931   -0.3447   -6.6247   H         1 RES1   0.0000
   296 H172     -2.3169    1.8588   -6.2224   H         1 RES1   0.0000
   297 H173     -0.9367    1.7827   -7.2795   H         1 RES1   0.0000
   298 H174      0.6063    2.1440   -5.4609   H         1 RES1   0.0000
   299 H175     -0.6311    1.8319   -4.2557   H         1 RES1   0.0000
   300 H176     -0.5336    4.2176   -6.1720   H         1 RES1   0.0000
   301 H177     -0.2370    4.2728   -4.4396   H         1 RES1   0.0000
   302 H178     -1.8492    3.9066   -5.0574   H         1 RES1   0.0000
   303 H179     -2.6286    2.8327   -1.3073   H         1 RES1   0.0000
   304 H180     -1.5535    3.0501   -2.7121   H         1 RES1   0.0000
   305 H181      0.0081    4.2551   -0.8690   H         1 RES1   0.0000
   306 H182      0.8003    3.2618   -2.1333   H         1 RES1   0.0000
   307 H183      2.9626    2.0135    1.5908   H         1 RES1   0.0000
   308 H184      3.7549    3.5500    1.9641   H         1 RES1   0.0000
   309 H185      5.4800    3.2270    0.5211   H         1 RES1   0.0000
   310 H186      3.6080    1.6563   -1.2616   H         1 RES1   0.0000
   311 H187      5.3539    1.4705   -1.3572   H         1 RES1   0.0000
   312 H188      3.7746    3.9305   -2.0852   H         1 RES1   0.0000
   313 H189      5.0862    3.1208   -2.9250   H         1 RES1   0.0000
   314 H190      5.4336    4.0906   -1.5221   H         1 RES1   0.0000
   315 H191      5.6459    1.5129    2.1455   H         1 RES1   0.0000
   316 H192      6.2188    0.9011    0.6000   H         1 RES1   0.0000
   317 H193      3.6577   -0.0067    0.4468   H         1 RES1   0.0000
   318 H194      3.8033    0.0792    2.1976   H         1 RES1   0.0000
   319 H195      5.4894   -1.5728    0.2976   H         1 RES1   0.0000
   320 H196      4.3621   -2.1277    1.5258   H         1 RES1   0.0000
   321 H197      7.0654   -0.7699    1.9802   H         1 RES1   0.0000
   322 H198      6.6559   -2.4451    2.2998   H         1 RES1   0.0000
   323 H199      5.9429   -1.1618    3.2799   H         1 RES1   0.0000
   324 H200      2.1829    5.2439   -0.8708   H         1 RES1   0.0000
   325 H201      3.7248    5.1097   -0.0190   H         1 RES1   0.0000
   326 H202      2.5601    6.9346    0.8083   H         1 RES1   0.0000
   327 H203      2.7451    6.6760    3.0995   H         1 RES1   0.0000
   328 H204      3.8466    5.5100    2.4043   H         1 RES1   0.0000
   329 H205      1.2463    5.0895    3.9029   H         1 RES1   0.0000
   330 H206      2.7887    4.3007    4.1446   H         1 RES1   0.0000
   331 H207      1.7696    3.8232    2.7902   H         1 RES1   0.0000
   332 H208      0.4025    6.3474    2.3093   H         1 RES1   0.0000
   333 H209      0.1578    5.1622    1.0475   H         1 RES1   0.0000
   334 H210      0.7345    8.0572    0.3397   H         1 RES1   0.0000
   335 H211     -0.8491    7.6441    0.9691   H         1 RES1   0.0000
   336 H212      0.2886    6.2682   -1.4896   H         1 RES1   0.0000
   337 H213     -0.5833    7.7842   -1.5548   H         1 RES1   0.0000
   338 H214     -1.8267    5.3145   -0.2672   H         1 RES1   0.0000
   339 H215     -2.0489    5.7727   -1.9661   H         1 RES1   0.0000
   340 H216     -2.5953    6.8369   -0.6791   H         1 RES1   0.0000
@<TRIPOS>BOND
     1     1    20    1
     2     1    22    1
     3     1    25    1
     4     1   133    1
     5     1   135    1
     6     1   138    1
     7     1   246    1
     8     1   248    1
     9     1   251    1
    10     2     3    1
    11     2    43    1
    12     2    44    1
    13     2    45    1
    14     3     4    1
    15     3    46    1
    16     3    47    1
    17     4     5    1
    18     4    48    1
    19     4    49    1
    20     5     6    1
    21     5    50    1
    22     5    51    1
    23     6     7    1
    24     6     9    1
    25     6    52    1
    26     7     8    1
    27     7    53    1
    28     7    54    1
    29     8    55    1
    30     8    56    1
    31     8    57    1
    32     9    10    1
    33     9    58    1
    34     9    59    1
    35    10    11    1
    36    10    19    1
    37    11    12    1
    38    11    60    1
    39    11    61    1
    40    12    13    1
    41    12    15    1
    42    12    62    1
    43    13    14    1
    44    13    63    1
    45    13    64    1
    46    14    65    1
    47    14    66    1
    48    14    67    1
    49    15    16    1
    50    15    68    1
    51    15    69    1
    52    16    17    1
    53    16    70    1
    54    16    71    1
    55    17    18    1
    56    17    72    1
    57    17    73    1
    58    18    74    1
    59    18    75    1
    60    18    76    1
    61    19    20    2
    62    19    21    1
    63    21    22    1
    64    21    77    1
    65    21    78    1
    66    22    23    1
    67    23    24    1
    68    23    79    1
    69    23    80    1
    70    24    25    2
    71    24    26    1
    72    26    27    1
    73    26    35    1
    74    27    28    1
    75    27    81    1
    76    27    82    1
    77    28    29    1
    78    28    31    1
    79    28    83    1
    80    29    30    1
    81    29    84    1
    82    29    85    1
    83    30    86    1
    84    30    87    1
    85    30    88    1
    86    31    32    1
    87    31    89    1
    88    31    90    1
    89    32    33    1
    90    32    91    1
    91    32    92    1
    92    33    34    1
    93    33    93    1
    94    33    94    1
    95    34    95    1
    96    34    96    1
    97    34    97    1
    98    35    36    1
    99    35    98    1
   100    35    99    1
   101    36    37    1
   102    36    39    1
   103    36   100    1
   104    37    38    1
   105    37   101    1
   106    37   102    1
   107    38   103    1
   108    38   104    1
   109    38   105    1
   110    39    40    1
   111    39   106    1
   112    39   107    1
   113    40    41    1
   114    40   108    1
   115    40   109    1
   116    41    42    1
   117    41   110    1
   118    41   111    1
   119    42   112    1
   120    42   113    1
   121    42   114    1
   122   115   116    1
   123   115   156    1
   124   115   157    1
   125   115   158    1
   126   116   117    1
   127   116   159    1
   128   116   160    1
   129   117   118    1
   130   117   161    1
   131   117   162    1
   132   118   119    1
   133   118   163    1
   134   118   164    1
   135   119   120    1
   136   119   122    1
   137   119   165    1
   138   120   121    1
   139   120   166    1
   140   120   167    1
   141   121   168    1
   142   121   169    1
   143   121   170    1
   144   122   123    1
   145   122   171    1
   146   122   172    1
   147   123   124    1
   148   123   132    1
   149   124   125    1
   150   124   173    1
   151   124   174    1
   152   125   126    1
   153   125   128    1
   154   125   175    1
   155   126   127    1
   156   126   176    1
   157   126   177    1
   158   127   178    1
   159   127   179    1
   160   127   180    1
   161   128   129    1
   162   128   181    1
   163   128   182    1
   164   129   130    1
   165   129   183    1
   166   129   184    1
   167   130   131    1
   168   130   185    1
   169   130   186    1
   170   131   187    1
   171   131   188    1
   172   131   189    1
   173   132   133    2
   174   132   134    1
   175   134   135    1
   176   134   190    1
   177   134   191    1
   178   135   136    1
   179   136   137    1
   180   136   192    1
   181   136   193    1
   182   137   138    2
   183   137   139    1
   184   139   140    1
   185   139   148    1
   186   140   141    1
   187   140   194    1
   188   140   195    1
   189   141   142    1
   190   141   144    1
   191   141   196    1
   192   142   143    1
   193   142   197    1
   194   142   198    1
   195   143   199    1
   196   143   200    1
   197   143   201    1
   198   144   145    1
   199   144   202    1
   200   144   203    1
   201   145   146    1
   202   145   204    1
   203   145   205    1
   204   146   147    1
   205   146   206    1
   206   146   207    1
   207   147   208    1
   208   147   209    1
   209   147   210    1
   210   148   149    1
   211   148   211    1
   212   148   212    1
   213   149   150    1
   214   149   152    1
   215   149   213    1
   216   150   151    1
   217   150   214    1
   218   150   215    1
   219   151   216    1
   220   151   217    1
   221   151   218    1
   222   152   153    1
   223   152   219    1
   224   152   220    1
   225   153   154    1
   226   153   221    1
   227   153   222    1
   228   154   155    1
   229   154   223    1
   230   154   224    1
   231   155   225    1
   232   155   226    1
   233   155   227    1
   234   228   229    1
   235   228   269    1
   236   228   270    1
   237   228   271    1
   238   229   230    1
   239   229   272    1
   240   229   273    1
   241   230   231    1
   242   230   274    1
   243   230   275    1
   244   231   232    1
   245   231   276    1
   246   231   277    1
   247   232   233    1
   248   232   235    1
   249   232   278    1
   250   233   234    1
   251   233   279    1
   252   233   280    1
   253   234   281    1
   254   234   282    1
   255   234   283    1
   256   235   236    1
   257   235   284    1
   258   235   285    1
   259   236   237    1
   260   236   245    1
   261   237   238    1
   262   237   286    1
   263   237   287    1
   264   238   239    1
   265   238   241    1
   266   238   288    1
   267   239   240    1
   268   239   289    1
   269   239   290    1
   270   240   291    1
   271   240   292    1
   272   240   293    1
   273   241   242    1
   274   241   294    1
   275   241   295    1
   276   242   243    1
   277   242   296    1
   278   242   297    1
   279   243   244    1
   280   243   298    1
   281   243   299    1
   282   244   300    1
   283   244   301    1
   284   244   302    1
   285   245   246    2
   286   245   247    1
   287   247   248    1
   288   247   303    1
   289   247   304    1
   290   248   249    1
   291   249   250    1
   292   249   305    1
   293   249   306    1
   294   250   251    2
   295   250   252    1
   296   252   253    1
   297   252   261    1
   298   253   254    1
   299   253   307    1
   300   253   308    1
   301   254   255    1
   302   254   257    1
   303   254   309    1
   304   255   256    1
   305   255   310    1
   306   255   311    1
   307   256   312    1
   308   256   313    1
   309   256   314    1
   310   257   258    1
   311   257   315    1
   312   257   316    1
   313   258   259    1
   314   258   317    1
   315   258   318    1
   316   259   260    1
   317   259   319    1
   318   259   320    1
   319   260   321    1
   320   260   322    1
   321   260   323    1
   322   261   262    1
   323   261   324    1
   324   261   325    1
   325   262   263    1
   326   262   265    1
   327   262   326    1
   328   263   264    1
   329   263   327    1
   330   263   328    1
   331   264   329    1
   332   264   330    1
   333   264   331    1
   334   265   266    1
   335   265   332    1
   336   265   333    1
   337   266   267    1
   338   266   334    1
   339   266   335    1
   340   267   268    1
   341   267   336    1
   342   267   337    1
   343   268   338    1
   344   268   339    1
   345   268   340    1
@<TRIPOS>SUBSTRUCTURE
     1 RES1      340 GROUP             0 ****  ****    0  
