@<TRIPOS>MOLECULE
am_c3_9H2O_c0_0_nunpairedes_0_charge_3 Charge: 3 Unpaired_Electrons: 7 XTB_Unpaired_Electrons: 0 XTB_Charge: 3
   352   363     1     0     0
SMALL
NoCharges
****
Generated from Architector

@<TRIPOS>ATOM
     1 Gd1      -0.0752    0.0111    0.0343   Gd        1 RES1   0.0000
     2 C1       -2.5917   -3.5188    7.8942   C.3       1 RES1   0.0000
     3 C2       -4.0991   -3.4927    8.1404   C.3       1 RES1   0.0000
     4 C3       -4.8697   -4.2579    7.0573   C.3       1 RES1   0.0000
     5 C4       -6.3335   -3.8148    6.9037   C.3       1 RES1   0.0000
     6 C5       -6.9536   -4.2867    5.5835   C.3       1 RES1   0.0000
     7 C6       -8.4411   -3.9559    5.4317   C.3       1 RES1   0.0000
     8 C7       -8.8899   -3.9989    3.9609   C.3       1 RES1   0.0000
     9 C8       -8.7530   -2.6413    3.2652   C.3       1 RES1   0.0000
    10 C9       -8.9097   -2.6385    1.7338   C.3       1 RES1   0.0000
    11 C10     -10.0510   -3.5124    1.2435   C.3       1 RES1   0.0000
    12 C11      -9.0575   -1.1981    1.2558   C.3       1 RES1   0.0000
    13 S1       -7.3167   -3.3280    1.0641   S.3       1 RES1   0.0000
    14 C12      -7.4349   -3.1420   -0.7642   C.3       1 RES1   0.0000
    15 C13      -6.6571   -1.9367   -1.2626   C.3       1 RES1   0.0000
    16 C14      -5.2415   -1.9192   -0.6888   C.3       1 RES1   0.0000
    17 N1       -4.4569   -1.1692   -1.6563   N.am      1 RES1   0.0000
    18 C15      -3.2586   -0.7020   -1.3648   C.2       1 RES1   0.0000
    19 O1       -2.6233   -0.9921   -0.3368   O.2       1 RES1   0.0000
    20 C16      -2.6272    0.3440   -2.2948   C.3       1 RES1   0.0000
    21 O2       -1.7802    1.1543   -1.4810   O.3       1 RES1   0.0000
    22 C17      -2.5782    1.9765   -0.6112   C.3       1 RES1   0.0000
    23 C18      -1.9966    1.9589    0.8112   C.2       1 RES1   0.0000
    24 O3       -1.5882    0.8697    1.2731   O.2       1 RES1   0.0000
    25 N2       -2.0138    3.0592    1.5075   N.am      1 RES1   0.0000
    26 C19      -1.4350    3.1522    2.8408   C.3       1 RES1   0.0000
    27 C20      -0.8317    4.5529    2.8056   C.3       1 RES1   0.0000
    28 C21      -0.2981    5.0773    4.1234   C.3       1 RES1   0.0000
    29 C22      -1.9579    5.3467    2.1082   C.3       1 RES1   0.0000
    30 C23      -3.1507    5.8475    2.9190   C.3       1 RES1   0.0000
    31 S2       -4.2902    4.6078    3.6461   S.3       1 RES1   0.0000
    32 C24      -5.9754    5.0333    2.9510   C.3       1 RES1   0.0000
    33 C25      -6.9435    4.3303    3.8953   C.3       1 RES1   0.0000
    34 C26      -6.2181    6.5346    2.9895   C.3       1 RES1   0.0000
    35 C27      -6.0045    4.4544    1.5314   C.3       1 RES1   0.0000
    36 C28      -7.3715    4.2939    0.8654   C.3       1 RES1   0.0000
    37 C29      -7.2361    3.7211   -0.5515   C.3       1 RES1   0.0000
    38 C30      -6.7881    4.7597   -1.5805   C.3       1 RES1   0.0000
    39 C31      -6.6078    4.2000   -2.9956   C.3       1 RES1   0.0000
    40 C32      -5.2992    3.4345   -3.2240   C.3       1 RES1   0.0000
    41 C33      -5.1714    3.0162   -4.6927   C.3       1 RES1   0.0000
    42 C34      -3.8283    2.3905   -5.0566   C.3       1 RES1   0.0000
    43 C35      -2.4053    4.3672    1.0177   C.3       1 RES1   0.0000
    44 C36      -5.1992   -0.9685   -2.8938   C.3       1 RES1   0.0000
    45 C37      -6.4137   -1.9023   -2.7823   C.3       1 RES1   0.0000
    46 C38      -7.5775   -1.3696   -3.6051   C.3       1 RES1   0.0000
    47 H1       -2.0636   -3.1141    8.7529   H         1 RES1   0.0000
    48 H2       -2.2353   -4.5317    7.7233   H         1 RES1   0.0000
    49 H3       -2.3370   -2.9178    7.0217   H         1 RES1   0.0000
    50 H4       -4.3193   -3.9188    9.1191   H         1 RES1   0.0000
    51 H5       -4.4293   -2.4509    8.1500   H         1 RES1   0.0000
    52 H6       -4.3394   -4.0985    6.1159   H         1 RES1   0.0000
    53 H7       -4.8309   -5.3309    7.2620   H         1 RES1   0.0000
    54 H8       -6.9208   -4.1967    7.7409   H         1 RES1   0.0000
    55 H9       -6.3775   -2.7224    6.9417   H         1 RES1   0.0000
    56 H10      -6.4199   -3.8069    4.7614   H         1 RES1   0.0000
    57 H11      -6.8192   -5.3665    5.4833   H         1 RES1   0.0000
    58 H12      -9.0312   -4.6732    6.0017   H         1 RES1   0.0000
    59 H13      -8.6456   -2.9681    5.8484   H         1 RES1   0.0000
    60 H14      -8.3058   -4.7530    3.4287   H         1 RES1   0.0000
    61 H15      -9.9365   -4.2976    3.9212   H         1 RES1   0.0000
    62 H16      -9.5145   -1.9722    3.6745   H         1 RES1   0.0000
    63 H17      -7.7789   -2.2031    3.4993   H         1 RES1   0.0000
    64 H18     -10.9729   -3.2461    1.7512   H         1 RES1   0.0000
    65 H19     -10.2158   -3.3837    0.1747   H         1 RES1   0.0000
    66 H20      -9.8425   -4.5617    1.4310   H         1 RES1   0.0000
    67 H21      -9.9368   -0.7483    1.7124   H         1 RES1   0.0000
    68 H22      -8.1861   -0.6116    1.5451   H         1 RES1   0.0000
    69 H23      -9.1898   -1.1466    0.1772   H         1 RES1   0.0000
    70 H24      -7.0285   -4.0663   -1.1729   H         1 RES1   0.0000
    71 H25      -8.4840   -3.0865   -1.0368   H         1 RES1   0.0000
    72 H26      -7.1779   -1.0260   -0.9658   H         1 RES1   0.0000
    73 H27      -5.1776   -1.4467    0.2924   H         1 RES1   0.0000
    74 H28      -4.8694   -2.9415   -0.6093   H         1 RES1   0.0000
    75 H29      -1.9900   -0.1172   -3.0556   H         1 RES1   0.0000
    76 H30      -3.3923    0.9728   -2.7584   H         1 RES1   0.0000
    77 H31      -2.6119    2.9822   -1.0374   H         1 RES1   0.0000
    78 H32      -3.5984    1.5752   -0.5124   H         1 RES1   0.0000
    79 H33      -2.2472    3.1043    3.5747   H         1 RES1   0.0000
    80 H34      -0.7203    2.3454    3.0144   H         1 RES1   0.0000
    81 H35       0.0091    4.5359    2.0995   H         1 RES1   0.0000
    82 H36      -1.0355    5.0407    4.9137   H         1 RES1   0.0000
    83 H37       0.5623    4.4847    4.4248   H         1 RES1   0.0000
    84 H38       0.0393    6.1033    3.9992   H         1 RES1   0.0000
    85 H39      -1.5349    6.2460    1.6573   H         1 RES1   0.0000
    86 H40      -2.8072    6.4794    3.7301   H         1 RES1   0.0000
    87 H41      -3.7482    6.4714    2.2630   H         1 RES1   0.0000
    88 H42      -6.8009    4.6988    4.9081   H         1 RES1   0.0000
    89 H43      -7.9717    4.5363    3.6059   H         1 RES1   0.0000
    90 H44      -6.7821    3.2534    3.8941   H         1 RES1   0.0000
    91 H45      -5.9442    6.9415    3.9603   H         1 RES1   0.0000
    92 H46      -5.6648    7.0692    2.2199   H         1 RES1   0.0000
    93 H47      -7.2728    6.7432    2.8273   H         1 RES1   0.0000
    94 H48      -5.3909    5.0986    0.8964   H         1 RES1   0.0000
    95 H49      -5.5424    3.4617    1.5710   H         1 RES1   0.0000
    96 H50      -7.9725    3.6065    1.4592   H         1 RES1   0.0000
    97 H51      -7.8958    5.2481    0.8199   H         1 RES1   0.0000
    98 H52      -6.5406    2.8749   -0.5297   H         1 RES1   0.0000
    99 H53      -8.2089    3.3366   -0.8650   H         1 RES1   0.0000
   100 H54      -7.5571    5.5320   -1.6249   H         1 RES1   0.0000
   101 H55      -5.8582    5.2413   -1.2695   H         1 RES1   0.0000
   102 H56      -7.4539    3.5527   -3.2369   H         1 RES1   0.0000
   103 H57      -6.6250    5.0366   -3.6979   H         1 RES1   0.0000
   104 H58      -4.4582    4.0854   -2.9606   H         1 RES1   0.0000
   105 H59      -5.2579    2.5572   -2.5665   H         1 RES1   0.0000
   106 H60      -5.9720    2.3167   -4.9413   H         1 RES1   0.0000
   107 H61      -5.3130    3.9054   -5.3078   H         1 RES1   0.0000
   108 H62      -3.7495    1.3687   -4.6913   H         1 RES1   0.0000
   109 H63      -3.7186    2.3569   -6.1366   H         1 RES1   0.0000
   110 H64      -3.0053    2.9763   -4.6496   H         1 RES1   0.0000
   111 H65      -3.4839    4.3977    0.8695   H         1 RES1   0.0000
   112 H66      -1.9016    4.5603    0.0685   H         1 RES1   0.0000
   113 H67      -5.5573    0.0672   -2.9442   H         1 RES1   0.0000
   114 H68      -4.5660   -1.1777   -3.7609   H         1 RES1   0.0000
   115 H69      -6.1474   -2.9037   -3.1337   H         1 RES1   0.0000
   116 H70      -7.9140   -0.4094   -3.2218   H         1 RES1   0.0000
   117 H71      -7.2718   -1.2261   -4.6393   H         1 RES1   0.0000
   118 H72      -8.4154   -2.0586   -3.5873   H         1 RES1   0.0000
   119 C39      -2.7596    4.0192    7.1986   C.3       1 RES1   0.0000
   120 C40      -1.9876    5.2949    7.5275   C.3       1 RES1   0.0000
   121 C41      -2.4660    6.4925    6.6929   C.3       1 RES1   0.0000
   122 C42      -1.4072    7.5999    6.5243   C.3       1 RES1   0.0000
   123 C43      -1.5835    8.3950    5.2246   C.3       1 RES1   0.0000
   124 C44      -0.4512    9.3824    4.9327   C.3       1 RES1   0.0000
   125 C45      -0.3745    9.7524    3.4391   C.3       1 RES1   0.0000
   126 C46       0.6671    8.9141    2.6981   C.3       1 RES1   0.0000
   127 C47       0.8161    9.1566    1.1825   C.3       1 RES1   0.0000
   128 C48       0.5185   10.5711    0.7201   C.3       1 RES1   0.0000
   129 C49       2.2196    8.7367    0.7636   C.3       1 RES1   0.0000
   130 S3       -0.4373    8.0496    0.3743   S.3       1 RES1   0.0000
   131 C50      -0.0110    8.0672   -1.4082   C.3       1 RES1   0.0000
   132 C51       0.8849    6.8980   -1.8125   C.3       1 RES1   0.0000
   133 C52       0.6183    5.6388   -0.9815   C.3       1 RES1   0.0000
   134 N3        0.9456    4.5141   -1.8490   N.am      1 RES1   0.0000
   135 C53       0.7439    3.2513   -1.4932   C.2       1 RES1   0.0000
   136 O4        0.2225    2.8738   -0.4354   O.2       1 RES1   0.0000
   137 C54       1.2832    2.1593   -2.4321   C.3       1 RES1   0.0000
   138 O5        1.6098    1.0125   -1.6438   O.3       1 RES1   0.0000
   139 C55       2.8055    1.2305   -0.8693   C.3       1 RES1   0.0000
   140 C56       2.5288    0.7362    0.5523   C.2       1 RES1   0.0000
   141 O6        1.4269    1.0465    1.0610   O.2       1 RES1   0.0000
   142 N4        3.3950    0.0218    1.2205   N.am      1 RES1   0.0000
   143 C57       2.9741   -0.5803    2.4758   C.3       1 RES1   0.0000
   144 C58       3.7333   -1.8967    2.4749   C.3       1 RES1   0.0000
   145 C59       3.5550   -2.6299    3.7908   C.3       1 RES1   0.0000
   146 C60       5.1057   -1.4534    1.9190   C.3       1 RES1   0.0000
   147 C61       6.1096   -0.7400    2.8297   C.3       1 RES1   0.0000
   148 S4        5.6104    0.8097    3.6748   S.3       1 RES1   0.0000
   149 C62       6.6250    2.1914    2.9358   C.3       1 RES1   0.0000
   150 C63       6.2357    3.3754    3.8144   C.3       1 RES1   0.0000
   151 C64       8.1116    1.8979    3.0683   C.3       1 RES1   0.0000
   152 C65       6.1839    2.3849    1.4793   C.3       1 RES1   0.0000
   153 C66       6.4979    3.7344    0.8310   C.3       1 RES1   0.0000
   154 C67       5.9858    3.8053   -0.6134   C.3       1 RES1   0.0000
   155 C68       6.7155    2.8508   -1.5603   C.3       1 RES1   0.0000
   156 C69       6.4426    3.0970   -3.0484   C.3       1 RES1   0.0000
   157 C70       5.0615    2.6228   -3.5064   C.3       1 RES1   0.0000
   158 C71       4.8933    2.6810   -5.0267   C.3       1 RES1   0.0000
   159 C72       3.5513    2.1182   -5.4831   C.3       1 RES1   0.0000
   160 C73       4.6455   -0.5589    0.7560   C.3       1 RES1   0.0000
   161 C74       1.2697    4.9875   -3.1902   C.3       1 RES1   0.0000
   162 C75       0.6785    6.4007   -3.2507   C.3       1 RES1   0.0000
   163 C76       1.3454    7.2247   -4.3377   C.3       1 RES1   0.0000
   164 H73      -2.4854    3.2271    7.8892   H         1 RES1   0.0000
   165 H74      -3.8325    4.1744    7.2681   H         1 RES1   0.0000
   166 H75      -2.5371    3.6836    6.1864   H         1 RES1   0.0000
   167 H76      -2.0892    5.5187    8.5891   H         1 RES1   0.0000
   168 H77      -0.9268    5.1172    7.3315   H         1 RES1   0.0000
   169 H78      -2.7468    6.1108    5.7083   H         1 RES1   0.0000
   170 H79      -3.3727    6.9100    7.1355   H         1 RES1   0.0000
   171 H80      -1.4318    8.2805    7.3780   H         1 RES1   0.0000
   172 H81      -0.4172    7.1355    6.5090   H         1 RES1   0.0000
   173 H82      -1.6087    7.6807    4.4015   H         1 RES1   0.0000
   174 H83      -2.5379    8.9267    5.2340   H         1 RES1   0.0000
   175 H84      -0.5911   10.2891    5.5200   H         1 RES1   0.0000
   176 H85       0.4958    8.9405    5.2496   H         1 RES1   0.0000
   177 H86      -0.0894   10.7980    3.3492   H         1 RES1   0.0000
   178 H87      -1.3557    9.6351    2.9742   H         1 RES1   0.0000
   179 H88       1.6384    9.1114    3.1583   H         1 RES1   0.0000
   180 H89       0.4527    7.8512    2.8422   H         1 RES1   0.0000
   181 H90       1.1183   11.2909    1.2652   H         1 RES1   0.0000
   182 H91       0.7556   10.6819   -0.3369   H         1 RES1   0.0000
   183 H92      -0.5314   10.8132    0.8520   H         1 RES1   0.0000
   184 H93       2.9457    9.3720    1.2666   H         1 RES1   0.0000
   185 H94       2.4147    7.7045    1.0494   H         1 RES1   0.0000
   186 H95       2.3742    8.8562   -0.3058   H         1 RES1   0.0000
   187 H96      -0.9698    8.0436   -1.9270   H         1 RES1   0.0000
   188 H97       0.4607    9.0216   -1.6270   H         1 RES1   0.0000
   189 H98       1.9269    7.1949   -1.6881   H         1 RES1   0.0000
   190 H99       1.2142    5.6057   -0.0684   H         1 RES1   0.0000
   191 H100     -0.4328    5.6049   -0.6954   H         1 RES1   0.0000
   192 H101      0.5241    1.8333   -3.1496   H         1 RES1   0.0000
   193 H102      2.1701    2.5120   -2.9662   H         1 RES1   0.0000
   194 H103      3.6475    0.7207   -1.3525   H         1 RES1   0.0000
   195 H104      3.0312    2.3024   -0.8104   H         1 RES1   0.0000
   196 H105      3.2999    0.0511    3.3052   H         1 RES1   0.0000
   197 H106      1.8858   -0.6904    2.5098   H         1 RES1   0.0000
   198 H107      3.3006   -2.5363    1.6907   H         1 RES1   0.0000
   199 H108      3.8732   -2.0381    4.6371   H         1 RES1   0.0000
   200 H109      2.4924   -2.8423    3.9072   H         1 RES1   0.0000
   201 H110      4.0758   -3.5796    3.7894   H         1 RES1   0.0000
   202 H111      5.6445   -2.3160    1.5213   H         1 RES1   0.0000
   203 H112      6.4260   -1.4138    3.6203   H         1 RES1   0.0000
   204 H113      6.9873   -0.4974    2.2376   H         1 RES1   0.0000
   205 H114      6.3833    3.1206    4.8609   H         1 RES1   0.0000
   206 H115      6.8530    4.2418    3.5870   H         1 RES1   0.0000
   207 H116      5.1865    3.6278    3.6693   H         1 RES1   0.0000
   208 H117      8.3717    1.6788    4.1016   H         1 RES1   0.0000
   209 H118      8.4262    1.0590    2.4499   H         1 RES1   0.0000
   210 H119      8.6827    2.7702    2.7578   H         1 RES1   0.0000
   211 H120      6.6708    1.6111    0.8832   H         1 RES1   0.0000
   212 H121      5.0980    2.2477    1.4373   H         1 RES1   0.0000
   213 H122      6.0169    4.5277    1.4019   H         1 RES1   0.0000
   214 H123      7.5716    3.9200    0.8366   H         1 RES1   0.0000
   215 H124      4.9084    3.6065   -0.6246   H         1 RES1   0.0000
   216 H125      6.1332    4.8253   -0.9735   H         1 RES1   0.0000
   217 H126      7.7864    2.9720   -1.3941   H         1 RES1   0.0000
   218 H127      6.4584    1.8132   -1.3299   H         1 RES1   0.0000
   219 H128      6.5563    4.1601   -3.2691   H         1 RES1   0.0000
   220 H129      7.1955    2.5570   -3.6278   H         1 RES1   0.0000
   221 H130      4.9226    1.5850   -3.1816   H         1 RES1   0.0000
   222 H131      4.2896    3.2341   -3.0251   H         1 RES1   0.0000
   223 H132      4.9930    3.7119   -5.3699   H         1 RES1   0.0000
   224 H133      5.6948    2.1038   -5.4898   H         1 RES1   0.0000
   225 H134      2.7288    2.7555   -5.1632   H         1 RES1   0.0000
   226 H135      3.5201    2.0522   -6.5658   H         1 RES1   0.0000
   227 H136      3.3974    1.1196   -5.0770   H         1 RES1   0.0000
   228 H137      5.3757    0.2121    0.5224   H         1 RES1   0.0000
   229 H138      4.4488   -1.1359   -0.1511   H         1 RES1   0.0000
   230 H139      2.3551    5.0554   -3.3273   H         1 RES1   0.0000
   231 H140      0.8440    4.3275   -3.9492   H         1 RES1   0.0000
   232 H141     -0.3930    6.3287   -3.4534   H         1 RES1   0.0000
   233 H142      2.3994    7.3691   -4.1202   H         1 RES1   0.0000
   234 H143      1.2683    6.7090   -5.2916   H         1 RES1   0.0000
   235 H144      0.8818    8.1992   -4.4411   H         1 RES1   0.0000
   236 C77       3.3818    0.0250    7.1243   C.3       1 RES1   0.0000
   237 C78       4.0079   -1.3284    7.4537   C.3       1 RES1   0.0000
   238 C79       5.3452   -1.5746    6.7392   C.3       1 RES1   0.0000
   239 C80       5.6892   -3.0718    6.6169   C.3       1 RES1   0.0000
   240 C81       6.6050   -3.3715    5.4248   C.3       1 RES1   0.0000
   241 C82       6.9501   -4.8537    5.2563   C.3       1 RES1   0.0000
   242 C83       7.3476   -5.2129    3.8123   C.3       1 RES1   0.0000
   243 C84       6.1335   -5.6211    2.9760   C.3       1 RES1   0.0000
   244 C85       6.3711   -6.1159    1.5327   C.3       1 RES1   0.0000
   245 C86       7.6713   -6.8728    1.3284   C.3       1 RES1   0.0000
   246 C87       5.1750   -6.9728    1.1328   C.3       1 RES1   0.0000
   247 S5        6.4221   -4.5822    0.4670   S.3       1 RES1   0.0000
   248 C88       6.0514   -5.1296   -1.2483   C.3       1 RES1   0.0000
   249 C89       4.5818   -4.9089   -1.5816   C.3       1 RES1   0.0000
   250 C90       4.1194   -3.5033   -1.1991   C.3       1 RES1   0.0000
   251 N5        2.8764   -3.3311   -1.9365   N.am      1 RES1   0.0000
   252 C91       1.9065   -2.5151   -1.5587   C.2       1 RES1   0.0000
   253 O7        2.0036   -1.6468   -0.6692   O.2       1 RES1   0.0000
   254 C92       0.5094   -2.6941   -2.1645   C.3       1 RES1   0.0000
   255 O8       -0.4145   -2.2944   -1.1577   O.3       1 RES1   0.0000
   256 C93      -0.3906   -3.2383   -0.0713   C.3       1 RES1   0.0000
   257 C94      -0.7649   -2.4712    1.2015   C.2       1 RES1   0.0000
   258 O9        0.0112   -1.5342    1.5152   O.2       1 RES1   0.0000
   259 N6       -1.8056   -2.8319    1.9043   N.am      1 RES1   0.0000
   260 C95      -2.2207   -2.1599    3.1256   C.3       1 RES1   0.0000
   261 C96      -3.7408   -2.1582    2.9811   C.3       1 RES1   0.0000
   262 C97      -4.5373   -1.7126    4.1952   C.3       1 RES1   0.0000
   263 C98      -4.0007   -3.5709    2.4134   C.3       1 RES1   0.0000
   264 C99      -4.0666   -4.7367    3.4038   C.3       1 RES1   0.0000
   265 S6       -2.4772   -5.4081    4.0224   S.3       1 RES1   0.0000
   266 C100     -2.3602   -7.1606    3.3664   C.3       1 RES1   0.0000
   267 C101     -1.2762   -7.7697    4.2472   C.3       1 RES1   0.0000
   268 C102     -3.6690   -7.9181    3.5241   C.3       1 RES1   0.0000
   269 C103     -1.9248   -7.0541    1.9012   C.3       1 RES1   0.0000
   270 C104     -1.4284   -8.3307    1.2214   C.3       1 RES1   0.0000
   271 C105     -1.0729   -8.0783   -0.2497   C.3       1 RES1   0.0000
   272 C106     -2.3032   -7.9727   -1.1522   C.3       1 RES1   0.0000
   273 C107     -1.9862   -7.6899   -2.6250   C.3       1 RES1   0.0000
   274 C108     -1.6149   -6.2334   -2.9255   C.3       1 RES1   0.0000
   275 C109     -1.5220   -5.9803   -4.4335   C.3       1 RES1   0.0000
   276 C110     -1.2431   -4.5227   -4.7848   C.3       1 RES1   0.0000
   277 C111     -2.8510   -3.7165    1.4118   C.3       1 RES1   0.0000
   278 C112      2.8152   -4.2749   -3.0495   C.3       1 RES1   0.0000
   279 C113      4.1906   -4.9649   -3.0691   C.3       1 RES1   0.0000
   280 C114      4.1031   -6.3656   -3.6567   C.3       1 RES1   0.0000
   281 H145      2.5414    0.2111    7.7881   H         1 RES1   0.0000
   282 H146      4.0936    0.8365    7.2438   H         1 RES1   0.0000
   283 H147      3.0168    0.0421    6.0982   H         1 RES1   0.0000
   284 H148      4.1584   -1.4058    8.5306   H         1 RES1   0.0000
   285 H149      3.2986   -2.1088    7.1638   H         1 RES1   0.0000
   286 H150      5.2922   -1.1265    5.7427   H         1 RES1   0.0000
   287 H151      6.1464   -1.0544    7.2682   H         1 RES1   0.0000
   288 H152      6.1546   -3.4243    7.5392   H         1 RES1   0.0000
   289 H153      4.7596   -3.6336    6.4868   H         1 RES1   0.0000
   290 H154      6.0865   -3.0481    4.5236   H         1 RES1   0.0000
   291 H155      7.5269   -2.7927    5.5129   H         1 RES1   0.0000
   292 H156      7.7718   -5.1137    5.9226   H         1 RES1   0.0000
   293 H157      6.0922   -5.4592    5.5570   H         1 RES1   0.0000
   294 H158      7.8693   -4.3737    3.3471   H         1 RES1   0.0000
   295 H159      8.0354   -6.0546    3.8472   H         1 RES1   0.0000
   296 H160      5.6284   -6.4304    3.5104   H         1 RES1   0.0000
   297 H161      5.4367   -4.7817    2.9164   H         1 RES1   0.0000
   298 H162      7.7471   -7.6905    2.0398   H         1 RES1   0.0000
   299 H163      7.7175   -7.2974    0.3270   H         1 RES1   0.0000
   300 H164      8.5284   -6.2186    1.4559   H         1 RES1   0.0000
   301 H165      5.1372   -7.8543    1.7696   H         1 RES1   0.0000
   302 H166      4.2490   -6.4166    1.2726   H         1 RES1   0.0000
   303 H167      5.2450   -7.3238    0.1058   H         1 RES1   0.0000
   304 H168      6.7021   -4.5402   -1.8940   H         1 RES1   0.0000
   305 H169      6.3436   -6.1698   -1.3589   H         1 RES1   0.0000
   306 H170      3.9738   -5.6334   -1.0346   H         1 RES1   0.0000
   307 H171      3.9611   -3.3875   -0.1272   H         1 RES1   0.0000
   308 H172      4.8776   -2.7914   -1.5299   H         1 RES1   0.0000
   309 H173      0.3606   -2.0311   -3.0210   H         1 RES1   0.0000
   310 H174      0.3086   -3.7278   -2.4644   H         1 RES1   0.0000
   311 H175     -1.0253   -4.0975   -0.3121   H         1 RES1   0.0000
   312 H176      0.6400   -3.5835    0.1080   H         1 RES1   0.0000
   313 H177     -1.9097   -2.7643    3.9836   H         1 RES1   0.0000
   314 H178     -1.7677   -1.1693    3.1792   H         1 RES1   0.0000
   315 H179     -3.9795   -1.4592    2.1698   H         1 RES1   0.0000
   316 H180     -4.2970   -2.2694    5.0918   H         1 RES1   0.0000
   317 H181     -4.3440   -0.6601    4.3887   H         1 RES1   0.0000
   318 H182     -5.5991   -1.8136    3.9853   H         1 RES1   0.0000
   319 H183     -4.9617   -3.5761    1.8968   H         1 RES1   0.0000
   320 H184     -4.6338   -4.4426    4.2801   H         1 RES1   0.0000
   321 H185     -4.5892   -5.5657    2.9430   H         1 RES1   0.0000
   322 H186     -1.5709   -7.7070    5.2913   H         1 RES1   0.0000
   323 H187     -1.1217   -8.8171    4.0002   H         1 RES1   0.0000
   324 H188     -0.3387   -7.2297    4.1232   H         1 RES1   0.0000
   325 H189     -4.0666   -7.8164    4.5308   H         1 RES1   0.0000
   326 H190     -4.4264   -7.5913    2.8132   H         1 RES1   0.0000
   327 H191     -3.4939   -8.9757    3.3410   H         1 RES1   0.0000
   328 H192     -2.7802   -6.6842    1.3307   H         1 RES1   0.0000
   329 H193     -1.1115   -6.3213    1.8521   H         1 RES1   0.0000
   330 H194     -0.5371   -8.6829    1.7379   H         1 RES1   0.0000
   331 H195     -2.1825   -9.1146    1.2762   H         1 RES1   0.0000
   332 H196     -0.4610   -7.1730   -0.3232   H         1 RES1   0.0000
   333 H197     -0.4648   -8.9120   -0.6054   H         1 RES1   0.0000
   334 H198     -2.8292   -8.9269   -1.1041   H         1 RES1   0.0000
   335 H199     -2.9864   -7.2017   -0.7868   H         1 RES1   0.0000
   336 H200     -1.1792   -8.3482   -2.9535   H         1 RES1   0.0000
   337 H201     -2.8715   -7.9354   -3.2169   H         1 RES1   0.0000
   338 H202     -2.3839   -5.5767   -2.5020   H         1 RES1   0.0000
   339 H203     -0.6616   -5.9849   -2.4436   H         1 RES1   0.0000
   340 H204     -0.7398   -6.6094   -4.8612   H         1 RES1   0.0000
   341 H205     -2.4662   -6.2767   -4.8928   H         1 RES1   0.0000
   342 H206     -0.2338   -4.2363   -4.4971   H         1 RES1   0.0000
   343 H207     -1.3349   -4.3732   -5.8559   H         1 RES1   0.0000
   344 H208     -1.9511   -3.8637   -4.2841   H         1 RES1   0.0000
   345 H209     -2.4924   -4.7411    1.3718   H         1 RES1   0.0000
   346 H210     -3.1354   -3.3911    0.4081   H         1 RES1   0.0000
   347 H211      2.0520   -5.0339   -2.8543   H         1 RES1   0.0000
   348 H212      2.5697   -3.7632   -3.9845   H         1 RES1   0.0000
   349 H213      4.8882   -4.3662   -3.6607   H         1 RES1   0.0000
   350 H214      3.4880   -7.0135   -3.0388   H         1 RES1   0.0000
   351 H215      3.6645   -6.3359   -4.6509   H         1 RES1   0.0000
   352 H216      5.0861   -6.8171   -3.7365   H         1 RES1   0.0000
@<TRIPOS>BOND
     1     1    19    1
     2     1    21    1
     3     1    24    1
     4     1   136    1
     5     1   138    1
     6     1   141    1
     7     1   253    1
     8     1   255    1
     9     1   258    1
    10     2     3    1
    11     2    47    1
    12     2    48    1
    13     2    49    1
    14     3     4    1
    15     3    50    1
    16     3    51    1
    17     4     5    1
    18     4    52    1
    19     4    53    1
    20     5     6    1
    21     5    54    1
    22     5    55    1
    23     6     7    1
    24     6    56    1
    25     6    57    1
    26     7     8    1
    27     7    58    1
    28     7    59    1
    29     8     9    1
    30     8    60    1
    31     8    61    1
    32     9    10    1
    33     9    62    1
    34     9    63    1
    35    10    11    1
    36    10    12    1
    37    10    13    1
    38    11    64    1
    39    11    65    1
    40    11    66    1
    41    12    67    1
    42    12    68    1
    43    12    69    1
    44    13    14    1
    45    14    15    1
    46    14    70    1
    47    14    71    1
    48    15    16    1
    49    15    45    1
    50    15    72    1
    51    16    17    1
    52    16    73    1
    53    16    74    1
    54    17    18    1
    55    17    44    1
    56    18    19    2
    57    18    20    1
    58    20    21    1
    59    20    75    1
    60    20    76    1
    61    21    22    1
    62    22    23    1
    63    22    77    1
    64    22    78    1
    65    23    24    2
    66    23    25    1
    67    25    26    1
    68    25    43    1
    69    26    27    1
    70    26    79    1
    71    26    80    1
    72    27    28    1
    73    27    29    1
    74    27    81    1
    75    28    82    1
    76    28    83    1
    77    28    84    1
    78    29    30    1
    79    29    43    1
    80    29    85    1
    81    30    31    1
    82    30    86    1
    83    30    87    1
    84    31    32    1
    85    32    33    1
    86    32    34    1
    87    32    35    1
    88    33    88    1
    89    33    89    1
    90    33    90    1
    91    34    91    1
    92    34    92    1
    93    34    93    1
    94    35    36    1
    95    35    94    1
    96    35    95    1
    97    36    37    1
    98    36    96    1
    99    36    97    1
   100    37    38    1
   101    37    98    1
   102    37    99    1
   103    38    39    1
   104    38   100    1
   105    38   101    1
   106    39    40    1
   107    39   102    1
   108    39   103    1
   109    40    41    1
   110    40   104    1
   111    40   105    1
   112    41    42    1
   113    41   106    1
   114    41   107    1
   115    42   108    1
   116    42   109    1
   117    42   110    1
   118    43   111    1
   119    43   112    1
   120    44    45    1
   121    44   113    1
   122    44   114    1
   123    45    46    1
   124    45   115    1
   125    46   116    1
   126    46   117    1
   127    46   118    1
   128   119   120    1
   129   119   164    1
   130   119   165    1
   131   119   166    1
   132   120   121    1
   133   120   167    1
   134   120   168    1
   135   121   122    1
   136   121   169    1
   137   121   170    1
   138   122   123    1
   139   122   171    1
   140   122   172    1
   141   123   124    1
   142   123   173    1
   143   123   174    1
   144   124   125    1
   145   124   175    1
   146   124   176    1
   147   125   126    1
   148   125   177    1
   149   125   178    1
   150   126   127    1
   151   126   179    1
   152   126   180    1
   153   127   128    1
   154   127   129    1
   155   127   130    1
   156   128   181    1
   157   128   182    1
   158   128   183    1
   159   129   184    1
   160   129   185    1
   161   129   186    1
   162   130   131    1
   163   131   132    1
   164   131   187    1
   165   131   188    1
   166   132   133    1
   167   132   162    1
   168   132   189    1
   169   133   134    1
   170   133   190    1
   171   133   191    1
   172   134   135    1
   173   134   161    1
   174   135   136    2
   175   135   137    1
   176   137   138    1
   177   137   192    1
   178   137   193    1
   179   138   139    1
   180   139   140    1
   181   139   194    1
   182   139   195    1
   183   140   141    2
   184   140   142    1
   185   142   143    1
   186   142   160    1
   187   143   144    1
   188   143   196    1
   189   143   197    1
   190   144   145    1
   191   144   146    1
   192   144   198    1
   193   145   199    1
   194   145   200    1
   195   145   201    1
   196   146   147    1
   197   146   160    1
   198   146   202    1
   199   147   148    1
   200   147   203    1
   201   147   204    1
   202   148   149    1
   203   149   150    1
   204   149   151    1
   205   149   152    1
   206   150   205    1
   207   150   206    1
   208   150   207    1
   209   151   208    1
   210   151   209    1
   211   151   210    1
   212   152   153    1
   213   152   211    1
   214   152   212    1
   215   153   154    1
   216   153   213    1
   217   153   214    1
   218   154   155    1
   219   154   215    1
   220   154   216    1
   221   155   156    1
   222   155   217    1
   223   155   218    1
   224   156   157    1
   225   156   219    1
   226   156   220    1
   227   157   158    1
   228   157   221    1
   229   157   222    1
   230   158   159    1
   231   158   223    1
   232   158   224    1
   233   159   225    1
   234   159   226    1
   235   159   227    1
   236   160   228    1
   237   160   229    1
   238   161   162    1
   239   161   230    1
   240   161   231    1
   241   162   163    1
   242   162   232    1
   243   163   233    1
   244   163   234    1
   245   163   235    1
   246   236   237    1
   247   236   281    1
   248   236   282    1
   249   236   283    1
   250   237   238    1
   251   237   284    1
   252   237   285    1
   253   238   239    1
   254   238   286    1
   255   238   287    1
   256   239   240    1
   257   239   288    1
   258   239   289    1
   259   240   241    1
   260   240   290    1
   261   240   291    1
   262   241   242    1
   263   241   292    1
   264   241   293    1
   265   242   243    1
   266   242   294    1
   267   242   295    1
   268   243   244    1
   269   243   296    1
   270   243   297    1
   271   244   245    1
   272   244   246    1
   273   244   247    1
   274   245   298    1
   275   245   299    1
   276   245   300    1
   277   246   301    1
   278   246   302    1
   279   246   303    1
   280   247   248    1
   281   248   249    1
   282   248   304    1
   283   248   305    1
   284   249   250    1
   285   249   279    1
   286   249   306    1
   287   250   251    1
   288   250   307    1
   289   250   308    1
   290   251   252    1
   291   251   278    1
   292   252   253    2
   293   252   254    1
   294   254   255    1
   295   254   309    1
   296   254   310    1
   297   255   256    1
   298   256   257    1
   299   256   311    1
   300   256   312    1
   301   257   258    2
   302   257   259    1
   303   259   260    1
   304   259   277    1
   305   260   261    1
   306   260   313    1
   307   260   314    1
   308   261   262    1
   309   261   263    1
   310   261   315    1
   311   262   316    1
   312   262   317    1
   313   262   318    1
   314   263   264    1
   315   263   277    1
   316   263   319    1
   317   264   265    1
   318   264   320    1
   319   264   321    1
   320   265   266    1
   321   266   267    1
   322   266   268    1
   323   266   269    1
   324   267   322    1
   325   267   323    1
   326   267   324    1
   327   268   325    1
   328   268   326    1
   329   268   327    1
   330   269   270    1
   331   269   328    1
   332   269   329    1
   333   270   271    1
   334   270   330    1
   335   270   331    1
   336   271   272    1
   337   271   332    1
   338   271   333    1
   339   272   273    1
   340   272   334    1
   341   272   335    1
   342   273   274    1
   343   273   336    1
   344   273   337    1
   345   274   275    1
   346   274   338    1
   347   274   339    1
   348   275   276    1
   349   275   340    1
   350   275   341    1
   351   276   342    1
   352   276   343    1
   353   276   344    1
   354   277   345    1
   355   277   346    1
   356   278   279    1
   357   278   347    1
   358   278   348    1
   359   279   280    1
   360   279   349    1
   361   280   350    1
   362   280   351    1
   363   280   352    1
@<TRIPOS>SUBSTRUCTURE
     1 RES1      352 GROUP             0 ****  ****    0  
