@<TRIPOS>MOLECULE
am_c3_9H2O_c0_0_nunpairedes_0_charge_3 Charge: 3 Unpaired_Electrons: 7 XTB_Unpaired_Electrons: 0 XTB_Charge: 3
   196   201     1     0     0
SMALL
NoCharges
****
Generated from Architector

@<TRIPOS>ATOM
     1 Gd1      -0.1849   -0.1136    0.0836   Gd        1 RES1   0.0000
     2 C1       -0.3419    2.6501    5.8216   C.3       1 RES1   0.0000
     3 C2        0.3102    3.8039    5.0770   C.3       1 RES1   0.0000
     4 C3        0.2311    3.6568    3.5559   C.3       1 RES1   0.0000
     5 C4       -1.1955    3.8255    3.0285   C.3       1 RES1   0.0000
     6 N1       -1.2547    4.0393    1.5795   N.am      1 RES1   0.0000
     7 C5       -1.6512    5.3803    1.1627   C.3       1 RES1   0.0000
     8 C6       -0.6286    6.4753    1.5127   C.3       1 RES1   0.0000
     9 C7        0.4589    6.6790    0.4550   C.3       1 RES1   0.0000
    10 C8        1.5116    5.5748    0.4462   C.3       1 RES1   0.0000
    11 C9       -1.1129    2.9906    0.7841   C.2       1 RES1   0.0000
    12 O1       -0.7332    1.8781    1.2000   O.2       1 RES1   0.0000
    13 C10      -1.4633    3.1405   -0.7014   C.3       1 RES1   0.0000
    14 O2       -1.3898    1.8790   -1.3586   O.3       1 RES1   0.0000
    15 C11      -2.6154    1.3701   -1.8855   C.3       1 RES1   0.0000
    16 C12      -3.1275    0.2174   -1.0133   C.2       1 RES1   0.0000
    17 O3       -2.4535   -0.0871   -0.0169   O.2       1 RES1   0.0000
    18 N2       -4.2193   -0.4406   -1.3720   N.am      1 RES1   0.0000
    19 C13      -4.4499   -1.7484   -0.7450   C.3       1 RES1   0.0000
    20 C14      -5.1132   -1.7317    0.6327   C.3       1 RES1   0.0000
    21 C15      -5.3611   -3.1613    1.1203   C.3       1 RES1   0.0000
    22 C16      -5.9891   -3.1749    2.5085   C.3       1 RES1   0.0000
    23 C17      -5.0804   -0.0309   -2.4767   C.3       1 RES1   0.0000
    24 C18      -5.9229    1.2389   -2.2819   C.3       1 RES1   0.0000
    25 C19      -6.8159    1.2205   -1.0380   C.3       1 RES1   0.0000
    26 C20      -6.0966    1.6924    0.2246   C.3       1 RES1   0.0000
    27 H1       -0.1246    2.7302    6.8810   H         1 RES1   0.0000
    28 H2       -1.4186    2.6692    5.6985   H         1 RES1   0.0000
    29 H3        0.0337    1.6965    5.4587   H         1 RES1   0.0000
    30 H4       -0.1644    4.7402    5.3718   H         1 RES1   0.0000
    31 H5        1.3608    3.8691    5.3625   H         1 RES1   0.0000
    32 H6        0.8666    4.4169    3.0940   H         1 RES1   0.0000
    33 H7        0.5836    2.6673    3.2539   H         1 RES1   0.0000
    34 H8       -1.7759    2.9251    3.2478   H         1 RES1   0.0000
    35 H9       -1.6718    4.6834    3.5057   H         1 RES1   0.0000
    36 H10      -1.8230    5.4170    0.0885   H         1 RES1   0.0000
    37 H11      -2.5989    5.5956    1.6679   H         1 RES1   0.0000
    38 H12      -1.1801    7.4100    1.6136   H         1 RES1   0.0000
    39 H13      -0.1628    6.2644    2.4730   H         1 RES1   0.0000
    40 H14      -0.0021    6.7591   -0.5320   H         1 RES1   0.0000
    41 H15       0.9624    7.6252    0.6529   H         1 RES1   0.0000
    42 H16       1.0543    4.6069    0.2396   H         1 RES1   0.0000
    43 H17       2.2682    5.7781   -0.3099   H         1 RES1   0.0000
    44 H18       2.0172    5.5334    1.4106   H         1 RES1   0.0000
    45 H19      -2.4694    3.5576   -0.7791   H         1 RES1   0.0000
    46 H20      -0.7646    3.8130   -1.2136   H         1 RES1   0.0000
    47 H21      -3.3630    2.1617   -1.9633   H         1 RES1   0.0000
    48 H22      -2.3843    1.0058   -2.8985   H         1 RES1   0.0000
    49 H23      -5.0601   -2.3376   -1.4307   H         1 RES1   0.0000
    50 H24      -3.4652   -2.2208   -0.6493   H         1 RES1   0.0000
    51 H25      -4.4578   -1.2115    1.3347   H         1 RES1   0.0000
    52 H26      -6.0693   -1.2100    0.5872   H         1 RES1   0.0000
    53 H27      -6.0292   -3.6738    0.4257   H         1 RES1   0.0000
    54 H28      -4.4183   -3.7141    1.1373   H         1 RES1   0.0000
    55 H29      -6.9443   -2.6564    2.5041   H         1 RES1   0.0000
    56 H30      -6.1638   -4.1962    2.8334   H         1 RES1   0.0000
    57 H31      -5.3406   -2.6900    3.2348   H         1 RES1   0.0000
    58 H32      -4.4707    0.0694   -3.3811   H         1 RES1   0.0000
    59 H33      -5.7814   -0.8469   -2.6432   H         1 RES1   0.0000
    60 H34      -5.3088    2.1399   -2.2642   H         1 RES1   0.0000
    61 H35      -6.5512    1.3090   -3.1720   H         1 RES1   0.0000
    62 H36      -7.6669    1.8797   -1.2150   H         1 RES1   0.0000
    63 H37      -7.2124    0.2154   -0.8842   H         1 RES1   0.0000
    64 H38      -5.7634    2.7247    0.1157   H         1 RES1   0.0000
    65 H39      -6.7801    1.6545    1.0704   H         1 RES1   0.0000
    66 H40      -5.2325    1.0708    0.4525   H         1 RES1   0.0000
    67 C21       1.0713   -1.6648   -7.3498   C.3       1 RES1   0.0000
    68 C22       0.6096   -0.2378   -7.1011   C.3       1 RES1   0.0000
    69 C23       0.3757    0.0710   -5.6206   C.3       1 RES1   0.0000
    70 C24       1.6882    0.2113   -4.8335   C.3       1 RES1   0.0000
    71 N3        1.7544    1.3380   -3.9002   N.am      1 RES1   0.0000
    72 C25       2.3102    2.5710   -4.4459   C.3       1 RES1   0.0000
    73 C26       1.4072    3.2882   -5.4605   C.3       1 RES1   0.0000
    74 C27       0.2008    4.0234   -4.8613   C.3       1 RES1   0.0000
    75 C28      -1.0059    3.1493   -4.5227   C.3       1 RES1   0.0000
    76 C29       1.4809    1.1535   -2.6181   C.2       1 RES1   0.0000
    77 O4        0.9052    0.1414   -2.1708   O.2       1 RES1   0.0000
    78 C30       2.0120    2.1805   -1.6109   C.3       1 RES1   0.0000
    79 O5        1.6284    1.7278   -0.3234   O.3       1 RES1   0.0000
    80 C31       2.5281    2.0916    0.7174   C.3       1 RES1   0.0000
    81 C32       2.3087    1.1004    1.8566   C.2       1 RES1   0.0000
    82 O6        1.5739    0.1167    1.6439   O.2       1 RES1   0.0000
    83 N4        2.9569    1.2695    3.0019   N.am      1 RES1   0.0000
    84 C33       2.8247    0.1880    3.9786   C.3       1 RES1   0.0000
    85 C34       3.8981   -0.8814    3.7695   C.3       1 RES1   0.0000
    86 C35       3.8807   -1.9346    4.8750   C.3       1 RES1   0.0000
    87 C36       4.7627   -3.1256    4.5212   C.3       1 RES1   0.0000
    88 C37       3.6317    2.4857    3.4569   C.3       1 RES1   0.0000
    89 C38       4.8586    3.0395    2.7238   C.3       1 RES1   0.0000
    90 C39       6.0624    2.1013    2.6218   C.3       1 RES1   0.0000
    91 C40       5.9740    1.1283    1.4504   C.3       1 RES1   0.0000
    92 H41       1.1458   -1.8559   -8.4145   H         1 RES1   0.0000
    93 H42       2.0472   -1.8491   -6.9098   H         1 RES1   0.0000
    94 H43       0.3525   -2.3692   -6.9389   H         1 RES1   0.0000
    95 H44       1.3448    0.4584   -7.5047   H         1 RES1   0.0000
    96 H45      -0.3245   -0.0705   -7.6355   H         1 RES1   0.0000
    97 H46      -0.1829    0.9965   -5.5386   H         1 RES1   0.0000
    98 H47      -0.2361   -0.7127   -5.1791   H         1 RES1   0.0000
    99 H48       1.8802   -0.6942   -4.2547   H         1 RES1   0.0000
   100 H49       2.5147    0.3624   -5.5343   H         1 RES1   0.0000
   101 H50       2.5364    3.2785   -3.6516   H         1 RES1   0.0000
   102 H51       3.2583    2.3134   -4.9299   H         1 RES1   0.0000
   103 H52       2.0424    4.0388   -5.9311   H         1 RES1   0.0000
   104 H53       1.0872    2.5983   -6.2377   H         1 RES1   0.0000
   105 H54       0.5201    4.5680   -3.9685   H         1 RES1   0.0000
   106 H55      -0.1317    4.7679   -5.5856   H         1 RES1   0.0000
   107 H56      -0.7450    2.3679   -3.8088   H         1 RES1   0.0000
   108 H57      -1.7932    3.7669   -4.0915   H         1 RES1   0.0000
   109 H58      -1.4139    2.6995   -5.4278   H         1 RES1   0.0000
   110 H59       3.1077    2.1814   -1.7023   H         1 RES1   0.0000
   111 H60       1.6377    3.1977   -1.7833   H         1 RES1   0.0000
   112 H61       3.5608    1.9756    0.3715   H         1 RES1   0.0000
   113 H62       2.3699    3.1332    1.0234   H         1 RES1   0.0000
   114 H63       2.8903    0.6115    4.9800   H         1 RES1   0.0000
   115 H64       1.8341   -0.2566    3.8521   H         1 RES1   0.0000
   116 H65       3.7316   -1.3595    2.8003   H         1 RES1   0.0000
   117 H66       4.8821   -0.4136    3.7446   H         1 RES1   0.0000
   118 H67       4.2413   -1.4917    5.8025   H         1 RES1   0.0000
   119 H68       2.8553   -2.2671    5.0511   H         1 RES1   0.0000
   120 H69       5.7866   -2.8028    4.3514   H         1 RES1   0.0000
   121 H70       4.7693   -3.8445    5.3349   H         1 RES1   0.0000
   122 H71       4.4111   -3.6285    3.6213   H         1 RES1   0.0000
   123 H72       2.8875    3.2850    3.5116   H         1 RES1   0.0000
   124 H73       3.9490    2.2717    4.4763   H         1 RES1   0.0000
   125 H74       4.6005    3.4176    1.7352   H         1 RES1   0.0000
   126 H75       5.1575    3.9019    3.3233   H         1 RES1   0.0000
   127 H76       6.9542    2.7148    2.4888   H         1 RES1   0.0000
   128 H77       6.1869    1.5506    3.5559   H         1 RES1   0.0000
   129 H78       5.9681    1.6734    0.5059   H         1 RES1   0.0000
   130 H79       6.8454    0.4773    1.4479   H         1 RES1   0.0000
   131 H80       5.0794    0.5096    1.5140   H         1 RES1   0.0000
   132 C41      -3.4433   -3.0361   -5.7305   C.3       1 RES1   0.0000
   133 C42      -3.5398   -3.2925   -4.2319   C.3       1 RES1   0.0000
   134 C43      -2.2658   -3.8889   -3.6324   C.3       1 RES1   0.0000
   135 C44      -1.0848   -2.9271   -3.7828   C.3       1 RES1   0.0000
   136 N5        0.0437   -3.2751   -2.9305   N.am      1 RES1   0.0000
   137 C45       0.9566   -4.2801   -3.4542   C.3       1 RES1   0.0000
   138 C46       1.9784   -3.7093   -4.4459   C.3       1 RES1   0.0000
   139 C47       3.2429   -3.1197   -3.8172   C.3       1 RES1   0.0000
   140 C48       4.2656   -2.7229   -4.8809   C.3       1 RES1   0.0000
   141 C49       0.1629   -2.6739   -1.7586   C.2       1 RES1   0.0000
   142 O7       -0.6697   -1.8415   -1.3414   O.2       1 RES1   0.0000
   143 C50       1.3743   -3.0115   -0.8920   C.3       1 RES1   0.0000
   144 O8        1.3443   -2.2593    0.3106   O.3       1 RES1   0.0000
   145 C51       1.1191   -2.9987    1.5094   C.3       1 RES1   0.0000
   146 C52      -0.1330   -2.4803    2.2174   C.2       1 RES1   0.0000
   147 O9       -0.8160   -1.6048    1.6518   O.2       1 RES1   0.0000
   148 N6       -0.4731   -2.9904    3.3907   N.am      1 RES1   0.0000
   149 C53       0.3380   -3.9154    4.1722   C.3       1 RES1   0.0000
   150 C54       0.4194   -5.3678    3.6825   C.3       1 RES1   0.0000
   151 C55      -0.9209   -6.0895    3.5314   C.3       1 RES1   0.0000
   152 C56      -1.7229   -5.6742    2.3005   C.3       1 RES1   0.0000
   153 C57      -1.7558   -2.5730    3.9582   C.3       1 RES1   0.0000
   154 C58      -1.7134   -1.2374    4.7018   C.3       1 RES1   0.0000
   155 C59      -3.0564   -1.0211    5.4016   C.3       1 RES1   0.0000
   156 C60      -3.1594    0.3210    6.1113   C.3       1 RES1   0.0000
   157 H81      -4.4198   -2.7562   -6.1134   H         1 RES1   0.0000
   158 H82      -3.1258   -3.9341   -6.2519   H         1 RES1   0.0000
   159 H83      -2.7477   -2.2333   -5.9627   H         1 RES1   0.0000
   160 H84      -4.3537   -3.9928   -4.0512   H         1 RES1   0.0000
   161 H85      -3.7796   -2.3602   -3.7146   H         1 RES1   0.0000
   162 H86      -2.0316   -4.8265   -4.1400   H         1 RES1   0.0000
   163 H87      -2.4288   -4.1006   -2.5723   H         1 RES1   0.0000
   164 H88      -1.3990   -1.9150   -3.5121   H         1 RES1   0.0000
   165 H89      -0.7311   -2.9489   -4.8137   H         1 RES1   0.0000
   166 H90       0.3353   -5.0212   -3.9625   H         1 RES1   0.0000
   167 H91       1.4812   -4.7903   -2.6482   H         1 RES1   0.0000
   168 H92       1.4908   -2.9459   -5.0488   H         1 RES1   0.0000
   169 H93       2.2697   -4.5187   -5.1148   H         1 RES1   0.0000
   170 H94       3.7059   -3.8540   -3.1547   H         1 RES1   0.0000
   171 H95       2.9911   -2.2341   -3.2236   H         1 RES1   0.0000
   172 H96       4.5279   -3.5766   -5.5007   H         1 RES1   0.0000
   173 H97       5.1787   -2.3607   -4.4131   H         1 RES1   0.0000
   174 H98       3.8837   -1.9373   -5.5311   H         1 RES1   0.0000
   175 H99       2.3003   -2.7425   -1.4132   H         1 RES1   0.0000
   176 H100      1.3871   -4.0850   -0.6869   H         1 RES1   0.0000
   177 H101      1.9987   -2.8790    2.1562   H         1 RES1   0.0000
   178 H102      0.9865   -4.0586    1.2770   H         1 RES1   0.0000
   179 H103     -0.0917   -3.9256    5.1736   H         1 RES1   0.0000
   180 H104      1.3537   -3.5196    4.2646   H         1 RES1   0.0000
   181 H105      1.0100   -5.8974    4.4318   H         1 RES1   0.0000
   182 H106      0.9738   -5.4361    2.7464   H         1 RES1   0.0000
   183 H107     -1.5251   -5.9440    4.4279   H         1 RES1   0.0000
   184 H108     -0.7109   -7.1575    3.4570   H         1 RES1   0.0000
   185 H109     -2.0545   -4.6411    2.3628   H         1 RES1   0.0000
   186 H110     -2.6022   -6.3083    2.2133   H         1 RES1   0.0000
   187 H111     -1.1326   -5.7975    1.3923   H         1 RES1   0.0000
   188 H112     -2.0897   -3.3606    4.6338   H         1 RES1   0.0000
   189 H113     -2.4712   -2.4802    3.1367   H         1 RES1   0.0000
   190 H114     -1.5235   -0.4385    3.9801   H         1 RES1   0.0000
   191 H115     -0.9100   -1.2364    5.4409   H         1 RES1   0.0000
   192 H116     -3.2054   -1.8172    6.1321   H         1 RES1   0.0000
   193 H117     -3.8569   -1.0956    4.6637   H         1 RES1   0.0000
   194 H118     -2.3422    0.4541    6.8154   H         1 RES1   0.0000
   195 H119     -4.0919    0.3702    6.6660   H         1 RES1   0.0000
   196 H120     -3.1462    1.1410    5.3963   H         1 RES1   0.0000
@<TRIPOS>BOND
     1     1    12    1
     2     1    14    1
     3     1    17    1
     4     1    77    1
     5     1    79    1
     6     1    82    1
     7     1   142    1
     8     1   144    1
     9     1   147    1
    10     2     3    1
    11     2    27    1
    12     2    28    1
    13     2    29    1
    14     3     4    1
    15     3    30    1
    16     3    31    1
    17     4     5    1
    18     4    32    1
    19     4    33    1
    20     5     6    1
    21     5    34    1
    22     5    35    1
    23     6     7    1
    24     6    11    1
    25     7     8    1
    26     7    36    1
    27     7    37    1
    28     8     9    1
    29     8    38    1
    30     8    39    1
    31     9    10    1
    32     9    40    1
    33     9    41    1
    34    10    42    1
    35    10    43    1
    36    10    44    1
    37    11    12    2
    38    11    13    1
    39    13    14    1
    40    13    45    1
    41    13    46    1
    42    14    15    1
    43    15    16    1
    44    15    47    1
    45    15    48    1
    46    16    17    2
    47    16    18    1
    48    18    19    1
    49    18    23    1
    50    19    20    1
    51    19    49    1
    52    19    50    1
    53    20    21    1
    54    20    51    1
    55    20    52    1
    56    21    22    1
    57    21    53    1
    58    21    54    1
    59    22    55    1
    60    22    56    1
    61    22    57    1
    62    23    24    1
    63    23    58    1
    64    23    59    1
    65    24    25    1
    66    24    60    1
    67    24    61    1
    68    25    26    1
    69    25    62    1
    70    25    63    1
    71    26    64    1
    72    26    65    1
    73    26    66    1
    74    67    68    1
    75    67    92    1
    76    67    93    1
    77    67    94    1
    78    68    69    1
    79    68    95    1
    80    68    96    1
    81    69    70    1
    82    69    97    1
    83    69    98    1
    84    70    71    1
    85    70    99    1
    86    70   100    1
    87    71    72    1
    88    71    76    1
    89    72    73    1
    90    72   101    1
    91    72   102    1
    92    73    74    1
    93    73   103    1
    94    73   104    1
    95    74    75    1
    96    74   105    1
    97    74   106    1
    98    75   107    1
    99    75   108    1
   100    75   109    1
   101    76    77    2
   102    76    78    1
   103    78    79    1
   104    78   110    1
   105    78   111    1
   106    79    80    1
   107    80    81    1
   108    80   112    1
   109    80   113    1
   110    81    82    2
   111    81    83    1
   112    83    84    1
   113    83    88    1
   114    84    85    1
   115    84   114    1
   116    84   115    1
   117    85    86    1
   118    85   116    1
   119    85   117    1
   120    86    87    1
   121    86   118    1
   122    86   119    1
   123    87   120    1
   124    87   121    1
   125    87   122    1
   126    88    89    1
   127    88   123    1
   128    88   124    1
   129    89    90    1
   130    89   125    1
   131    89   126    1
   132    90    91    1
   133    90   127    1
   134    90   128    1
   135    91   129    1
   136    91   130    1
   137    91   131    1
   138   132   133    1
   139   132   157    1
   140   132   158    1
   141   132   159    1
   142   133   134    1
   143   133   160    1
   144   133   161    1
   145   134   135    1
   146   134   162    1
   147   134   163    1
   148   135   136    1
   149   135   164    1
   150   135   165    1
   151   136   137    1
   152   136   141    1
   153   137   138    1
   154   137   166    1
   155   137   167    1
   156   138   139    1
   157   138   168    1
   158   138   169    1
   159   139   140    1
   160   139   170    1
   161   139   171    1
   162   140   172    1
   163   140   173    1
   164   140   174    1
   165   141   142    2
   166   141   143    1
   167   143   144    1
   168   143   175    1
   169   143   176    1
   170   144   145    1
   171   145   146    1
   172   145   177    1
   173   145   178    1
   174   146   147    2
   175   146   148    1
   176   148   149    1
   177   148   153    1
   178   149   150    1
   179   149   179    1
   180   149   180    1
   181   150   151    1
   182   150   181    1
   183   150   182    1
   184   151   152    1
   185   151   183    1
   186   151   184    1
   187   152   185    1
   188   152   186    1
   189   152   187    1
   190   153   154    1
   191   153   188    1
   192   153   189    1
   193   154   155    1
   194   154   190    1
   195   154   191    1
   196   155   156    1
   197   155   192    1
   198   155   193    1
   199   156   194    1
   200   156   195    1
   201   156   196    1
@<TRIPOS>SUBSTRUCTURE
     1 RES1      196 GROUP             0 ****  ****    0  
