@<TRIPOS>MOLECULE
am_c3_9H2O_c0_0_nunpairedes_0_charge_3 Charge: 3 Unpaired_Electrons: 7 XTB_Unpaired_Electrons: 0 XTB_Charge: 3
   214   219     1     0     0
SMALL
NoCharges
****
Generated from Architector

@<TRIPOS>ATOM
     1 Gd1      -0.0871   -0.2113   -0.7316   Gd        1 RES1   0.0000
     2 C1       -3.9147   -0.4565   -2.7014   C.3       1 RES1   0.0000
     3 C2       -3.9346    0.0051   -4.1561   C.3       1 RES1   0.0000
     4 C3       -3.3009    1.3825   -4.3456   C.3       1 RES1   0.0000
     5 C4       -4.0192    2.5109   -3.6093   C.3       1 RES1   0.0000
     6 C5       -3.2993    3.8463   -3.8200   C.3       1 RES1   0.0000
     7 C6       -4.2451    5.0429   -3.6569   C.3       1 RES1   0.0000
     8 C7       -5.1576    5.1955   -4.8679   C.3       1 RES1   0.0000
     9 C8       -2.0100    3.9254   -2.9732   C.3       1 RES1   0.0000
    10 N1       -2.2201    3.6747   -1.5537   N.am      1 RES1   0.0000
    11 C9       -2.9076    4.7095   -0.8025   C.3       1 RES1   0.0000
    12 C10      -1.8693    2.5084   -1.0310   C.2       1 RES1   0.0000
    13 O1       -1.2000    1.6366   -1.6271   O.2       1 RES1   0.0000
    14 C11      -2.3565    2.1927    0.3844   C.3       1 RES1   0.0000
    15 O2       -1.4603    1.2542    0.9719   O.3       1 RES1   0.0000
    16 C12      -2.0415    0.4974    2.0262   C.3       1 RES1   0.0000
    17 C13      -2.6969   -0.7471    1.4051   C.2       1 RES1   0.0000
    18 O3       -2.5239   -0.9168    0.1900   O.2       1 RES1   0.0000
    19 N2       -3.4194   -1.5289    2.1977   N.am      1 RES1   0.0000
    20 C14      -3.5198   -1.2812    3.6221   C.3       1 RES1   0.0000
    21 C15      -4.4174   -2.4457    1.6560   C.3       1 RES1   0.0000
    22 C16      -4.0406   -3.9181    1.3928   C.3       1 RES1   0.0000
    23 C17      -5.3899   -4.6385    1.1557   C.3       1 RES1   0.0000
    24 C18      -5.4265   -5.5073   -0.0990   C.3       1 RES1   0.0000
    25 C19      -3.2016   -4.5276    2.5360   C.3       1 RES1   0.0000
    26 C20      -3.0636   -6.0656    2.5816   C.3       1 RES1   0.0000
    27 C21      -1.9106   -6.6869    1.7839   C.3       1 RES1   0.0000
    28 C22      -0.5483   -6.4460    2.4285   C.3       1 RES1   0.0000
    29 H1       -2.9414   -0.2655   -2.2335   H         1 RES1   0.0000
    30 H2       -4.1281   -1.5199   -2.6262   H         1 RES1   0.0000
    31 H3       -4.6819    0.0676   -2.1383   H         1 RES1   0.0000
    32 H4       -4.9662    0.0172   -4.5106   H         1 RES1   0.0000
    33 H5       -3.3876   -0.7014   -4.7854   H         1 RES1   0.0000
    34 H6       -3.2690    1.6132   -5.4131   H         1 RES1   0.0000
    35 H7       -2.2722    1.3438   -3.9863   H         1 RES1   0.0000
    36 H8       -4.0720    2.2788   -2.5423   H         1 RES1   0.0000
    37 H9       -5.0406    2.5945   -3.9781   H         1 RES1   0.0000
    38 H10      -2.9475    3.8734   -4.8546   H         1 RES1   0.0000
    39 H11      -3.6625    5.9599   -3.5571   H         1 RES1   0.0000
    40 H12      -4.8609    4.9292   -2.7653   H         1 RES1   0.0000
    41 H13      -4.5803    5.3508   -5.7737   H         1 RES1   0.0000
    42 H14      -5.8098    6.0512   -4.7379   H         1 RES1   0.0000
    43 H15      -5.7797    4.3178   -5.0059   H         1 RES1   0.0000
    44 H16      -1.5580    4.9117   -3.0877   H         1 RES1   0.0000
    45 H17      -1.3019    3.1695   -3.3163   H         1 RES1   0.0000
    46 H18      -3.0166    5.5766   -1.4473   H         1 RES1   0.0000
    47 H19      -2.3347    5.0142    0.0757   H         1 RES1   0.0000
    48 H20      -3.9022    4.3897   -0.4898   H         1 RES1   0.0000
    49 H21      -3.3654    1.7684    0.2671   H         1 RES1   0.0000
    50 H22      -2.4073    3.0863    1.0174   H         1 RES1   0.0000
    51 H23      -2.7785    1.0949    2.5765   H         1 RES1   0.0000
    52 H24      -1.2124    0.2171    2.6828   H         1 RES1   0.0000
    53 H25      -2.5992   -0.8643    4.0172   H         1 RES1   0.0000
    54 H26      -3.7106   -2.2191    4.1378   H         1 RES1   0.0000
    55 H27      -4.3412   -0.5986    3.8511   H         1 RES1   0.0000
    56 H28      -4.7610   -2.0279    0.7083   H         1 RES1   0.0000
    57 H29      -5.2448   -2.4300    2.3665   H         1 RES1   0.0000
    58 H30      -3.4536   -3.9543    0.4705   H         1 RES1   0.0000
    59 H31      -6.1790   -3.8899    1.0624   H         1 RES1   0.0000
    60 H32      -5.6431   -5.2481    2.0233   H         1 RES1   0.0000
    61 H33      -5.3117   -4.8945   -0.9937   H         1 RES1   0.0000
    62 H34      -6.3841   -6.0213   -0.1608   H         1 RES1   0.0000
    63 H35      -4.6460   -6.2653   -0.0801   H         1 RES1   0.0000
    64 H36      -3.6564   -4.2411    3.4852   H         1 RES1   0.0000
    65 H37      -2.2040   -4.0765    2.5116   H         1 RES1   0.0000
    66 H38      -3.9995   -6.5285    2.2683   H         1 RES1   0.0000
    67 H39      -2.9122   -6.3536    3.6257   H         1 RES1   0.0000
    68 H40      -1.9213   -6.3367    0.7484   H         1 RES1   0.0000
    69 H41      -2.0787   -7.7649    1.7571   H         1 RES1   0.0000
    70 H42      -0.3696   -5.3868    2.6096   H         1 RES1   0.0000
    71 H43       0.2502   -6.8393    1.8041   H         1 RES1   0.0000
    72 H44      -0.5040   -6.9556    3.3866   H         1 RES1   0.0000
    73 C23       4.1616   -3.7206    6.4843   C.3       1 RES1   0.0000
    74 C24       2.6805   -3.9273    6.1791   C.3       1 RES1   0.0000
    75 C25       1.7646   -2.7239    6.4599   C.3       1 RES1   0.0000
    76 C26       2.3197   -1.3732    5.9609   C.3       1 RES1   0.0000
    77 C27       1.3122   -0.4429    5.2447   C.3       1 RES1   0.0000
    78 C28       0.3627    0.2667    6.2198   C.3       1 RES1   0.0000
    79 C29      -0.7106   -0.6405    6.8093   C.3       1 RES1   0.0000
    80 C30       2.1556    0.5751    4.4552   C.3       1 RES1   0.0000
    81 N3        1.4799    1.5925    3.6393   N.am      1 RES1   0.0000
    82 C31       1.5109    2.9434    4.1818   C.3       1 RES1   0.0000
    83 C32       1.1839    1.3691    2.3552   C.2       1 RES1   0.0000
    84 O4        0.9967    0.2490    1.8521   O.2       1 RES1   0.0000
    85 C33       1.1296    2.6017    1.4374   C.3       1 RES1   0.0000
    86 O5        1.1006    2.1637    0.0838   O.3       1 RES1   0.0000
    87 C34       2.1596    2.6760   -0.7169   C.3       1 RES1   0.0000
    88 C35       2.4427    1.6796   -1.8466   C.2       1 RES1   0.0000
    89 O6        1.8057    0.6084   -1.8540   O.2       1 RES1   0.0000
    90 N4        3.3575    1.9935   -2.7475   N.am      1 RES1   0.0000
    91 C36       4.0236    3.2758   -2.8301   C.3       1 RES1   0.0000
    92 C37       3.7250    1.0102   -3.7648   C.3       1 RES1   0.0000
    93 C38       4.8054    0.0057   -3.3070   C.3       1 RES1   0.0000
    94 C39       4.4336   -1.3951   -3.8260   C.3       1 RES1   0.0000
    95 C40       3.1977   -2.0322   -3.1820   C.3       1 RES1   0.0000
    96 C41       6.2201    0.3051   -3.8251   C.3       1 RES1   0.0000
    97 C42       7.0054    1.4688   -3.2178   C.3       1 RES1   0.0000
    98 C43       7.1304    1.3963   -1.6931   C.3       1 RES1   0.0000
    99 C44       8.3979    2.0836   -1.1957   C.3       1 RES1   0.0000
   100 H45       4.6573   -4.6868    6.5015   H         1 RES1   0.0000
   101 H46       4.6600   -3.1105    5.7332   H         1 RES1   0.0000
   102 H47       4.3046   -3.2480    7.4504   H         1 RES1   0.0000
   103 H48       2.5773   -4.2482    5.1405   H         1 RES1   0.0000
   104 H49       2.3164   -4.7522    6.7912   H         1 RES1   0.0000
   105 H50       0.7957   -2.9406    6.0006   H         1 RES1   0.0000
   106 H51       1.6057   -2.6732    7.5386   H         1 RES1   0.0000
   107 H52       2.7421   -0.8355    6.8138   H         1 RES1   0.0000
   108 H53       3.1547   -1.5655    5.2798   H         1 RES1   0.0000
   109 H54       0.7191   -1.0324    4.5321   H         1 RES1   0.0000
   110 H55       0.9481    0.7000    7.0336   H         1 RES1   0.0000
   111 H56      -0.1402    1.0825    5.6930   H         1 RES1   0.0000
   112 H57      -0.2807   -1.3614    7.4929   H         1 RES1   0.0000
   113 H58      -1.4301   -0.0457    7.3640   H         1 RES1   0.0000
   114 H59      -1.2389   -1.1781    6.0231   H         1 RES1   0.0000
   115 H60       2.7692    1.1262    5.1682   H         1 RES1   0.0000
   116 H61       2.8213    0.0208    3.7904   H         1 RES1   0.0000
   117 H62       1.4349    2.8878    5.2647   H         1 RES1   0.0000
   118 H63       2.4340    3.4734    3.9327   H         1 RES1   0.0000
   119 H64       0.6708    3.5333    3.8253   H         1 RES1   0.0000
   120 H65       0.2392    3.2129    1.6326   H         1 RES1   0.0000
   121 H66       2.0319    3.1942    1.6304   H         1 RES1   0.0000
   122 H67       1.8739    3.6501   -1.1346   H         1 RES1   0.0000
   123 H68       3.0787    2.7889   -0.1261   H         1 RES1   0.0000
   124 H69       3.8020    3.9175   -1.9839   H         1 RES1   0.0000
   125 H70       5.0987    3.1177   -2.8719   H         1 RES1   0.0000
   126 H71       3.7259    3.7695   -3.7571   H         1 RES1   0.0000
   127 H72       2.8195    0.4553   -4.0094   H         1 RES1   0.0000
   128 H73       4.0484    1.5573   -4.6491   H         1 RES1   0.0000
   129 H74       4.8164   -0.0052   -2.2113   H         1 RES1   0.0000
   130 H75       4.2860   -1.3446   -4.9077   H         1 RES1   0.0000
   131 H76       5.2844   -2.0511   -3.6409   H         1 RES1   0.0000
   132 H77       2.3249   -1.9845   -3.8284   H         1 RES1   0.0000
   133 H78       3.3974   -3.0829   -2.9851   H         1 RES1   0.0000
   134 H79       2.9532   -1.5538   -2.2353   H         1 RES1   0.0000
   135 H80       6.8160   -0.5924   -3.6471   H         1 RES1   0.0000
   136 H81       6.1700    0.4297   -4.9081   H         1 RES1   0.0000
   137 H82       8.0026    1.4161   -3.6572   H         1 RES1   0.0000
   138 H83       6.6004    2.4347   -3.5311   H         1 RES1   0.0000
   139 H84       6.2484    1.8555   -1.2341   H         1 RES1   0.0000
   140 H85       7.1828    0.3532   -1.3768   H         1 RES1   0.0000
   141 H86       9.2763    1.5551   -1.5556   H         1 RES1   0.0000
   142 H87       8.4634    3.1034   -1.5590   H         1 RES1   0.0000
   143 H88       8.4392    2.1107   -0.1089   H         1 RES1   0.0000
   144 C45       0.0225   -0.0242   -4.3360   C.3       1 RES1   0.0000
   145 C46       0.3928   -0.6746   -5.6793   C.3       1 RES1   0.0000
   146 C47      -0.4054   -1.9545   -5.9425   C.3       1 RES1   0.0000
   147 C48      -0.0045   -3.1335   -5.0435   C.3       1 RES1   0.0000
   148 C49      -1.1354   -4.1693   -4.9498   C.3       1 RES1   0.0000
   149 C50      -0.6497   -5.6081   -4.7144   C.3       1 RES1   0.0000
   150 C51       0.0950   -6.2435   -5.8908   C.3       1 RES1   0.0000
   151 C52      -2.1664   -3.7211   -3.8869   C.3       1 RES1   0.0000
   152 N5       -1.8023   -4.0353   -2.5074   N.am      1 RES1   0.0000
   153 C53      -2.1829   -5.3426   -2.0131   C.3       1 RES1   0.0000
   154 C54      -1.1888   -3.1498   -1.7359   C.2       1 RES1   0.0000
   155 O7       -0.9366   -1.9750   -2.0734   O.2       1 RES1   0.0000
   156 C55      -0.6743   -3.6275   -0.3752   C.3       1 RES1   0.0000
   157 O8       -0.5108   -2.5129    0.5055   O.3       1 RES1   0.0000
   158 C56       0.4993   -2.7131    1.4868   C.3       1 RES1   0.0000
   159 C57       1.8282   -2.2464    0.8697   C.2       1 RES1   0.0000
   160 O9        1.7532   -1.6119   -0.2008   O.2       1 RES1   0.0000
   161 N6        2.9650   -2.6252    1.4324   N.am      1 RES1   0.0000
   162 C58       2.9792   -3.3012    2.7125   C.3       1 RES1   0.0000
   163 C59       4.2018   -2.5843    0.6593   C.3       1 RES1   0.0000
   164 C60       5.3656   -1.6467    1.1061   C.3       1 RES1   0.0000
   165 C61       6.6863   -2.4425    1.1990   C.3       1 RES1   0.0000
   166 C62       7.8403   -1.7775    0.4599   C.3       1 RES1   0.0000
   167 C63       5.0977   -0.8848    2.4130   C.3       1 RES1   0.0000
   168 C64       6.1536    0.1695    2.7681   C.3       1 RES1   0.0000
   169 C65       6.0121    1.5029    2.0368   C.3       1 RES1   0.0000
   170 C66       4.9058    2.3523    2.6451   C.3       1 RES1   0.0000
   171 H89       0.7061   -0.3293   -3.5375   H         1 RES1   0.0000
   172 H90      -0.9903   -0.3082   -4.0532   H         1 RES1   0.0000
   173 H91       0.0573    1.0601   -4.4230   H         1 RES1   0.0000
   174 H92       1.4640   -0.8976   -5.7284   H         1 RES1   0.0000
   175 H93       0.1633    0.0251   -6.4861   H         1 RES1   0.0000
   176 H94      -0.2838   -2.2428   -6.9891   H         1 RES1   0.0000
   177 H95      -1.4683   -1.7354   -5.8048   H         1 RES1   0.0000
   178 H96       0.2308   -2.7768   -4.0393   H         1 RES1   0.0000
   179 H97       0.8966   -3.5951   -5.4485   H         1 RES1   0.0000
   180 H98      -1.6546   -4.1726   -5.9136   H         1 RES1   0.0000
   181 H99      -1.5251   -6.2336   -4.5375   H         1 RES1   0.0000
   182 H100     -0.0083   -5.6506   -3.8307   H         1 RES1   0.0000
   183 H101     -0.5039   -6.2017   -6.7987   H         1 RES1   0.0000
   184 H102      0.2934   -7.2930   -5.6682   H         1 RES1   0.0000
   185 H103      1.0499   -5.7614   -6.0862   H         1 RES1   0.0000
   186 H104     -3.1242   -4.1928   -4.1020   H         1 RES1   0.0000
   187 H105     -2.2855   -2.6424   -3.9484   H         1 RES1   0.0000
   188 H106     -1.3201   -5.9521   -1.7504   H         1 RES1   0.0000
   189 H107     -2.7398   -5.8700   -2.7784   H         1 RES1   0.0000
   190 H108     -2.8425   -5.2611   -1.1492   H         1 RES1   0.0000
   191 H109      0.2964   -4.1007   -0.5671   H         1 RES1   0.0000
   192 H110     -1.3471   -4.3483    0.0936   H         1 RES1   0.0000
   193 H111      0.5623   -3.7748    1.7622   H         1 RES1   0.0000
   194 H112      0.2248   -2.1049    2.3605   H         1 RES1   0.0000
   195 H113      2.3639   -2.7524    3.4237   H         1 RES1   0.0000
   196 H114      4.0050   -3.3379    3.0682   H         1 RES1   0.0000
   197 H115      2.6087   -4.3264    2.6415   H         1 RES1   0.0000
   198 H116      3.8888   -2.3177   -0.3518   H         1 RES1   0.0000
   199 H117      4.5694   -3.6152    0.6321   H         1 RES1   0.0000
   200 H118      5.4769   -0.9094    0.3045   H         1 RES1   0.0000
   201 H119      6.5709   -3.4384    0.7687   H         1 RES1   0.0000
   202 H120      6.9581   -2.5748    2.2458   H         1 RES1   0.0000
   203 H121      7.6592   -1.8162   -0.6105   H         1 RES1   0.0000
   204 H122      8.7736   -2.2929    0.6665   H         1 RES1   0.0000
   205 H123      7.9680   -0.7412    0.7537   H         1 RES1   0.0000
   206 H124      5.0628   -1.5872    3.2469   H         1 RES1   0.0000
   207 H125      4.1175   -0.4130    2.3352   H         1 RES1   0.0000
   208 H126      7.1415   -0.2532    2.6069   H         1 RES1   0.0000
   209 H127      6.0824    0.3774    3.8348   H         1 RES1   0.0000
   210 H128      5.7894    1.3254    0.9880   H         1 RES1   0.0000
   211 H129      6.9547    2.0448    2.0908   H         1 RES1   0.0000
   212 H130      3.9488    1.8695    2.4618   H         1 RES1   0.0000
   213 H131      4.8844    3.3586    2.2329   H         1 RES1   0.0000
   214 H132      5.0643    2.4343    3.7156   H         1 RES1   0.0000
@<TRIPOS>BOND
     1     1    13    1
     2     1    15    1
     3     1    18    1
     4     1    84    1
     5     1    86    1
     6     1    89    1
     7     1   155    1
     8     1   157    1
     9     1   160    1
    10     2     3    1
    11     2    29    1
    12     2    30    1
    13     2    31    1
    14     3     4    1
    15     3    32    1
    16     3    33    1
    17     4     5    1
    18     4    34    1
    19     4    35    1
    20     5     6    1
    21     5    36    1
    22     5    37    1
    23     6     7    1
    24     6     9    1
    25     6    38    1
    26     7     8    1
    27     7    39    1
    28     7    40    1
    29     8    41    1
    30     8    42    1
    31     8    43    1
    32     9    10    1
    33     9    44    1
    34     9    45    1
    35    10    11    1
    36    10    12    1
    37    11    46    1
    38    11    47    1
    39    11    48    1
    40    12    13    2
    41    12    14    1
    42    14    15    1
    43    14    49    1
    44    14    50    1
    45    15    16    1
    46    16    17    1
    47    16    51    1
    48    16    52    1
    49    17    18    2
    50    17    19    1
    51    19    20    1
    52    19    21    1
    53    20    53    1
    54    20    54    1
    55    20    55    1
    56    21    22    1
    57    21    56    1
    58    21    57    1
    59    22    23    1
    60    22    25    1
    61    22    58    1
    62    23    24    1
    63    23    59    1
    64    23    60    1
    65    24    61    1
    66    24    62    1
    67    24    63    1
    68    25    26    1
    69    25    64    1
    70    25    65    1
    71    26    27    1
    72    26    66    1
    73    26    67    1
    74    27    28    1
    75    27    68    1
    76    27    69    1
    77    28    70    1
    78    28    71    1
    79    28    72    1
    80    73    74    1
    81    73   100    1
    82    73   101    1
    83    73   102    1
    84    74    75    1
    85    74   103    1
    86    74   104    1
    87    75    76    1
    88    75   105    1
    89    75   106    1
    90    76    77    1
    91    76   107    1
    92    76   108    1
    93    77    78    1
    94    77    80    1
    95    77   109    1
    96    78    79    1
    97    78   110    1
    98    78   111    1
    99    79   112    1
   100    79   113    1
   101    79   114    1
   102    80    81    1
   103    80   115    1
   104    80   116    1
   105    81    82    1
   106    81    83    1
   107    82   117    1
   108    82   118    1
   109    82   119    1
   110    83    84    2
   111    83    85    1
   112    85    86    1
   113    85   120    1
   114    85   121    1
   115    86    87    1
   116    87    88    1
   117    87   122    1
   118    87   123    1
   119    88    89    2
   120    88    90    1
   121    90    91    1
   122    90    92    1
   123    91   124    1
   124    91   125    1
   125    91   126    1
   126    92    93    1
   127    92   127    1
   128    92   128    1
   129    93    94    1
   130    93    96    1
   131    93   129    1
   132    94    95    1
   133    94   130    1
   134    94   131    1
   135    95   132    1
   136    95   133    1
   137    95   134    1
   138    96    97    1
   139    96   135    1
   140    96   136    1
   141    97    98    1
   142    97   137    1
   143    97   138    1
   144    98    99    1
   145    98   139    1
   146    98   140    1
   147    99   141    1
   148    99   142    1
   149    99   143    1
   150   144   145    1
   151   144   171    1
   152   144   172    1
   153   144   173    1
   154   145   146    1
   155   145   174    1
   156   145   175    1
   157   146   147    1
   158   146   176    1
   159   146   177    1
   160   147   148    1
   161   147   178    1
   162   147   179    1
   163   148   149    1
   164   148   151    1
   165   148   180    1
   166   149   150    1
   167   149   181    1
   168   149   182    1
   169   150   183    1
   170   150   184    1
   171   150   185    1
   172   151   152    1
   173   151   186    1
   174   151   187    1
   175   152   153    1
   176   152   154    1
   177   153   188    1
   178   153   189    1
   179   153   190    1
   180   154   155    2
   181   154   156    1
   182   156   157    1
   183   156   191    1
   184   156   192    1
   185   157   158    1
   186   158   159    1
   187   158   193    1
   188   158   194    1
   189   159   160    2
   190   159   161    1
   191   161   162    1
   192   161   163    1
   193   162   195    1
   194   162   196    1
   195   162   197    1
   196   163   164    1
   197   163   198    1
   198   163   199    1
   199   164   165    1
   200   164   167    1
   201   164   200    1
   202   165   166    1
   203   165   201    1
   204   165   202    1
   205   166   203    1
   206   166   204    1
   207   166   205    1
   208   167   168    1
   209   167   206    1
   210   167   207    1
   211   168   169    1
   212   168   208    1
   213   168   209    1
   214   169   170    1
   215   169   210    1
   216   169   211    1
   217   170   212    1
   218   170   213    1
   219   170   214    1
@<TRIPOS>SUBSTRUCTURE
     1 RES1      214 GROUP             0 ****  ****    0  
