@<TRIPOS>MOLECULE
tri_tri_mer_capped_0_nunpairedes_0_charge_3 Charge: 3 Unpaired_Electrons: 7 XTB_Unpaired_Electrons: 0 XTB_Charge: 3
   340   345     1     0     0
SMALL
NoCharges
****
Generated from Architector

@<TRIPOS>ATOM
     1 Gd1      -0.1217   -0.3144   -0.1133   Gd        1 RES1   0.0000
     2 C1        0.7398    2.5982   -7.9064   C.3       1 RES1   0.0000
     3 C2       -0.0363    2.4034   -6.6097   C.3       1 RES1   0.0000
     4 C3       -1.5541    2.3721   -6.8220   C.3       1 RES1   0.0000
     5 C4       -2.0740    1.1349   -7.5630   C.3       1 RES1   0.0000
     6 C5       -2.0852   -0.1701   -6.7599   C.3       1 RES1   0.0000
     7 C6       -3.0379   -0.1516   -5.5639   C.3       1 RES1   0.0000
     8 C7       -3.2707   -1.5413   -4.9523   C.3       1 RES1   0.0000
     9 C8       -3.6567   -1.4349   -3.4747   C.3       1 RES1   0.0000
    10 C9       -3.4714   -2.7024   -2.6339   C.3       1 RES1   0.0000
    11 C10      -3.6878   -2.3009   -1.1743   C.3       1 RES1   0.0000
    12 C11      -3.5534   -3.3836   -0.1043   C.3       1 RES1   0.0000
    13 C12      -3.8556   -2.7892    1.2900   C.3       1 RES1   0.0000
    14 N1       -2.7342   -2.8483    2.2291   N.am      1 RES1   0.0000
    15 C13      -2.8088   -3.7588    3.3597   C.3       1 RES1   0.0000
    16 C14      -2.3595   -5.1726    2.9609   C.3       1 RES1   0.0000
    17 C15      -3.4912   -6.0680    2.4510   C.3       1 RES1   0.0000
    18 C16      -2.9514   -7.2329    1.6169   C.3       1 RES1   0.0000
    19 C17      -2.5051   -6.7713    0.2297   C.3       1 RES1   0.0000
    20 C18      -1.8951   -7.8872   -0.6177   C.3       1 RES1   0.0000
    21 C19      -1.0536   -7.3526   -1.7797   C.3       1 RES1   0.0000
    22 C20      -1.8419   -6.5409   -2.8080   C.3       1 RES1   0.0000
    23 C21      -0.9835   -6.1633   -4.0160   C.3       1 RES1   0.0000
    24 C22      -1.7854   -5.4029   -5.0718   C.3       1 RES1   0.0000
    25 C23      -1.0178   -5.1288   -6.3685   C.3       1 RES1   0.0000
    26 C24       0.0601   -4.0537   -6.2465   C.3       1 RES1   0.0000
    27 C25      -1.6840   -2.1147    1.9174   C.2       1 RES1   0.0000
    28 O1       -1.6561   -1.4297    0.8685   O.2       1 RES1   0.0000
    29 C26      -0.4291   -1.9974    2.7820   C.3       1 RES1   0.0000
    30 O2        0.1739   -0.7275    2.4973   O.3       1 RES1   0.0000
    31 C27      -0.2240    0.2962    3.4118   C.3       1 RES1   0.0000
    32 C28      -1.7033    0.6794    3.2860   C.3       1 RES1   0.0000
    33 O3       -2.0079    1.2489    2.0229   O.3       1 RES1   0.0000
    34 C29      -1.6232    2.6090    1.9461   C.3       1 RES1   0.0000
    35 C30      -0.2187    2.7004    1.3637   C.2       1 RES1   0.0000
    36 O4        0.1403    1.8007    0.5591   O.2       1 RES1   0.0000
    37 N2        0.5902    3.6907    1.7025   N.am      1 RES1   0.0000
    38 C31       0.2813    4.7690    2.6319   C.3       1 RES1   0.0000
    39 C32      -0.8540    5.6916    2.1429   C.3       1 RES1   0.0000
    40 C33      -1.7889    6.0738    3.2921   C.3       1 RES1   0.0000
    41 C34      -3.0016    6.9000    2.8600   C.3       1 RES1   0.0000
    42 C35      -4.0565    6.1232    2.0734   C.3       1 RES1   0.0000
    43 C36      -4.7921    5.0889    2.9245   C.3       1 RES1   0.0000
    44 C37      -6.0548    4.5645    2.2427   C.3       1 RES1   0.0000
    45 C38      -6.6717    3.3906    3.0049   C.3       1 RES1   0.0000
    46 C39      -7.9530    2.8896    2.3401   C.3       1 RES1   0.0000
    47 C40      -8.4657    1.5407    2.8531   C.3       1 RES1   0.0000
    48 C41      -9.0495    1.5352    4.2713   C.3       1 RES1   0.0000
    49 C42      -8.0337    1.2920    5.3829   C.3       1 RES1   0.0000
    50 C43       1.9529    3.6500    1.1996   C.3       1 RES1   0.0000
    51 C44       2.9779    3.1630    2.2346   C.3       1 RES1   0.0000
    52 C45       3.9039    2.1272    1.6003   C.3       1 RES1   0.0000
    53 C46       5.0803    1.7704    2.5130   C.3       1 RES1   0.0000
    54 C47       6.4342    1.8391    1.8075   C.3       1 RES1   0.0000
    55 C48       6.7090    0.7804    0.7370   C.3       1 RES1   0.0000
    56 C49       6.8185   -0.6769    1.2187   C.3       1 RES1   0.0000
    57 C50       7.3947   -0.8956    2.6157   C.3       1 RES1   0.0000
    58 C51       7.4599   -2.3880    2.9375   C.3       1 RES1   0.0000
    59 C52       7.7595   -2.6633    4.4084   C.3       1 RES1   0.0000
    60 C53       7.6303   -4.1476    4.7597   C.3       1 RES1   0.0000
    61 C54       6.1802   -4.5956    4.9129   C.3       1 RES1   0.0000
    62 H1        1.8045    2.6764   -7.7042   H         1 RES1   0.0000
    63 H2        0.4199    3.5075   -8.4054   H         1 RES1   0.0000
    64 H3        0.5867    1.7659   -8.5855   H         1 RES1   0.0000
    65 H4        0.2067    3.2287   -5.9309   H         1 RES1   0.0000
    66 H5        0.2943    1.4726   -6.1352   H         1 RES1   0.0000
    67 H6       -1.8230    3.2587   -7.3998   H         1 RES1   0.0000
    68 H7       -2.0675    2.4575   -5.8576   H         1 RES1   0.0000
    69 H8       -1.4690    0.9881   -8.4574   H         1 RES1   0.0000
    70 H9       -3.0907    1.3431   -7.8976   H         1 RES1   0.0000
    71 H10      -1.0709   -0.4030   -6.4229   H         1 RES1   0.0000
    72 H11      -2.3947   -0.9690   -7.4336   H         1 RES1   0.0000
    73 H12      -3.9939    0.2711   -5.8731   H         1 RES1   0.0000
    74 H13      -2.6380    0.5149   -4.7916   H         1 RES1   0.0000
    75 H14      -2.3697   -2.1489   -5.0518   H         1 RES1   0.0000
    76 H15      -4.0563   -2.0482   -5.5108   H         1 RES1   0.0000
    77 H16      -4.6958   -1.1052   -3.4023   H         1 RES1   0.0000
    78 H17      -3.0489   -0.6578   -2.9957   H         1 RES1   0.0000
    79 H18      -2.4538   -3.0783   -2.7619   H         1 RES1   0.0000
    80 H19      -4.1734   -3.4775   -2.9409   H         1 RES1   0.0000
    81 H20      -4.6867   -1.8770   -1.0900   H         1 RES1   0.0000
    82 H21      -2.9673   -1.5065   -0.9516   H         1 RES1   0.0000
    83 H22      -2.5437   -3.7958   -0.1135   H         1 RES1   0.0000
    84 H23      -4.2530   -4.1949   -0.3081   H         1 RES1   0.0000
    85 H24      -4.6969   -3.3026    1.7494   H         1 RES1   0.0000
    86 H25      -4.1110   -1.7288    1.1816   H         1 RES1   0.0000
    87 H26      -3.8398   -3.7825    3.7159   H         1 RES1   0.0000
    88 H27      -2.1874   -3.3803    4.1697   H         1 RES1   0.0000
    89 H28      -1.8984   -5.6671    3.8141   H         1 RES1   0.0000
    90 H29      -1.5916   -5.0703    2.1927   H         1 RES1   0.0000
    91 H30      -4.1801   -5.4979    1.8281   H         1 RES1   0.0000
    92 H31      -4.0490   -6.4441    3.3095   H         1 RES1   0.0000
    93 H32      -3.7312   -7.9826    1.4973   H         1 RES1   0.0000
    94 H33      -2.1125   -7.7001    2.1355   H         1 RES1   0.0000
    95 H34      -1.7574   -5.9805    0.3374   H         1 RES1   0.0000
    96 H35      -3.3629   -6.3467   -0.2942   H         1 RES1   0.0000
    97 H36      -2.6867   -8.5302   -1.0011   H         1 RES1   0.0000
    98 H37      -1.2571   -8.5021    0.0202   H         1 RES1   0.0000
    99 H38      -0.5942   -8.2036   -2.2850   H         1 RES1   0.0000
   100 H39      -0.2460   -6.7342   -1.3735   H         1 RES1   0.0000
   101 H40      -2.2411   -5.6331   -2.3485   H         1 RES1   0.0000
   102 H41      -2.6909   -7.1301   -3.1532   H         1 RES1   0.0000
   103 H42      -0.5837   -7.0718   -4.4670   H         1 RES1   0.0000
   104 H43      -0.1304   -5.5640   -3.6834   H         1 RES1   0.0000
   105 H44      -2.1443   -4.4597   -4.6533   H         1 RES1   0.0000
   106 H45      -2.6614   -6.0008   -5.3248   H         1 RES1   0.0000
   107 H46      -1.7291   -4.8133   -7.1356   H         1 RES1   0.0000
   108 H47      -0.5559   -6.0552   -6.7125   H         1 RES1   0.0000
   109 H48      -0.3916   -3.0841   -6.0317   H         1 RES1   0.0000
   110 H49       0.6034   -3.9663   -7.1845   H         1 RES1   0.0000
   111 H50       0.7769   -4.3003   -5.4632   H         1 RES1   0.0000
   112 H51       0.2984   -2.7558    2.4664   H         1 RES1   0.0000
   113 H52      -0.6023   -2.1101    3.8540   H         1 RES1   0.0000
   114 H53       0.4284    1.1419    3.1690   H         1 RES1   0.0000
   115 H54      -0.0388   -0.0158    4.4507   H         1 RES1   0.0000
   116 H55      -1.9632    1.3667    4.1030   H         1 RES1   0.0000
   117 H56      -2.3295   -0.2079    3.3875   H         1 RES1   0.0000
   118 H57      -1.6640    3.0766    2.9344   H         1 RES1   0.0000
   119 H58      -2.3263    3.1282    1.2821   H         1 RES1   0.0000
   120 H59       1.1995    5.3464    2.7552   H         1 RES1   0.0000
   121 H60       0.0338    4.3522    3.6160   H         1 RES1   0.0000
   122 H61      -1.4151    5.1931    1.3524   H         1 RES1   0.0000
   123 H62      -0.4344    6.5963    1.7046   H         1 RES1   0.0000
   124 H63      -1.2132    6.6517    4.0149   H         1 RES1   0.0000
   125 H64      -2.1435    5.1746    3.8003   H         1 RES1   0.0000
   126 H65      -2.6611    7.7584    2.2796   H         1 RES1   0.0000
   127 H66      -3.4711    7.2894    3.7636   H         1 RES1   0.0000
   128 H67      -3.5991    5.6425    1.2043   H         1 RES1   0.0000
   129 H68      -4.7878    6.8400    1.7032   H         1 RES1   0.0000
   130 H69      -5.0705    5.5451    3.8756   H         1 RES1   0.0000
   131 H70      -4.1366    4.2427    3.1455   H         1 RES1   0.0000
   132 H71      -5.8204    4.2496    1.2206   H         1 RES1   0.0000
   133 H72      -6.7850    5.3709    2.1738   H         1 RES1   0.0000
   134 H73      -6.8890    3.7088    4.0240   H         1 RES1   0.0000
   135 H74      -5.9446    2.5732    3.0546   H         1 RES1   0.0000
   136 H75      -7.7641    2.7858    1.2669   H         1 RES1   0.0000
   137 H76      -8.7354    3.6403    2.4578   H         1 RES1   0.0000
   138 H77      -7.6661    0.7967    2.7875   H         1 RES1   0.0000
   139 H78      -9.2589    1.2276    2.1711   H         1 RES1   0.0000
   140 H79      -9.7941    0.7383    4.3285   H         1 RES1   0.0000
   141 H80      -9.5713    2.4751    4.4562   H         1 RES1   0.0000
   142 H81      -7.4936    0.3614    5.2151   H         1 RES1   0.0000
   143 H82      -8.5479    1.2127    6.3376   H         1 RES1   0.0000
   144 H83      -7.3129    2.1007    5.4575   H         1 RES1   0.0000
   145 H84       2.2271    4.6443    0.8567   H         1 RES1   0.0000
   146 H85       1.9513    2.9744    0.3424   H         1 RES1   0.0000
   147 H86       2.4849    2.7276    3.1041   H         1 RES1   0.0000
   148 H87       3.5828    4.0006    2.5737   H         1 RES1   0.0000
   149 H88       4.2800    2.5422    0.6622   H         1 RES1   0.0000
   150 H89       3.2967    1.2410    1.3905   H         1 RES1   0.0000
   151 H90       4.9217    0.7859    2.9472   H         1 RES1   0.0000
   152 H91       5.1001    2.4844    3.3373   H         1 RES1   0.0000
   153 H92       7.2174    1.7751    2.5583   H         1 RES1   0.0000
   154 H93       6.5242    2.8213    1.3383   H         1 RES1   0.0000
   155 H94       7.6452    1.0618    0.2526   H         1 RES1   0.0000
   156 H95       5.9326    0.8240   -0.0361   H         1 RES1   0.0000
   157 H96       7.4301   -1.2308    0.5024   H         1 RES1   0.0000
   158 H97       5.8321   -1.1432    1.2118   H         1 RES1   0.0000
   159 H98       6.7514   -0.4132    3.3521   H         1 RES1   0.0000
   160 H99       8.3854   -0.4529    2.6979   H         1 RES1   0.0000
   161 H100      8.2174   -2.8693    2.3196   H         1 RES1   0.0000
   162 H101      6.5018   -2.8445    2.6778   H         1 RES1   0.0000
   163 H102      7.0705   -2.0886    5.0332   H         1 RES1   0.0000
   164 H103      8.7697   -2.3235    4.6343   H         1 RES1   0.0000
   165 H104      8.1481   -4.3412    5.6990   H         1 RES1   0.0000
   166 H105      8.1161   -4.7514    3.9909   H         1 RES1   0.0000
   167 H106      5.6728   -3.9866    5.6579   H         1 RES1   0.0000
   168 H107      6.1353   -5.6320    5.2354   H         1 RES1   0.0000
   169 H108      5.6361   -4.5138    3.9739   H         1 RES1   0.0000
   170 C55      -2.9414    0.5602    8.0970   C.3       1 RES1   0.0000
   171 C56      -1.7412    0.9298    7.2309   C.3       1 RES1   0.0000
   172 C57      -0.4382    1.0408    8.0317   C.3       1 RES1   0.0000
   173 C58       0.1924   -0.3077    8.3914   C.3       1 RES1   0.0000
   174 C59       0.9618   -0.9902    7.2555   C.3       1 RES1   0.0000
   175 C60       2.3574   -0.4071    7.0269   C.3       1 RES1   0.0000
   176 C61       3.2092   -1.2417    6.0664   C.3       1 RES1   0.0000
   177 C62       2.7783   -1.1242    4.6051   C.3       1 RES1   0.0000
   178 C63       3.5152   -2.1143    3.7040   C.3       1 RES1   0.0000
   179 C64       3.2935   -1.8425    2.2091   C.3       1 RES1   0.0000
   180 C65       3.5635   -3.0987    1.3705   C.3       1 RES1   0.0000
   181 C66       4.0310   -2.8386   -0.0688   C.3       1 RES1   0.0000
   182 N3        3.0818   -3.0389   -1.1706   N.am      1 RES1   0.0000
   183 C67       3.6925   -3.5067   -2.4186   C.3       1 RES1   0.0000
   184 C68       3.4195   -4.9728   -2.7756   C.3       1 RES1   0.0000
   185 C69       4.2895   -6.0043   -2.0295   C.3       1 RES1   0.0000
   186 C70       3.4751   -7.0160   -1.2214   C.3       1 RES1   0.0000
   187 C71       2.8252   -6.4117    0.0195   C.3       1 RES1   0.0000
   188 C72       2.0372   -7.4450    0.8218   C.3       1 RES1   0.0000
   189 C73       1.2439   -6.8297    1.9749   C.3       1 RES1   0.0000
   190 C74       2.0957   -6.3681    3.1582   C.3       1 RES1   0.0000
   191 C75       1.2139   -5.9888    4.3472   C.3       1 RES1   0.0000
   192 C76       2.0055   -5.4812    5.5509   C.3       1 RES1   0.0000
   193 C77       1.1779   -5.4570    6.8366   C.3       1 RES1   0.0000
   194 C78      -0.1147   -4.6556    6.7103   C.3       1 RES1   0.0000
   195 C79       1.8135   -2.6716   -1.0839   C.2       1 RES1   0.0000
   196 O5        1.3072   -2.1314   -0.0683   O.2       1 RES1   0.0000
   197 C80       0.8379   -2.9048   -2.2411   C.3       1 RES1   0.0000
   198 O6       -0.0970   -1.8188   -2.2775   O.3       1 RES1   0.0000
   199 C81      -0.1017   -1.1040   -3.5169   C.3       1 RES1   0.0000
   200 C82       0.9010    0.0488   -3.4795   C.3       1 RES1   0.0000
   201 O7        0.5551    1.0236   -2.4898   O.3       1 RES1   0.0000
   202 C83      -0.4950    1.9147   -2.8654   C.3       1 RES1   0.0000
   203 C84      -1.7281    1.6267   -1.9973   C.2       1 RES1   0.0000
   204 O8       -1.7297    0.5566   -1.3480   O.2       1 RES1   0.0000
   205 N4       -2.7353    2.4770   -1.9678   N.am      1 RES1   0.0000
   206 C85      -2.6981    3.7490   -2.6650   C.3       1 RES1   0.0000
   207 C86      -1.9576    4.7983   -1.8205   C.3       1 RES1   0.0000
   208 C87      -1.2269    5.8280   -2.6826   C.3       1 RES1   0.0000
   209 C88      -0.5480    6.9249   -1.8581   C.3       1 RES1   0.0000
   210 C89       0.6450    6.4700   -1.0110   C.3       1 RES1   0.0000
   211 C90       1.8688    6.0443   -1.8322   C.3       1 RES1   0.0000
   212 C91       3.1985    6.2217   -1.0902   C.3       1 RES1   0.0000
   213 C92       4.3202    5.4002   -1.7282   C.3       1 RES1   0.0000
   214 C93       5.6116    5.4669   -0.9150   C.3       1 RES1   0.0000
   215 C94       6.7307    4.5242   -1.3720   C.3       1 RES1   0.0000
   216 C95       7.3355    4.8319   -2.7494   C.3       1 RES1   0.0000
   217 C96       6.6921    4.0649   -3.8999   C.3       1 RES1   0.0000
   218 C97      -3.8767    2.1985   -1.0991   C.3       1 RES1   0.0000
   219 C98      -5.0921    1.7101   -1.8932   C.3       1 RES1   0.0000
   220 C99      -6.0410    0.8739   -1.0324   C.3       1 RES1   0.0000
   221 C100     -7.1977    0.3056   -1.8598   C.3       1 RES1   0.0000
   222 C101     -8.1236   -0.6183   -1.0590   C.3       1 RES1   0.0000
   223 C102     -7.5029   -1.9481   -0.6120   C.3       1 RES1   0.0000
   224 C103     -7.0329   -2.8588   -1.7509   C.3       1 RES1   0.0000
   225 C104     -8.1557   -3.3991   -2.6316   C.3       1 RES1   0.0000
   226 C105     -7.6305   -4.1177   -3.8780   C.3       1 RES1   0.0000
   227 C106     -7.0652   -3.1507   -4.9195   C.3       1 RES1   0.0000
   228 C107     -6.7477   -3.8040   -6.2666   C.3       1 RES1   0.0000
   229 C108     -5.5881   -4.7919   -6.2235   C.3       1 RES1   0.0000
   230 H109     -3.8509    0.5283    7.5004   H         1 RES1   0.0000
   231 H110     -3.0826    1.2971    8.8823   H         1 RES1   0.0000
   232 H111     -2.8083   -0.4091    8.5679   H         1 RES1   0.0000
   233 H112     -1.9473    1.8938    6.7565   H         1 RES1   0.0000
   234 H113     -1.6286    0.1894    6.4314   H         1 RES1   0.0000
   235 H114     -0.6620    1.5777    8.9540   H         1 RES1   0.0000
   236 H115      0.2879    1.6418    7.4793   H         1 RES1   0.0000
   237 H116     -0.5964   -0.9748    8.7413   H         1 RES1   0.0000
   238 H117      0.8827   -0.1636    9.2226   H         1 RES1   0.0000
   239 H118      0.3710   -0.9399    6.3348   H         1 RES1   0.0000
   240 H119      1.0771   -2.0440    7.5140   H         1 RES1   0.0000
   241 H120      2.8664   -0.3807    7.9898   H         1 RES1   0.0000
   242 H121      2.2882    0.6215    6.6669   H         1 RES1   0.0000
   243 H122      3.1445   -2.2888    6.3666   H         1 RES1   0.0000
   244 H123      4.2531   -0.9323    6.1512   H         1 RES1   0.0000
   245 H124      2.9512   -0.1036    4.2547   H         1 RES1   0.0000
   246 H125      1.7093   -1.3264    4.5282   H         1 RES1   0.0000
   247 H126      3.1677   -3.1198    3.9451   H         1 RES1   0.0000
   248 H127      4.5847   -2.0825    3.9156   H         1 RES1   0.0000
   249 H128      3.9759   -1.0483    1.8979   H         1 RES1   0.0000
   250 H129      2.2747   -1.4849    2.0355   H         1 RES1   0.0000
   251 H130      2.6771   -3.7314    1.3643   H         1 RES1   0.0000
   252 H131      4.3631   -3.6537    1.8665   H         1 RES1   0.0000
   253 H132      4.8559   -3.5153   -0.2750   H         1 RES1   0.0000
   254 H133      4.4327   -1.8234   -0.1555   H         1 RES1   0.0000
   255 H134      4.7698   -3.3739   -2.3324   H         1 RES1   0.0000
   256 H135      3.3659   -2.8628   -3.2395   H         1 RES1   0.0000
   257 H136      3.6027   -5.0814   -3.8454   H         1 RES1   0.0000
   258 H137      2.3675   -5.1986   -2.6083   H         1 RES1   0.0000
   259 H138      5.0030   -5.5070   -1.3720   H         1 RES1   0.0000
   260 H139      4.8758   -6.5607   -2.7601   H         1 RES1   0.0000
   261 H140      4.1308   -7.8291   -0.9108   H         1 RES1   0.0000
   262 H141      2.7102   -7.4505   -1.8657   H         1 RES1   0.0000
   263 H142      2.1488   -5.6018   -0.2773   H         1 RES1   0.0000
   264 H143      3.6043   -5.9839    0.6510   H         1 RES1   0.0000
   265 H144      2.7190   -8.1981    1.2146   H         1 RES1   0.0000
   266 H145      1.3419   -7.9545    0.1529   H         1 RES1   0.0000
   267 H146      0.5360   -7.5754    2.3405   H         1 RES1   0.0000
   268 H147      0.6599   -5.9835    1.5950   H         1 RES1   0.0000
   269 H148      2.7155   -5.5152    2.8736   H         1 RES1   0.0000
   270 H149      2.7653   -7.1760    3.4530   H         1 RES1   0.0000
   271 H150      0.6454   -6.8690    4.6507   H         1 RES1   0.0000
   272 H151      0.4997   -5.2236    4.0280   H         1 RES1   0.0000
   273 H152      2.3835   -4.4761    5.3483   H         1 RES1   0.0000
   274 H153      2.8702   -6.1261    5.7099   H         1 RES1   0.0000
   275 H154      1.7885   -5.0300    7.6343   H         1 RES1   0.0000
   276 H155      0.9343   -6.4797    7.1263   H         1 RES1   0.0000
   277 H156      0.0795   -3.6786    6.2691   H         1 RES1   0.0000
   278 H157     -0.5593   -4.5059    7.6905   H         1 RES1   0.0000
   279 H158     -0.8391   -5.1796    6.0912   H         1 RES1   0.0000
   280 H159      0.2685   -3.8194   -2.0157   H         1 RES1   0.0000
   281 H160      1.3215   -3.0247   -3.2105   H         1 RES1   0.0000
   282 H161      0.1165   -1.7695   -4.3620   H         1 RES1   0.0000
   283 H162     -1.1126   -0.7093   -3.6352   H         1 RES1   0.0000
   284 H163      0.9686    0.5172   -4.4660   H         1 RES1   0.0000
   285 H164      1.8834   -0.3301   -3.1846   H         1 RES1   0.0000
   286 H165     -0.7479    1.7956   -3.9257   H         1 RES1   0.0000
   287 H166     -0.1235    2.9315   -2.7096   H         1 RES1   0.0000
   288 H167     -3.7174    4.0700   -2.8737   H         1 RES1   0.0000
   289 H168     -2.1933    3.6173   -3.6207   H         1 RES1   0.0000
   290 H169     -1.2372    4.2682   -1.1909   H         1 RES1   0.0000
   291 H170     -2.6600    5.3131   -1.1623   H         1 RES1   0.0000
   292 H171     -1.9509    6.2977   -3.3487   H         1 RES1   0.0000
   293 H172     -0.4861    5.3271   -3.3102   H         1 RES1   0.0000
   294 H173     -1.2922    7.3947   -1.2115   H         1 RES1   0.0000
   295 H174     -0.2031    7.6963   -2.5439   H         1 RES1   0.0000
   296 H175      0.3388    5.6438   -0.3654   H         1 RES1   0.0000
   297 H176      0.9260    7.3098   -0.3730   H         1 RES1   0.0000
   298 H177      1.9087    6.6315   -2.7490   H         1 RES1   0.0000
   299 H178      1.7656    4.9934   -2.1198   H         1 RES1   0.0000
   300 H179      3.0946    5.9293   -0.0423   H         1 RES1   0.0000
   301 H180      3.4752    7.2749   -1.0835   H         1 RES1   0.0000
   302 H181      4.4969    5.7749   -2.7351   H         1 RES1   0.0000
   303 H182      3.9980    4.3563   -1.8113   H         1 RES1   0.0000
   304 H183      5.3803    5.2253    0.1281   H         1 RES1   0.0000
   305 H184      5.9888    6.4892   -0.9344   H         1 RES1   0.0000
   306 H185      6.3754    3.4883   -1.3569   H         1 RES1   0.0000
   307 H186      7.5277    4.6039   -0.6285   H         1 RES1   0.0000
   308 H187      8.3957    4.5710   -2.7313   H         1 RES1   0.0000
   309 H188      7.2723    5.9029   -2.9461   H         1 RES1   0.0000
   310 H189      6.7724    2.9917   -3.7370   H         1 RES1   0.0000
   311 H190      7.2007    4.3018   -4.8302   H         1 RES1   0.0000
   312 H191      5.6423    4.3193   -4.0159   H         1 RES1   0.0000
   313 H192     -4.1260    3.1040   -0.5430   H         1 RES1   0.0000
   314 H193     -3.5660    1.4251   -0.3910   H         1 RES1   0.0000
   315 H194     -4.7361    1.0952   -2.7214   H         1 RES1   0.0000
   316 H195     -5.6378    2.5549   -2.3113   H         1 RES1   0.0000
   317 H196     -6.4457    1.4718   -0.2128   H         1 RES1   0.0000
   318 H197     -5.4706    0.0556   -0.5907   H         1 RES1   0.0000
   319 H198     -6.7930   -0.2378   -2.7151   H         1 RES1   0.0000
   320 H199     -7.7884    1.1362   -2.2558   H         1 RES1   0.0000
   321 H200     -9.0014   -0.8341   -1.6689   H         1 RES1   0.0000
   322 H201     -8.4608   -0.0828   -0.1681   H         1 RES1   0.0000
   323 H202     -8.2466   -2.4847   -0.0207   H         1 RES1   0.0000
   324 H203     -6.6589   -1.7449    0.0560   H         1 RES1   0.0000
   325 H204     -6.4964   -3.7082   -1.3193   H         1 RES1   0.0000
   326 H205     -6.3365   -2.3143   -2.3844   H         1 RES1   0.0000
   327 H206     -8.7963   -2.5794   -2.9517   H         1 RES1   0.0000
   328 H207     -8.7681   -4.0865   -2.0486   H         1 RES1   0.0000
   329 H208     -8.4531   -4.6695   -4.3354   H         1 RES1   0.0000
   330 H209     -6.8661   -4.8416   -3.5895   H         1 RES1   0.0000
   331 H210     -6.1581   -2.6764   -4.5367   H         1 RES1   0.0000
   332 H211     -7.8042   -2.3632   -5.0892   H         1 RES1   0.0000
   333 H212     -6.5114   -3.0133   -6.9834   H         1 RES1   0.0000
   334 H213     -7.6383   -4.3163   -6.6310   H         1 RES1   0.0000
   335 H214     -4.6885   -4.3258   -5.8266   H         1 RES1   0.0000
   336 H215     -5.3703   -5.1479   -7.2262   H         1 RES1   0.0000
   337 H216     -5.8323   -5.6519   -5.6085   H         1 RES1   0.0000
   338 O9        2.3186    0.2781   -0.6919   O.3       1 RES1   0.0000
   339 H217      2.5221    0.9888   -1.3200   H         1 RES1   0.0000
   340 H218      3.0345    0.2861   -0.0299   H         1 RES1   0.0000
@<TRIPOS>BOND
     1     1    28    1
     2     1    30    1
     3     1    33    1
     4     1    36    1
     5     1   196    1
     6     1   198    1
     7     1   201    1
     8     1   204    1
     9     1   338    1
    10     2     3    1
    11     2    62    1
    12     2    63    1
    13     2    64    1
    14     3     4    1
    15     3    65    1
    16     3    66    1
    17     4     5    1
    18     4    67    1
    19     4    68    1
    20     5     6    1
    21     5    69    1
    22     5    70    1
    23     6     7    1
    24     6    71    1
    25     6    72    1
    26     7     8    1
    27     7    73    1
    28     7    74    1
    29     8     9    1
    30     8    75    1
    31     8    76    1
    32     9    10    1
    33     9    77    1
    34     9    78    1
    35    10    11    1
    36    10    79    1
    37    10    80    1
    38    11    12    1
    39    11    81    1
    40    11    82    1
    41    12    13    1
    42    12    83    1
    43    12    84    1
    44    13    14    1
    45    13    85    1
    46    13    86    1
    47    14    15    1
    48    14    27    1
    49    15    16    1
    50    15    87    1
    51    15    88    1
    52    16    17    1
    53    16    89    1
    54    16    90    1
    55    17    18    1
    56    17    91    1
    57    17    92    1
    58    18    19    1
    59    18    93    1
    60    18    94    1
    61    19    20    1
    62    19    95    1
    63    19    96    1
    64    20    21    1
    65    20    97    1
    66    20    98    1
    67    21    22    1
    68    21    99    1
    69    21   100    1
    70    22    23    1
    71    22   101    1
    72    22   102    1
    73    23    24    1
    74    23   103    1
    75    23   104    1
    76    24    25    1
    77    24   105    1
    78    24   106    1
    79    25    26    1
    80    25   107    1
    81    25   108    1
    82    26   109    1
    83    26   110    1
    84    26   111    1
    85    27    28    2
    86    27    29    1
    87    29    30    1
    88    29   112    1
    89    29   113    1
    90    30    31    1
    91    31    32    1
    92    31   114    1
    93    31   115    1
    94    32    33    1
    95    32   116    1
    96    32   117    1
    97    33    34    1
    98    34    35    1
    99    34   118    1
   100    34   119    1
   101    35    36    2
   102    35    37    1
   103    37    38    1
   104    37    50    1
   105    38    39    1
   106    38   120    1
   107    38   121    1
   108    39    40    1
   109    39   122    1
   110    39   123    1
   111    40    41    1
   112    40   124    1
   113    40   125    1
   114    41    42    1
   115    41   126    1
   116    41   127    1
   117    42    43    1
   118    42   128    1
   119    42   129    1
   120    43    44    1
   121    43   130    1
   122    43   131    1
   123    44    45    1
   124    44   132    1
   125    44   133    1
   126    45    46    1
   127    45   134    1
   128    45   135    1
   129    46    47    1
   130    46   136    1
   131    46   137    1
   132    47    48    1
   133    47   138    1
   134    47   139    1
   135    48    49    1
   136    48   140    1
   137    48   141    1
   138    49   142    1
   139    49   143    1
   140    49   144    1
   141    50    51    1
   142    50   145    1
   143    50   146    1
   144    51    52    1
   145    51   147    1
   146    51   148    1
   147    52    53    1
   148    52   149    1
   149    52   150    1
   150    53    54    1
   151    53   151    1
   152    53   152    1
   153    54    55    1
   154    54   153    1
   155    54   154    1
   156    55    56    1
   157    55   155    1
   158    55   156    1
   159    56    57    1
   160    56   157    1
   161    56   158    1
   162    57    58    1
   163    57   159    1
   164    57   160    1
   165    58    59    1
   166    58   161    1
   167    58   162    1
   168    59    60    1
   169    59   163    1
   170    59   164    1
   171    60    61    1
   172    60   165    1
   173    60   166    1
   174    61   167    1
   175    61   168    1
   176    61   169    1
   177   170   171    1
   178   170   230    1
   179   170   231    1
   180   170   232    1
   181   171   172    1
   182   171   233    1
   183   171   234    1
   184   172   173    1
   185   172   235    1
   186   172   236    1
   187   173   174    1
   188   173   237    1
   189   173   238    1
   190   174   175    1
   191   174   239    1
   192   174   240    1
   193   175   176    1
   194   175   241    1
   195   175   242    1
   196   176   177    1
   197   176   243    1
   198   176   244    1
   199   177   178    1
   200   177   245    1
   201   177   246    1
   202   178   179    1
   203   178   247    1
   204   178   248    1
   205   179   180    1
   206   179   249    1
   207   179   250    1
   208   180   181    1
   209   180   251    1
   210   180   252    1
   211   181   182    1
   212   181   253    1
   213   181   254    1
   214   182   183    1
   215   182   195    1
   216   183   184    1
   217   183   255    1
   218   183   256    1
   219   184   185    1
   220   184   257    1
   221   184   258    1
   222   185   186    1
   223   185   259    1
   224   185   260    1
   225   186   187    1
   226   186   261    1
   227   186   262    1
   228   187   188    1
   229   187   263    1
   230   187   264    1
   231   188   189    1
   232   188   265    1
   233   188   266    1
   234   189   190    1
   235   189   267    1
   236   189   268    1
   237   190   191    1
   238   190   269    1
   239   190   270    1
   240   191   192    1
   241   191   271    1
   242   191   272    1
   243   192   193    1
   244   192   273    1
   245   192   274    1
   246   193   194    1
   247   193   275    1
   248   193   276    1
   249   194   277    1
   250   194   278    1
   251   194   279    1
   252   195   196    2
   253   195   197    1
   254   197   198    1
   255   197   280    1
   256   197   281    1
   257   198   199    1
   258   199   200    1
   259   199   282    1
   260   199   283    1
   261   200   201    1
   262   200   284    1
   263   200   285    1
   264   201   202    1
   265   202   203    1
   266   202   286    1
   267   202   287    1
   268   203   204    2
   269   203   205    1
   270   205   206    1
   271   205   218    1
   272   206   207    1
   273   206   288    1
   274   206   289    1
   275   207   208    1
   276   207   290    1
   277   207   291    1
   278   208   209    1
   279   208   292    1
   280   208   293    1
   281   209   210    1
   282   209   294    1
   283   209   295    1
   284   210   211    1
   285   210   296    1
   286   210   297    1
   287   211   212    1
   288   211   298    1
   289   211   299    1
   290   212   213    1
   291   212   300    1
   292   212   301    1
   293   213   214    1
   294   213   302    1
   295   213   303    1
   296   214   215    1
   297   214   304    1
   298   214   305    1
   299   215   216    1
   300   215   306    1
   301   215   307    1
   302   216   217    1
   303   216   308    1
   304   216   309    1
   305   217   310    1
   306   217   311    1
   307   217   312    1
   308   218   219    1
   309   218   313    1
   310   218   314    1
   311   219   220    1
   312   219   315    1
   313   219   316    1
   314   220   221    1
   315   220   317    1
   316   220   318    1
   317   221   222    1
   318   221   319    1
   319   221   320    1
   320   222   223    1
   321   222   321    1
   322   222   322    1
   323   223   224    1
   324   223   323    1
   325   223   324    1
   326   224   225    1
   327   224   325    1
   328   224   326    1
   329   225   226    1
   330   225   327    1
   331   225   328    1
   332   226   227    1
   333   226   329    1
   334   226   330    1
   335   227   228    1
   336   227   331    1
   337   227   332    1
   338   228   229    1
   339   228   333    1
   340   228   334    1
   341   229   335    1
   342   229   336    1
   343   229   337    1
   344   338   339    1
   345   338   340    1
@<TRIPOS>SUBSTRUCTURE
     1 RES1      340 GROUP             0 ****  ****    0  
