@<TRIPOS>MOLECULE
am_c3_9H2O_c0_0_nunpairedes_0_charge_3 Charge: 3 Unpaired_Electrons: 7 XTB_Unpaired_Electrons: 0 XTB_Charge: 3
    41    47     1     0     0
SMALL
NoCharges
****
Generated from Architector

@<TRIPOS>ATOM
     1 Gd1       0.0256   -0.0724    0.2966   Gd        1 RES1   0.0000
     2 O1        1.8893   -1.1503   -0.3019   O.2       1 RES1   0.0000
     3 C1        1.9432   -1.9513   -1.2431   C.2       1 RES1   0.0000
     4 O2        2.9575   -2.1108   -2.0155   O.2       1 RES1   0.0000
     5 C2        0.7286   -2.7998   -1.5854   C.3       1 RES1   0.0000
     6 N1       -0.4663   -2.2413   -0.8994   N.4       1 RES1   0.0000
     7 C3       -0.8373   -3.1068    0.2568   C.3       1 RES1   0.0000
     8 C4       -1.7024   -2.3732    1.2878   C.3       1 RES1   0.0000
     9 O3       -0.8690   -1.4133    1.9746   O.3       1 RES1   0.0000
    10 C5       -1.6131   -2.0999   -1.8396   C.3       1 RES1   0.0000
    11 C6       -1.4927   -0.8496   -2.7345   C.3       1 RES1   0.0000
    12 N2       -1.4471    0.4320   -1.9644   N.4       1 RES1   0.0000
    13 C7       -2.7993    0.8503   -1.5230   C.3       1 RES1   0.0000
    14 C8       -2.8430    1.2113   -0.0450   C.2       1 RES1   0.0000
    15 O4       -1.8717    0.9918    0.6871   O.2       1 RES1   0.0000
    16 O5       -3.9584    1.7049    0.3492   O.2       1 RES1   0.0000
    17 C9       -0.7900    1.5121   -2.7557   C.3       1 RES1   0.0000
    18 C10       0.5209    1.9599   -2.1060   C.2       1 RES1   0.0000
    19 O6        0.8776    1.4395   -1.0474   O.2       1 RES1   0.0000
    20 O7        1.2394    2.8800   -2.6505   O.3       1 RES1   0.0000
    21 H1        3.7456   -1.5653   -1.8157   H         1 RES1   0.0000
    22 H2        0.9406   -3.8412   -1.2974   H         1 RES1   0.0000
    23 H3        0.6033   -2.8269   -2.6717   H         1 RES1   0.0000
    24 H4        0.0808   -3.4155    0.7751   H         1 RES1   0.0000
    25 H5       -1.3592   -4.0069   -0.0832   H         1 RES1   0.0000
    26 H6       -2.1194   -3.1022    1.9901   H         1 RES1   0.0000
    27 H7       -2.5442   -1.8298    0.8232   H         1 RES1   0.0000
    28 H8       -1.0402   -1.4956    2.9283   H         1 RES1   0.0000
    29 H9       -2.5395   -2.0576   -1.2538   H         1 RES1   0.0000
    30 H10      -1.6834   -2.9828   -2.4907   H         1 RES1   0.0000
    31 H11      -2.3341   -0.8548   -3.4443   H         1 RES1   0.0000
    32 H12      -0.5744   -0.9162   -3.3279   H         1 RES1   0.0000
    33 H13      -3.5212    0.0412   -1.6772   H         1 RES1   0.0000
    34 H14      -3.1971    1.7085   -2.0848   H         1 RES1   0.0000
    35 H15      -4.0546    1.9413    1.2953   H         1 RES1   0.0000
    36 H16      -1.4363    2.3989   -2.8264   H         1 RES1   0.0000
    37 H17      -0.5977    1.1877   -3.7889   H         1 RES1   0.0000
    38 H18       0.9168    3.3472   -3.4434   H         1 RES1   0.0000
    39 O8        1.1656    0.9614    2.0957   O.3       1 RES1   0.0000
    40 H19       1.8017    0.5647    2.7203   H         1 RES1   0.0000
    41 H20       1.3177    1.9246    2.1656   H         1 RES1   0.0000
@<TRIPOS>BOND
     1     1     2    1
     2     1     4    1
     3     1     6    1
     4     1     9    1
     5     1    12    1
     6     1    15    1
     7     1    16    1
     8     1    19    1
     9     1    39    1
    10     2     3    2
    11     3     4    1
    12     3     5    1
    13     4    21    1
    14     5     6    1
    15     5    22    1
    16     5    23    1
    17     6     7    1
    18     6    10    1
    19     7     8    1
    20     7    24    1
    21     7    25    1
    22     8     9    1
    23     8    26    1
    24     8    27    1
    25     9    28    1
    26    10    11    1
    27    10    29    1
    28    10    30    1
    29    11    12    1
    30    11    31    1
    31    11    32    1
    32    12    13    1
    33    12    17    1
    34    13    14    1
    35    13    33    1
    36    13    34    1
    37    14    15    2
    38    14    16    1
    39    16    35    1
    40    17    18    1
    41    17    36    1
    42    17    37    1
    43    18    19    2
    44    18    20    1
    45    20    38    1
    46    39    40    1
    47    39    41    1
@<TRIPOS>SUBSTRUCTURE
     1 RES1       41 GROUP             0 ****  ****    0  
