@<TRIPOS>MOLECULE
capped_square_antiprismatic_0_nunpairedes_0_charge_3 Charge: 3 Unpaired_Electrons: 7 XTB_Unpaired_Electrons: 0 XTB_Charge: 3
   439   444     1     0     0
SMALL
NoCharges
****
Generated from Architector

@<TRIPOS>ATOM
     1 Gd1       0.2646   -0.1112    0.3155   Gd        1 RES1   0.0000
     2 C1        1.5068   -9.9696    1.9267   C.3       1 RES1   0.0000
     3 C2        2.2962   -9.5733    0.6808   C.3       1 RES1   0.0000
     4 C3        3.8062   -9.8434    0.8024   C.3       1 RES1   0.0000
     5 C4        4.6501   -8.6161    1.1553   C.3       1 RES1   0.0000
     6 C5        4.3284   -8.0057    2.5168   C.3       1 RES1   0.0000
     7 C6        5.0875   -6.7027    2.7578   C.3       1 RES1   0.0000
     8 C7        4.6147   -6.0033    4.0318   C.3       1 RES1   0.0000
     9 C8        4.7340   -4.4676    3.9754   C.3       1 RES1   0.0000
    10 C9        3.3941   -3.8434    4.3608   C.3       1 RES1   0.0000
    11 C10       3.3378   -2.3188    4.5674   C.3       1 RES1   0.0000
    12 N1        3.1950   -1.5219    3.3544   N.am      1 RES1   0.0000
    13 C11       4.4497   -1.0171    2.8011   C.3       1 RES1   0.0000
    14 C12       4.7168    0.4037    3.3235   C.3       1 RES1   0.0000
    15 C13       6.2078    0.7713    3.2711   C.3       1 RES1   0.0000
    16 C14       6.4896    2.1778    2.7436   C.3       1 RES1   0.0000
    17 C15       6.2677    2.3623    1.2399   C.3       1 RES1   0.0000
    18 C16       7.2696    1.6289    0.3329   C.3       1 RES1   0.0000
    19 C17       6.8461    0.2075   -0.0702   C.3       1 RES1   0.0000
    20 C18       7.0180   -0.0989   -1.5659   C.3       1 RES1   0.0000
    21 C19       8.3527   -0.7355   -1.9559   C.3       1 RES1   0.0000
    22 C20       9.5714    0.0646   -1.5249   C.3       1 RES1   0.0000
    23 C21       2.0603   -1.0608    2.8452   C.2       1 RES1   0.0000
    24 O1        2.0360   -0.3678    1.7989   O.2       1 RES1   0.0000
    25 C22       0.7548   -1.3259    3.6063   C.3       1 RES1   0.0000
    26 C23       0.2363   -2.7486    3.4758   C.3       1 RES1   0.0000
    27 O2       -0.2753   -0.4807    3.1029   O.3       1 RES1   0.0000
    28 C24      -0.9351    0.3489    4.0798   C.3       1 RES1   0.0000
    29 C25      -2.4385    0.0109    3.9708   C.3       1 RES1   0.0000
    30 C26      -3.2669    0.1466    5.2447   C.3       1 RES1   0.0000
    31 C27      -0.4949    1.7797    3.6881   C.2       1 RES1   0.0000
    32 O3        0.1235    1.8423    2.6127   O.2       1 RES1   0.0000
    33 N2       -0.7696    2.8751    4.4007   N.am      1 RES1   0.0000
    34 C28      -0.4406    4.1673    3.7924   C.3       1 RES1   0.0000
    35 C29       0.8422    4.8336    4.2765   C.3       1 RES1   0.0000
    36 C30       2.0990    3.9663    4.1968   C.3       1 RES1   0.0000
    37 C31       3.3750    4.8259    4.2199   C.3       1 RES1   0.0000
    38 C32       4.1589    4.8059    5.5343   C.3       1 RES1   0.0000
    39 C33       3.4742    5.4161    6.7623   C.3       1 RES1   0.0000
    40 C34       3.3578    6.9480    6.7692   C.3       1 RES1   0.0000
    41 C35       2.0547    7.5277    6.2172   C.3       1 RES1   0.0000
    42 C36       0.8171    7.1495    7.0277   C.3       1 RES1   0.0000
    43 C37      -0.4268    7.8249    6.4710   C.3       1 RES1   0.0000
    44 C38      -1.3164    2.9756    5.7456   C.3       1 RES1   0.0000
    45 C39      -2.6891    3.6718    5.8112   C.3       1 RES1   0.0000
    46 C40      -3.1977    3.8184    7.2512   C.3       1 RES1   0.0000
    47 C41      -3.3229    2.5116    8.0348   C.3       1 RES1   0.0000
    48 C42      -3.4199    2.7776    9.5386   C.3       1 RES1   0.0000
    49 C43      -3.0609    1.5637   10.3950   C.3       1 RES1   0.0000
    50 C44      -1.5975    1.1160   10.2958   C.3       1 RES1   0.0000
    51 C45      -0.5692    2.1762   10.7240   C.3       1 RES1   0.0000
    52 C46       0.0943    2.9164    9.5609   C.3       1 RES1   0.0000
    53 C47       1.1887    3.8617   10.0401   C.3       1 RES1   0.0000
    54 H1        0.4440   -9.7840    1.7803   H         1 RES1   0.0000
    55 H2        1.8385   -9.4180    2.8026   H         1 RES1   0.0000
    56 H3        1.6369  -11.0291    2.1297   H         1 RES1   0.0000
    57 H4        2.1273   -8.5146    0.4550   H         1 RES1   0.0000
    58 H5        1.8996  -10.1479   -0.1594   H         1 RES1   0.0000
    59 H6        4.1777  -10.2252   -0.1513   H         1 RES1   0.0000
    60 H7        3.9730  -10.6219    1.5478   H         1 RES1   0.0000
    61 H8        4.5086   -7.8577    0.3788   H         1 RES1   0.0000
    62 H9        5.7024   -8.9030    1.1359   H         1 RES1   0.0000
    63 H10       4.5608   -8.7187    3.3081   H         1 RES1   0.0000
    64 H11       3.2613   -7.7853    2.5690   H         1 RES1   0.0000
    65 H12       4.9006   -6.0433    1.9067   H         1 RES1   0.0000
    66 H13       6.1598   -6.8968    2.7919   H         1 RES1   0.0000
    67 H14       5.1618   -6.3983    4.8863   H         1 RES1   0.0000
    68 H15       3.5630   -6.2692    4.1774   H         1 RES1   0.0000
    69 H16       5.0107   -4.1624    2.9652   H         1 RES1   0.0000
    70 H17       5.5083   -4.1258    4.6568   H         1 RES1   0.0000
    71 H18       3.0960   -4.2905    5.3083   H         1 RES1   0.0000
    72 H19       2.6753   -4.1413    3.6005   H         1 RES1   0.0000
    73 H20       4.2548   -1.9937    5.0613   H         1 RES1   0.0000
    74 H21       2.5174   -2.1114    5.2577   H         1 RES1   0.0000
    75 H22       4.3712   -1.0288    1.7104   H         1 RES1   0.0000
    76 H23       5.2436   -1.6927    3.1139   H         1 RES1   0.0000
    77 H24       4.3702    0.4639    4.3583   H         1 RES1   0.0000
    78 H25       4.1187    1.1032    2.7392   H         1 RES1   0.0000
    79 H26       6.7418    0.0625    2.6450   H         1 RES1   0.0000
    80 H27       6.6243    0.6991    4.2755   H         1 RES1   0.0000
    81 H28       7.5291    2.4181    2.9684   H         1 RES1   0.0000
    82 H29       5.8713    2.8981    3.2855   H         1 RES1   0.0000
    83 H30       6.3654    3.4308    1.0349   H         1 RES1   0.0000
    84 H31       5.2502    2.0668    0.9721   H         1 RES1   0.0000
    85 H32       8.2441    1.6299    0.8212   H         1 RES1   0.0000
    86 H33       7.3757    2.2185   -0.5777   H         1 RES1   0.0000
    87 H34       5.7898    0.0975    0.1820   H         1 RES1   0.0000
    88 H35       7.3969   -0.5406    0.4965   H         1 RES1   0.0000
    89 H36       6.8809    0.8169   -2.1397   H         1 RES1   0.0000
    90 H37       6.2319   -0.7938   -1.8754   H         1 RES1   0.0000
    91 H38       8.3714   -0.8491   -3.0420   H         1 RES1   0.0000
    92 H39       8.4024   -1.7386   -1.5275   H         1 RES1   0.0000
    93 H40       9.5501    1.0604   -1.9586   H         1 RES1   0.0000
    94 H41      10.4811   -0.4295   -1.8536   H         1 RES1   0.0000
    95 H42       9.6135    0.1633   -0.4448   H         1 RES1   0.0000
    96 H43       0.9468   -1.0820    4.6582   H         1 RES1   0.0000
    97 H44      -0.0528   -2.9036    2.4377   H         1 RES1   0.0000
    98 H45      -0.6407   -2.8650    4.1067   H         1 RES1   0.0000
    99 H46       0.9651   -3.4861    3.7748   H         1 RES1   0.0000
   100 H47      -0.5634    0.1095    5.0834   H         1 RES1   0.0000
   101 H48      -2.8904    0.5903    3.1651   H         1 RES1   0.0000
   102 H49      -2.4673   -1.0403    3.6625   H         1 RES1   0.0000
   103 H50      -3.4513    1.1774    5.5272   H         1 RES1   0.0000
   104 H51      -2.7966   -0.3580    6.0861   H         1 RES1   0.0000
   105 H52      -4.2399   -0.3090    5.0827   H         1 RES1   0.0000
   106 H53      -1.2713    4.8529    3.9721   H         1 RES1   0.0000
   107 H54      -0.3578    3.9963    2.7214   H         1 RES1   0.0000
   108 H55       0.7190    5.1851    5.2975   H         1 RES1   0.0000
   109 H56       0.9598    5.7148    3.6403   H         1 RES1   0.0000
   110 H57       2.0810    3.3758    3.2772   H         1 RES1   0.0000
   111 H58       2.1102    3.2663    5.0351   H         1 RES1   0.0000
   112 H59       3.1243    5.8592    3.9829   H         1 RES1   0.0000
   113 H60       4.0496    4.4730    3.4370   H         1 RES1   0.0000
   114 H61       5.0956    5.3433    5.3686   H         1 RES1   0.0000
   115 H62       4.4182    3.7681    5.7698   H         1 RES1   0.0000
   116 H63       4.0788    5.1258    7.6259   H         1 RES1   0.0000
   117 H64       2.4911    4.9645    6.9004   H         1 RES1   0.0000
   118 H65       4.1988    7.3719    6.2148   H         1 RES1   0.0000
   119 H66       3.4518    7.2848    7.8030   H         1 RES1   0.0000
   120 H67       1.9190    7.2376    5.1756   H         1 RES1   0.0000
   121 H68       2.1479    8.6139    6.2339   H         1 RES1   0.0000
   122 H69       0.9651    7.4472    8.0649   H         1 RES1   0.0000
   123 H70       0.6712    6.0667    7.0309   H         1 RES1   0.0000
   124 H71      -0.3445    8.8998    6.5857   H         1 RES1   0.0000
   125 H72      -1.3186    7.4944    6.9937   H         1 RES1   0.0000
   126 H73      -0.5451    7.6041    5.4123   H         1 RES1   0.0000
   127 H74      -0.6081    3.5544    6.3452   H         1 RES1   0.0000
   128 H75      -1.3787    1.9833    6.1871   H         1 RES1   0.0000
   129 H76      -3.4165    3.1277    5.2081   H         1 RES1   0.0000
   130 H77      -2.6222    4.6812    5.4023   H         1 RES1   0.0000
   131 H78      -4.1699    4.3146    7.2330   H         1 RES1   0.0000
   132 H79      -2.5144    4.4773    7.7888   H         1 RES1   0.0000
   133 H80      -2.4470    1.8908    7.8515   H         1 RES1   0.0000
   134 H81      -4.2022    1.9557    7.7085   H         1 RES1   0.0000
   135 H82      -4.4336    3.1004    9.7792   H         1 RES1   0.0000
   136 H83      -2.7470    3.5910    9.8108   H         1 RES1   0.0000
   137 H84      -3.7060    0.7239   10.1238   H         1 RES1   0.0000
   138 H85      -3.2680    1.8140   11.4367   H         1 RES1   0.0000
   139 H86      -1.3737    0.7817    9.2789   H         1 RES1   0.0000
   140 H87      -1.4928    0.2415   10.9402   H         1 RES1   0.0000
   141 H88       0.2160    1.6845   11.3009   H         1 RES1   0.0000
   142 H89      -1.0494    2.8980   11.3867   H         1 RES1   0.0000
   143 H90      -0.6495    3.4943    9.0107   H         1 RES1   0.0000
   144 H91       0.5255    2.1836    8.8710   H         1 RES1   0.0000
   145 H92       0.7759    4.6081   10.7112   H         1 RES1   0.0000
   146 H93       1.6526    4.3768    9.2026   H         1 RES1   0.0000
   147 H94       1.9645    3.3205   10.5734   H         1 RES1   0.0000
   148 C48      -6.8777   -6.9909    3.5386   C.3       1 RES1   0.0000
   149 C49      -7.4778   -5.8333    2.7479   C.3       1 RES1   0.0000
   150 C50      -8.3038   -6.2873    1.5361   C.3       1 RES1   0.0000
   151 C51      -7.5721   -6.3079    0.1901   C.3       1 RES1   0.0000
   152 C52      -6.5461   -7.4350    0.0173   C.3       1 RES1   0.0000
   153 C53      -5.1201   -7.0195    0.3834   C.3       1 RES1   0.0000
   154 C54      -4.4404   -6.2216   -0.7316   C.3       1 RES1   0.0000
   155 C55      -3.1870   -5.5043   -0.2174   C.3       1 RES1   0.0000
   156 C56      -3.4306   -4.0659    0.2416   C.3       1 RES1   0.0000
   157 C57      -3.7105   -3.0969   -0.9036   C.3       1 RES1   0.0000
   158 N3       -2.6112   -2.9705   -1.8594   N.am      1 RES1   0.0000
   159 C58      -2.8706   -3.4538   -3.2217   C.3       1 RES1   0.0000
   160 C59      -2.3421   -4.8308   -3.6631   C.3       1 RES1   0.0000
   161 C60      -0.8316   -4.8353   -3.8844   C.3       1 RES1   0.0000
   162 C61      -0.2224   -6.0064   -4.6578   C.3       1 RES1   0.0000
   163 C62       1.2896   -5.7638   -4.7163   C.3       1 RES1   0.0000
   164 C63       2.0672   -6.6763   -5.6593   C.3       1 RES1   0.0000
   165 C64       3.5772   -6.5098   -5.4729   C.3       1 RES1   0.0000
   166 C65       4.0936   -5.0978   -5.7583   C.3       1 RES1   0.0000
   167 C66       5.6142   -5.0158   -5.6094   C.3       1 RES1   0.0000
   168 C67       6.1412   -3.6057   -5.8524   C.3       1 RES1   0.0000
   169 C68      -1.5933   -2.1919   -1.4971   C.2       1 RES1   0.0000
   170 O4       -1.4986   -1.6779   -0.3524   O.2       1 RES1   0.0000
   171 C69      -0.5240   -1.8721   -2.5330   C.3       1 RES1   0.0000
   172 C70      -1.0247   -0.7585   -3.4577   C.3       1 RES1   0.0000
   173 O5        0.6522   -1.4218   -1.8681   O.3       1 RES1   0.0000
   174 C71       1.8492   -2.1679   -2.1033   C.3       1 RES1   0.0000
   175 C72       2.8875   -1.1466   -2.5816   C.3       1 RES1   0.0000
   176 C73       3.4605   -0.3661   -1.4073   C.3       1 RES1   0.0000
   177 C74       2.1228   -2.9066   -0.7659   C.2       1 RES1   0.0000
   178 O6        1.4788   -2.4848    0.2174   O.2       1 RES1   0.0000
   179 N4        2.9065   -3.9823   -0.7526   N.am      1 RES1   0.0000
   180 C75       2.7488   -5.1464    0.1318   C.3       1 RES1   0.0000
   181 C76       1.6260   -5.1757    1.1624   C.3       1 RES1   0.0000
   182 C77       0.3033   -5.7807    0.6812   C.3       1 RES1   0.0000
   183 C78      -0.3914   -6.6023    1.7738   C.3       1 RES1   0.0000
   184 C79      -0.9479   -5.7683    2.9291   C.3       1 RES1   0.0000
   185 C80      -2.0646   -6.5023    3.6813   C.3       1 RES1   0.0000
   186 C81      -2.3774   -5.9166    5.0616   C.3       1 RES1   0.0000
   187 C82      -2.8304   -4.4552    5.0653   C.3       1 RES1   0.0000
   188 C83      -4.2579   -4.2173    4.5621   C.3       1 RES1   0.0000
   189 C84      -5.2819   -4.2279    5.6905   C.3       1 RES1   0.0000
   190 C85       3.9799   -4.2083   -1.7279   C.3       1 RES1   0.0000
   191 C86       5.3146   -4.7199   -1.1421   C.3       1 RES1   0.0000
   192 C87       5.9922   -3.8269   -0.0944   C.3       1 RES1   0.0000
   193 C88       7.2218   -4.5229    0.5245   C.3       1 RES1   0.0000
   194 C89       8.3233   -3.5845    1.0371   C.3       1 RES1   0.0000
   195 C90       7.9530   -2.7327    2.2622   C.3       1 RES1   0.0000
   196 C91       8.2688   -3.3683    3.6201   C.3       1 RES1   0.0000
   197 C92       8.0180   -2.3853    4.7683   C.3       1 RES1   0.0000
   198 C93       8.3050   -2.9562    6.1612   C.3       1 RES1   0.0000
   199 C94       7.1721   -3.8086    6.7191   C.3       1 RES1   0.0000
   200 H95      -6.2665   -6.6219    4.3588   H         1 RES1   0.0000
   201 H96      -6.2607   -7.6252    2.9101   H         1 RES1   0.0000
   202 H97      -7.6688   -7.6051    3.9590   H         1 RES1   0.0000
   203 H98      -6.6881   -5.1496    2.4240   H         1 RES1   0.0000
   204 H99      -8.1271   -5.2667    3.4188   H         1 RES1   0.0000
   205 H100     -9.1551   -5.6111    1.4290   H         1 RES1   0.0000
   206 H101     -8.7104   -7.2787    1.7388   H         1 RES1   0.0000
   207 H102     -7.0906   -5.3386    0.0326   H         1 RES1   0.0000
   208 H103     -8.3348   -6.4161   -0.5819   H         1 RES1   0.0000
   209 H104     -6.5478   -7.7764   -1.0205   H         1 RES1   0.0000
   210 H105     -6.8410   -8.2868    0.6302   H         1 RES1   0.0000
   211 H106     -4.5199   -7.9101    0.5869   H         1 RES1   0.0000
   212 H107     -5.1403   -6.4196    1.2926   H         1 RES1   0.0000
   213 H108     -5.1461   -5.5019   -1.1468   H         1 RES1   0.0000
   214 H109     -4.1721   -6.9109   -1.5352   H         1 RES1   0.0000
   215 H110     -2.4026   -5.5038   -0.9773   H         1 RES1   0.0000
   216 H111     -2.8129   -6.0676    0.6351   H         1 RES1   0.0000
   217 H112     -2.5530   -3.7070    0.7853   H         1 RES1   0.0000
   218 H113     -4.2858   -4.0296    0.9195   H         1 RES1   0.0000
   219 H114     -3.8922   -2.1014   -0.4886   H         1 RES1   0.0000
   220 H115     -4.5971   -3.4136   -1.4482   H         1 RES1   0.0000
   221 H116     -2.5093   -2.7220   -3.9421   H         1 RES1   0.0000
   222 H117     -3.9561   -3.4868   -3.3176   H         1 RES1   0.0000
   223 H118     -2.8405   -5.0436   -4.6124   H         1 RES1   0.0000
   224 H119     -2.6319   -5.6164   -2.9702   H         1 RES1   0.0000
   225 H120     -0.3316   -4.7876   -2.9083   H         1 RES1   0.0000
   226 H121     -0.5866   -3.9463   -4.4772   H         1 RES1   0.0000
   227 H122     -0.6456   -6.0350   -5.6620   H         1 RES1   0.0000
   228 H123     -0.4396   -6.9576   -4.1713   H         1 RES1   0.0000
   229 H124      1.6949   -5.8720   -3.7040   H         1 RES1   0.0000
   230 H125      1.4579   -4.7288   -5.0303   H         1 RES1   0.0000
   231 H126      1.7971   -6.4450   -6.6906   H         1 RES1   0.0000
   232 H127      1.8024   -7.7176   -5.4699   H         1 RES1   0.0000
   233 H128      4.0880   -7.2031   -6.1407   H         1 RES1   0.0000
   234 H129      3.8430   -6.7892   -4.4491   H         1 RES1   0.0000
   235 H130      3.6358   -4.3763   -5.0724   H         1 RES1   0.0000
   236 H131      3.8184   -4.8109   -6.7760   H         1 RES1   0.0000
   237 H132      6.0788   -5.6978   -6.3232   H         1 RES1   0.0000
   238 H133      5.8993   -5.3456   -4.6051   H         1 RES1   0.0000
   239 H134      5.8718   -3.2687   -6.8500   H         1 RES1   0.0000
   240 H135      7.2242   -3.5867   -5.7682   H         1 RES1   0.0000
   241 H136      5.7294   -2.9031   -5.1281   H         1 RES1   0.0000
   242 H137     -0.2882   -2.7691   -3.0981   H         1 RES1   0.0000
   243 H138     -0.7040    0.1903   -3.0359   H         1 RES1   0.0000
   244 H139     -2.1067   -0.7248   -3.5193   H         1 RES1   0.0000
   245 H140     -0.6144   -0.8807   -4.4551   H         1 RES1   0.0000
   246 H141      1.6744   -2.9232   -2.8786   H         1 RES1   0.0000
   247 H142      3.6813   -1.6197   -3.1593   H         1 RES1   0.0000
   248 H143      2.3566   -0.4627   -3.2480   H         1 RES1   0.0000
   249 H144      4.0291   -1.0290   -0.7593   H         1 RES1   0.0000
   250 H145      2.6432    0.0873   -0.8232   H         1 RES1   0.0000
   251 H146      4.1249    0.4168   -1.7642   H         1 RES1   0.0000
   252 H147      3.6900   -5.2615    0.6678   H         1 RES1   0.0000
   253 H148      2.6304   -6.0057   -0.5446   H         1 RES1   0.0000
   254 H149      1.4678   -4.1770    1.5538   H         1 RES1   0.0000
   255 H150      1.9959   -5.8060    1.9711   H         1 RES1   0.0000
   256 H151      0.4973   -6.4577   -0.1534   H         1 RES1   0.0000
   257 H152     -0.3700   -5.0003    0.3189   H         1 RES1   0.0000
   258 H153      0.3081   -7.3384    2.1676   H         1 RES1   0.0000
   259 H154     -1.2051   -7.1637    1.3152   H         1 RES1   0.0000
   260 H155     -1.3446   -4.8348    2.5248   H         1 RES1   0.0000
   261 H156     -0.1426   -5.5207    3.6259   H         1 RES1   0.0000
   262 H157     -1.7637   -7.5418    3.8325   H         1 RES1   0.0000
   263 H158     -2.9638   -6.5123    3.0602   H         1 RES1   0.0000
   264 H159     -1.4791   -5.9979    5.6774   H         1 RES1   0.0000
   265 H160     -3.1416   -6.5343    5.5304   H         1 RES1   0.0000
   266 H161     -2.1351   -3.8901    4.4458   H         1 RES1   0.0000
   267 H162     -2.7498   -4.0675    6.0829   H         1 RES1   0.0000
   268 H163     -4.5121   -4.9798    3.8259   H         1 RES1   0.0000
   269 H164     -4.3077   -3.2465    4.0597   H         1 RES1   0.0000
   270 H165     -5.2219   -5.1522    6.2575   H         1 RES1   0.0000
   271 H166     -6.2889   -4.1316    5.2934   H         1 RES1   0.0000
   272 H167     -5.1089   -3.3988    6.3746   H         1 RES1   0.0000
   273 H168      4.1867   -3.2758   -2.2398   H         1 RES1   0.0000
   274 H169      3.6490   -4.9474   -2.4638   H         1 RES1   0.0000
   275 H170      5.9921   -4.8104   -1.9937   H         1 RES1   0.0000
   276 H171      5.1883   -5.7246   -0.7401   H         1 RES1   0.0000
   277 H172      5.2755   -3.5692    0.6888   H         1 RES1   0.0000
   278 H173      6.3052   -2.8988   -0.5739   H         1 RES1   0.0000
   279 H174      7.6760   -5.1566   -0.2393   H         1 RES1   0.0000
   280 H175      6.9152   -5.1694    1.3457   H         1 RES1   0.0000
   281 H176      8.6178   -2.9213    0.2197   H         1 RES1   0.0000
   282 H177      9.1970   -4.1924    1.2808   H         1 RES1   0.0000
   283 H178      6.8894   -2.4932    2.2079   H         1 RES1   0.0000
   284 H179      8.5053   -1.7894    2.2136   H         1 RES1   0.0000
   285 H180      9.3215   -3.6517    3.6352   H         1 RES1   0.0000
   286 H181      7.6801   -4.2758    3.7589   H         1 RES1   0.0000
   287 H182      6.9824   -2.0307    4.7330   H         1 RES1   0.0000
   288 H183      8.6604   -1.5144    4.6146   H         1 RES1   0.0000
   289 H184      8.4805   -2.1258    6.8473   H         1 RES1   0.0000
   290 H185      9.2210   -3.5453    6.1258   H         1 RES1   0.0000
   291 H186      6.2569   -3.2235    6.8019   H         1 RES1   0.0000
   292 H187      7.4255   -4.1712    7.7104   H         1 RES1   0.0000
   293 H188      6.9845   -4.6734    6.0888   H         1 RES1   0.0000
   294 C95      -9.2114    0.6008   -5.3779   C.3       1 RES1   0.0000
   295 C96      -9.0290    0.4796   -3.8711   C.3       1 RES1   0.0000
   296 C97      -9.9044    1.4609   -3.0743   C.3       1 RES1   0.0000
   297 C98      -9.2220    2.7626   -2.6357   C.3       1 RES1   0.0000
   298 C99      -8.9854    3.7984   -3.7429   C.3       1 RES1   0.0000
   299 C100     -7.5857    3.7377   -4.3587   C.3       1 RES1   0.0000
   300 C101     -6.5501    4.3417   -3.4116   C.3       1 RES1   0.0000
   301 C102     -5.1026    4.0168   -3.7774   C.3       1 RES1   0.0000
   302 C103     -4.6797    2.5538   -3.6468   C.3       1 RES1   0.0000
   303 C104     -4.8650    1.8964   -2.2821   C.3       1 RES1   0.0000
   304 N5       -4.1604    2.4952   -1.1419   N.am      1 RES1   0.0000
   305 C105     -4.9740    3.3793   -0.3081   C.3       1 RES1   0.0000
   306 C106     -4.7625    4.9111   -0.4040   C.3       1 RES1   0.0000
   307 C107     -3.3430    5.4336   -0.6459   C.3       1 RES1   0.0000
   308 C108     -3.0994    6.7848    0.0289   C.3       1 RES1   0.0000
   309 C109     -1.6178    7.1594    0.0599   C.3       1 RES1   0.0000
   310 C110     -1.4372    8.5341    0.7028   C.3       1 RES1   0.0000
   311 C111     -0.0238    9.1011    0.6073   C.3       1 RES1   0.0000
   312 C112      0.9915    8.4272    1.5265   C.3       1 RES1   0.0000
   313 C113      2.3636    9.0819    1.3642   C.3       1 RES1   0.0000
   314 C114      3.3962    8.5010    2.3201   C.3       1 RES1   0.0000
   315 C115     -2.9517    1.9827   -0.8769   C.2       1 RES1   0.0000
   316 O7       -2.3486    1.2564   -1.6735   O.2       1 RES1   0.0000
   317 C116     -2.2308    2.0366    0.4929   C.3       1 RES1   0.0000
   318 C117     -2.6902    2.9258    1.6350   C.3       1 RES1   0.0000
   319 O8       -0.7930    2.0633    0.2782   O.3       1 RES1   0.0000
   320 C118     -0.1656    3.1398   -0.4481   C.3       1 RES1   0.0000
   321 C119      1.0479    3.6963    0.3335   C.3       1 RES1   0.0000
   322 C120      2.2640    2.7748    0.3743   C.3       1 RES1   0.0000
   323 C121      0.4030    2.5584   -1.7541   C.2       1 RES1   0.0000
   324 O9        0.6833    1.3373   -1.7212   O.2       1 RES1   0.0000
   325 N6        0.6755    3.3392   -2.7922   N.am      1 RES1   0.0000
   326 C122      1.2180    2.7565   -4.0254   C.3       1 RES1   0.0000
   327 C123      0.1764    2.2692   -5.0536   C.3       1 RES1   0.0000
   328 C124     -1.1323    3.0541   -5.0162   C.3       1 RES1   0.0000
   329 C125     -2.0960    2.7153   -6.1548   C.3       1 RES1   0.0000
   330 C126     -2.5243    1.2499   -6.2406   C.3       1 RES1   0.0000
   331 C127     -3.8088    1.1202   -7.0597   C.3       1 RES1   0.0000
   332 C128     -4.1639   -0.3130   -7.4504   C.3       1 RES1   0.0000
   333 C129     -4.2774   -1.3002   -6.2896   C.3       1 RES1   0.0000
   334 C130     -5.3636   -0.9464   -5.2635   C.3       1 RES1   0.0000
   335 C131     -6.2038   -2.1604   -4.8835   C.3       1 RES1   0.0000
   336 C132      0.5613    4.8002   -2.7933   C.3       1 RES1   0.0000
   337 C133      1.8704    5.5484   -3.1303   C.3       1 RES1   0.0000
   338 C134      3.1449    4.9438   -2.5429   C.3       1 RES1   0.0000
   339 C135      4.3984    5.5385   -3.1885   C.3       1 RES1   0.0000
   340 C136      5.6797    4.8254   -2.7521   C.3       1 RES1   0.0000
   341 C137      5.7414    3.3280   -3.0715   C.3       1 RES1   0.0000
   342 C138      5.4733    2.9915   -4.5373   C.3       1 RES1   0.0000
   343 C139      5.5621    1.4883   -4.8019   C.3       1 RES1   0.0000
   344 C140      5.1513    1.0913   -6.2216   C.3       1 RES1   0.0000
   345 C141      3.6576    1.2504   -6.4788   C.3       1 RES1   0.0000
   346 H189     -8.5619   -0.0955   -5.9001   H         1 RES1   0.0000
   347 H190     -8.9899    1.6032   -5.7257   H         1 RES1   0.0000
   348 H191    -10.2367    0.3719   -5.6486   H         1 RES1   0.0000
   349 H192     -7.9776    0.6243   -3.6072   H         1 RES1   0.0000
   350 H193     -9.2923   -0.5394   -3.5774   H         1 RES1   0.0000
   351 H194    -10.2506    0.9543   -2.1670   H         1 RES1   0.0000
   352 H195    -10.7936    1.6986   -3.6614   H         1 RES1   0.0000
   353 H196     -8.2775    2.5072   -2.1457   H         1 RES1   0.0000
   354 H197     -9.8645    3.2127   -1.8776   H         1 RES1   0.0000
   355 H198     -9.1307    4.7989   -3.3310   H         1 RES1   0.0000
   356 H199     -9.7324    3.6662   -4.5247   H         1 RES1   0.0000
   357 H200     -7.5774    4.2870   -5.3024   H         1 RES1   0.0000
   358 H201     -7.3233    2.7041   -4.5797   H         1 RES1   0.0000
   359 H202     -6.7668    4.0102   -2.3962   H         1 RES1   0.0000
   360 H203     -6.6650    5.4283   -3.4253   H         1 RES1   0.0000
   361 H204     -4.4349    4.6355   -3.1762   H         1 RES1   0.0000
   362 H205     -4.9448    4.3102   -4.8169   H         1 RES1   0.0000
   363 H206     -3.6303    2.4840   -3.9139   H         1 RES1   0.0000
   364 H207     -5.2461    1.9393   -4.3487   H         1 RES1   0.0000
   365 H208     -4.5178    0.8558   -2.3645   H         1 RES1   0.0000
   366 H209     -5.9263    1.8793   -2.0382   H         1 RES1   0.0000
   367 H210     -4.8992    3.0750    0.7321   H         1 RES1   0.0000
   368 H211     -6.0200    3.2101   -0.5651   H         1 RES1   0.0000
   369 H212     -5.1397    5.3117    0.5408   H         1 RES1   0.0000
   370 H213     -5.4007    5.3215   -1.1856   H         1 RES1   0.0000
   371 H214     -3.1581    5.5309   -1.7194   H         1 RES1   0.0000
   372 H215     -2.5988    4.7343   -0.2697   H         1 RES1   0.0000
   373 H216     -3.4831    6.7576    1.0513   H         1 RES1   0.0000
   374 H217     -3.6476    7.5609   -0.5034   H         1 RES1   0.0000
   375 H218     -1.2293    7.1815   -0.9621   H         1 RES1   0.0000
   376 H219     -1.0578    6.3982    0.6171   H         1 RES1   0.0000
   377 H220     -1.7291    8.4747    1.7536   H         1 RES1   0.0000
   378 H221     -2.1195    9.2297    0.2112   H         1 RES1   0.0000
   379 H222     -0.0717   10.1554    0.8803   H         1 RES1   0.0000
   380 H223      0.3213    9.0430   -0.4273   H         1 RES1   0.0000
   381 H224      1.0671    7.3580    1.2989   H         1 RES1   0.0000
   382 H225      0.6628    8.5289    2.5651   H         1 RES1   0.0000
   383 H226      2.2652   10.1540    1.5481   H         1 RES1   0.0000
   384 H227      2.7027    8.9541    0.3317   H         1 RES1   0.0000
   385 H228      3.0922    8.6686    3.3500   H         1 RES1   0.0000
   386 H229      4.3607    8.9748    2.1690   H         1 RES1   0.0000
   387 H230      3.5138    7.4313    2.1567   H         1 RES1   0.0000
   388 H231     -2.3657    0.9887    0.8503   H         1 RES1   0.0000
   389 H232     -2.0425    2.7562    2.4791   H         1 RES1   0.0000
   390 H233     -3.6846    2.6312    1.9511   H         1 RES1   0.0000
   391 H234     -2.6861    3.9802    1.3918   H         1 RES1   0.0000
   392 H235     -0.8987    3.9259   -0.6366   H         1 RES1   0.0000
   393 H236      1.3387    4.6466   -0.1126   H         1 RES1   0.0000
   394 H237      0.7549    3.8850    1.3598   H         1 RES1   0.0000
   395 H238      2.6626    2.5836   -0.6211   H         1 RES1   0.0000
   396 H239      2.0008    1.8294    0.8714   H         1 RES1   0.0000
   397 H240      3.0476    3.2596    0.9551   H         1 RES1   0.0000
   398 H241      1.8630    1.9210   -3.7420   H         1 RES1   0.0000
   399 H242      1.8292    3.5210   -4.4996   H         1 RES1   0.0000
   400 H243     -0.0447    1.2165   -4.8886   H         1 RES1   0.0000
   401 H244      0.6404    2.3614   -6.0372   H         1 RES1   0.0000
   402 H245     -0.9213    4.1230   -5.0958   H         1 RES1   0.0000
   403 H246     -1.6120    2.8628   -4.0509   H         1 RES1   0.0000
   404 H247     -1.6406    3.0072   -7.1001   H         1 RES1   0.0000
   405 H248     -2.9851    3.3350   -6.0196   H         1 RES1   0.0000
   406 H249     -2.6961    0.8573   -5.2385   H         1 RES1   0.0000
   407 H250     -1.7339    0.6575   -6.7055   H         1 RES1   0.0000
   408 H251     -3.7021    1.6995   -7.9777   H         1 RES1   0.0000
   409 H252     -4.6332    1.5636   -6.4990   H         1 RES1   0.0000
   410 H253     -3.4106   -0.6891   -8.1450   H         1 RES1   0.0000
   411 H254     -5.1158   -0.2936   -7.9836   H         1 RES1   0.0000
   412 H255     -3.3098   -1.3891   -5.7905   H         1 RES1   0.0000
   413 H256     -4.5079   -2.2753   -6.7211   H         1 RES1   0.0000
   414 H257     -6.0316   -0.1895   -5.6751   H         1 RES1   0.0000
   415 H258     -4.9038   -0.5235   -4.3652   H         1 RES1   0.0000
   416 H259     -6.7947   -2.4875   -5.7334   H         1 RES1   0.0000
   417 H260     -6.8855   -1.9245   -4.0708   H         1 RES1   0.0000
   418 H261     -5.5705   -2.9911   -4.5799   H         1 RES1   0.0000
   419 H262      0.1918    5.1395   -1.8297   H         1 RES1   0.0000
   420 H263     -0.1736    5.0887   -3.5482   H         1 RES1   0.0000
   421 H264      1.7703    6.5709   -2.7627   H         1 RES1   0.0000
   422 H265      1.9800    5.6293   -4.2129   H         1 RES1   0.0000
   423 H266      3.1502    3.8661   -2.6980   H         1 RES1   0.0000
   424 H267      3.1808    5.1286   -1.4689   H         1 RES1   0.0000
   425 H268      4.4802    6.5916   -2.9118   H         1 RES1   0.0000
   426 H269      4.3165    5.4937   -4.2756   H         1 RES1   0.0000
   427 H270      5.7999    4.9475   -1.6726   H         1 RES1   0.0000
   428 H271      6.5228    5.3164   -3.2400   H         1 RES1   0.0000
   429 H272      5.0375    2.7766   -2.4388   H         1 RES1   0.0000
   430 H273      6.7430    2.9783   -2.8082   H         1 RES1   0.0000
   431 H274      6.2050    3.5082   -5.1569   H         1 RES1   0.0000
   432 H275      4.4834    3.3482   -4.8211   H         1 RES1   0.0000
   433 H276      4.9227    0.9551   -4.0891   H         1 RES1   0.0000
   434 H277      6.5903    1.1617   -4.6305   H         1 RES1   0.0000
   435 H278      5.4288    0.0473   -6.3817   H         1 RES1   0.0000
   436 H279      5.7091    1.6920   -6.9398   H         1 RES1   0.0000
   437 H280      3.0810    0.6757   -5.7558   H         1 RES1   0.0000
   438 H281      3.4102    0.8962   -7.4743   H         1 RES1   0.0000
   439 H282      3.3569    2.2917   -6.4112   H         1 RES1   0.0000
@<TRIPOS>BOND
     1     1    24    1
     2     1    27    1
     3     1    32    1
     4     1   170    1
     5     1   173    1
     6     1   178    1
     7     1   316    1
     8     1   319    1
     9     1   324    1
    10     2     3    1
    11     2    54    1
    12     2    55    1
    13     2    56    1
    14     3     4    1
    15     3    57    1
    16     3    58    1
    17     4     5    1
    18     4    59    1
    19     4    60    1
    20     5     6    1
    21     5    61    1
    22     5    62    1
    23     6     7    1
    24     6    63    1
    25     6    64    1
    26     7     8    1
    27     7    65    1
    28     7    66    1
    29     8     9    1
    30     8    67    1
    31     8    68    1
    32     9    10    1
    33     9    69    1
    34     9    70    1
    35    10    11    1
    36    10    71    1
    37    10    72    1
    38    11    12    1
    39    11    73    1
    40    11    74    1
    41    12    13    1
    42    12    23    1
    43    13    14    1
    44    13    75    1
    45    13    76    1
    46    14    15    1
    47    14    77    1
    48    14    78    1
    49    15    16    1
    50    15    79    1
    51    15    80    1
    52    16    17    1
    53    16    81    1
    54    16    82    1
    55    17    18    1
    56    17    83    1
    57    17    84    1
    58    18    19    1
    59    18    85    1
    60    18    86    1
    61    19    20    1
    62    19    87    1
    63    19    88    1
    64    20    21    1
    65    20    89    1
    66    20    90    1
    67    21    22    1
    68    21    91    1
    69    21    92    1
    70    22    93    1
    71    22    94    1
    72    22    95    1
    73    23    24    2
    74    23    25    1
    75    25    26    1
    76    25    27    1
    77    25    96    1
    78    26    97    1
    79    26    98    1
    80    26    99    1
    81    27    28    1
    82    28    29    1
    83    28    31    1
    84    28   100    1
    85    29    30    1
    86    29   101    1
    87    29   102    1
    88    30   103    1
    89    30   104    1
    90    30   105    1
    91    31    32    2
    92    31    33    1
    93    33    34    1
    94    33    44    1
    95    34    35    1
    96    34   106    1
    97    34   107    1
    98    35    36    1
    99    35   108    1
   100    35   109    1
   101    36    37    1
   102    36   110    1
   103    36   111    1
   104    37    38    1
   105    37   112    1
   106    37   113    1
   107    38    39    1
   108    38   114    1
   109    38   115    1
   110    39    40    1
   111    39   116    1
   112    39   117    1
   113    40    41    1
   114    40   118    1
   115    40   119    1
   116    41    42    1
   117    41   120    1
   118    41   121    1
   119    42    43    1
   120    42   122    1
   121    42   123    1
   122    43   124    1
   123    43   125    1
   124    43   126    1
   125    44    45    1
   126    44   127    1
   127    44   128    1
   128    45    46    1
   129    45   129    1
   130    45   130    1
   131    46    47    1
   132    46   131    1
   133    46   132    1
   134    47    48    1
   135    47   133    1
   136    47   134    1
   137    48    49    1
   138    48   135    1
   139    48   136    1
   140    49    50    1
   141    49   137    1
   142    49   138    1
   143    50    51    1
   144    50   139    1
   145    50   140    1
   146    51    52    1
   147    51   141    1
   148    51   142    1
   149    52    53    1
   150    52   143    1
   151    52   144    1
   152    53   145    1
   153    53   146    1
   154    53   147    1
   155   148   149    1
   156   148   200    1
   157   148   201    1
   158   148   202    1
   159   149   150    1
   160   149   203    1
   161   149   204    1
   162   150   151    1
   163   150   205    1
   164   150   206    1
   165   151   152    1
   166   151   207    1
   167   151   208    1
   168   152   153    1
   169   152   209    1
   170   152   210    1
   171   153   154    1
   172   153   211    1
   173   153   212    1
   174   154   155    1
   175   154   213    1
   176   154   214    1
   177   155   156    1
   178   155   215    1
   179   155   216    1
   180   156   157    1
   181   156   217    1
   182   156   218    1
   183   157   158    1
   184   157   219    1
   185   157   220    1
   186   158   159    1
   187   158   169    1
   188   159   160    1
   189   159   221    1
   190   159   222    1
   191   160   161    1
   192   160   223    1
   193   160   224    1
   194   161   162    1
   195   161   225    1
   196   161   226    1
   197   162   163    1
   198   162   227    1
   199   162   228    1
   200   163   164    1
   201   163   229    1
   202   163   230    1
   203   164   165    1
   204   164   231    1
   205   164   232    1
   206   165   166    1
   207   165   233    1
   208   165   234    1
   209   166   167    1
   210   166   235    1
   211   166   236    1
   212   167   168    1
   213   167   237    1
   214   167   238    1
   215   168   239    1
   216   168   240    1
   217   168   241    1
   218   169   170    2
   219   169   171    1
   220   171   172    1
   221   171   173    1
   222   171   242    1
   223   172   243    1
   224   172   244    1
   225   172   245    1
   226   173   174    1
   227   174   175    1
   228   174   177    1
   229   174   246    1
   230   175   176    1
   231   175   247    1
   232   175   248    1
   233   176   249    1
   234   176   250    1
   235   176   251    1
   236   177   178    2
   237   177   179    1
   238   179   180    1
   239   179   190    1
   240   180   181    1
   241   180   252    1
   242   180   253    1
   243   181   182    1
   244   181   254    1
   245   181   255    1
   246   182   183    1
   247   182   256    1
   248   182   257    1
   249   183   184    1
   250   183   258    1
   251   183   259    1
   252   184   185    1
   253   184   260    1
   254   184   261    1
   255   185   186    1
   256   185   262    1
   257   185   263    1
   258   186   187    1
   259   186   264    1
   260   186   265    1
   261   187   188    1
   262   187   266    1
   263   187   267    1
   264   188   189    1
   265   188   268    1
   266   188   269    1
   267   189   270    1
   268   189   271    1
   269   189   272    1
   270   190   191    1
   271   190   273    1
   272   190   274    1
   273   191   192    1
   274   191   275    1
   275   191   276    1
   276   192   193    1
   277   192   277    1
   278   192   278    1
   279   193   194    1
   280   193   279    1
   281   193   280    1
   282   194   195    1
   283   194   281    1
   284   194   282    1
   285   195   196    1
   286   195   283    1
   287   195   284    1
   288   196   197    1
   289   196   285    1
   290   196   286    1
   291   197   198    1
   292   197   287    1
   293   197   288    1
   294   198   199    1
   295   198   289    1
   296   198   290    1
   297   199   291    1
   298   199   292    1
   299   199   293    1
   300   294   295    1
   301   294   346    1
   302   294   347    1
   303   294   348    1
   304   295   296    1
   305   295   349    1
   306   295   350    1
   307   296   297    1
   308   296   351    1
   309   296   352    1
   310   297   298    1
   311   297   353    1
   312   297   354    1
   313   298   299    1
   314   298   355    1
   315   298   356    1
   316   299   300    1
   317   299   357    1
   318   299   358    1
   319   300   301    1
   320   300   359    1
   321   300   360    1
   322   301   302    1
   323   301   361    1
   324   301   362    1
   325   302   303    1
   326   302   363    1
   327   302   364    1
   328   303   304    1
   329   303   365    1
   330   303   366    1
   331   304   305    1
   332   304   315    1
   333   305   306    1
   334   305   367    1
   335   305   368    1
   336   306   307    1
   337   306   369    1
   338   306   370    1
   339   307   308    1
   340   307   371    1
   341   307   372    1
   342   308   309    1
   343   308   373    1
   344   308   374    1
   345   309   310    1
   346   309   375    1
   347   309   376    1
   348   310   311    1
   349   310   377    1
   350   310   378    1
   351   311   312    1
   352   311   379    1
   353   311   380    1
   354   312   313    1
   355   312   381    1
   356   312   382    1
   357   313   314    1
   358   313   383    1
   359   313   384    1
   360   314   385    1
   361   314   386    1
   362   314   387    1
   363   315   316    2
   364   315   317    1
   365   317   318    1
   366   317   319    1
   367   317   388    1
   368   318   389    1
   369   318   390    1
   370   318   391    1
   371   319   320    1
   372   320   321    1
   373   320   323    1
   374   320   392    1
   375   321   322    1
   376   321   393    1
   377   321   394    1
   378   322   395    1
   379   322   396    1
   380   322   397    1
   381   323   324    2
   382   323   325    1
   383   325   326    1
   384   325   336    1
   385   326   327    1
   386   326   398    1
   387   326   399    1
   388   327   328    1
   389   327   400    1
   390   327   401    1
   391   328   329    1
   392   328   402    1
   393   328   403    1
   394   329   330    1
   395   329   404    1
   396   329   405    1
   397   330   331    1
   398   330   406    1
   399   330   407    1
   400   331   332    1
   401   331   408    1
   402   331   409    1
   403   332   333    1
   404   332   410    1
   405   332   411    1
   406   333   334    1
   407   333   412    1
   408   333   413    1
   409   334   335    1
   410   334   414    1
   411   334   415    1
   412   335   416    1
   413   335   417    1
   414   335   418    1
   415   336   337    1
   416   336   419    1
   417   336   420    1
   418   337   338    1
   419   337   421    1
   420   337   422    1
   421   338   339    1
   422   338   423    1
   423   338   424    1
   424   339   340    1
   425   339   425    1
   426   339   426    1
   427   340   341    1
   428   340   427    1
   429   340   428    1
   430   341   342    1
   431   341   429    1
   432   341   430    1
   433   342   343    1
   434   342   431    1
   435   342   432    1
   436   343   344    1
   437   343   433    1
   438   343   434    1
   439   344   345    1
   440   344   435    1
   441   344   436    1
   442   345   437    1
   443   345   438    1
   444   345   439    1
@<TRIPOS>SUBSTRUCTURE
     1 RES1      439 GROUP             0 ****  ****    0  
