@<TRIPOS>MOLECULE
tricapped_trigonal_prismatic_0_nunpairedes_0_charge_3 Charge: 3 Unpaired_Electrons: 7 XTB_Unpaired_Electrons: 0 XTB_Charge: 3
   466   471     1     0     0
SMALL
NoCharges
****
Generated from Architector

@<TRIPOS>ATOM
     1 Gd1       0.1175    0.1908    0.1482   Gd        1 RES1   0.0000
     2 C1        1.2749    4.0935    9.6181   C.3       1 RES1   0.0000
     3 C2       -0.2469    4.0802    9.7077   C.3       1 RES1   0.0000
     4 C3       -0.8889    4.6686    8.4505   C.3       1 RES1   0.0000
     5 C4       -2.4200    4.6459    8.4798   C.3       1 RES1   0.0000
     6 C5       -3.0771    5.3683    7.2945   C.3       1 RES1   0.0000
     7 C6       -2.7619    4.6849    5.9646   C.3       1 RES1   0.0000
     8 C7       -3.3397    5.3507    4.7121   C.3       1 RES1   0.0000
     9 C8       -2.7379    4.6991    3.4655   C.3       1 RES1   0.0000
    10 C9       -3.1196    5.3511    2.1403   C.3       1 RES1   0.0000
    11 C10      -2.4598    4.6580    0.9428   C.3       1 RES1   0.0000
    12 N1       -0.9970    4.7287    0.9430   N.am      1 RES1   0.0000
    13 C11      -0.3781    6.0557    0.8665   C.3       1 RES1   0.0000
    14 C12       0.2965    6.5447    2.1517   C.3       1 RES1   0.0000
    15 C13       1.0301    7.8795    1.9910   C.3       1 RES1   0.0000
    16 C14       1.9714    8.1277    3.1791   C.3       1 RES1   0.0000
    17 C15       3.2579    7.3000    3.1244   C.3       1 RES1   0.0000
    18 C16       4.2297    7.6780    4.2427   C.3       1 RES1   0.0000
    19 C17       5.5625    6.9392    4.1271   C.3       1 RES1   0.0000
    20 C18       6.5489    7.3789    5.2080   C.3       1 RES1   0.0000
    21 C19       7.8415    6.5637    5.2090   C.3       1 RES1   0.0000
    22 C20       8.7164    6.8325    3.9928   C.3       1 RES1   0.0000
    23 C21      -0.3200    3.5854    0.8581   C.2       1 RES1   0.0000
    24 O1       -0.8618    2.4756    0.6792   O.2       1 RES1   0.0000
    25 C22       1.2006    3.5319    0.9918   C.3       1 RES1   0.0000
    26 C23       1.5030    2.8579    2.3441   C.3       1 RES1   0.0000
    27 C24       0.7135    3.4029    3.5450   C.3       1 RES1   0.0000
    28 C25      -0.0751    2.3144    4.2670   C.3       1 RES1   0.0000
    29 O2        1.6641    2.6632   -0.0575   O.3       1 RES1   0.0000
    30 C26       2.4783    3.3324   -1.0371   C.3       1 RES1   0.0000
    31 C27       3.9555    3.3280   -0.6042   C.3       1 RES1   0.0000
    32 C28       4.6605    1.9919   -0.8451   C.3       1 RES1   0.0000
    33 C29       4.2509    0.9451    0.1818   C.3       1 RES1   0.0000
    34 C30       2.2797    2.6085   -2.3856   C.2       1 RES1   0.0000
    35 O3        1.8025    1.4628   -2.3263   O.2       1 RES1   0.0000
    36 N2        2.5827    3.2561   -3.5234   N.am      1 RES1   0.0000
    37 C31       2.3975    2.5886   -4.8405   C.3       1 RES1   0.0000
    38 C32       2.1134    3.5409   -6.0246   C.3       1 RES1   0.0000
    39 C33       1.5841    2.9674   -7.3678   C.3       1 RES1   0.0000
    40 C34       2.5810    2.3396   -8.3632   C.3       1 RES1   0.0000
    41 C35       1.9356    2.0127   -9.7245   C.3       1 RES1   0.0000
    42 C36       1.0621    0.7491   -9.7914   C.3       1 RES1   0.0000
    43 C37       1.8429   -0.5742   -9.8995   C.3       1 RES1   0.0000
    44 C38       0.9788   -1.8431   -9.6778   C.3       1 RES1   0.0000
    45 C39       1.6128   -2.9041   -8.7583   C.3       1 RES1   0.0000
    46 C40       0.5745   -3.8625   -8.1706   C.3       1 RES1   0.0000
    47 C41       3.1628    4.5949   -3.5832   C.3       1 RES1   0.0000
    48 C42       4.6329    4.6396   -4.0282   C.3       1 RES1   0.0000
    49 C43       5.0655    6.0857   -4.3141   C.3       1 RES1   0.0000
    50 C44       5.3381    6.9148   -3.0522   C.3       1 RES1   0.0000
    51 C45       4.9916    8.3992   -3.1944   C.3       1 RES1   0.0000
    52 C46       3.4829    8.6569   -3.2183   C.3       1 RES1   0.0000
    53 C47       3.1319   10.1428   -3.0516   C.3       1 RES1   0.0000
    54 C48       2.6942   10.5290   -1.6356   C.3       1 RES1   0.0000
    55 C49       3.7621   10.3002   -0.5678   C.3       1 RES1   0.0000
    56 C50       3.3386   10.8533    0.7895   C.3       1 RES1   0.0000
    57 H1        1.7154    3.6617   10.5122   H         1 RES1   0.0000
    58 H2        1.6396    5.1121    9.5189   H         1 RES1   0.0000
    59 H3        1.6155    3.5220    8.7561   H         1 RES1   0.0000
    60 H4       -0.5616    4.6495   10.5817   H         1 RES1   0.0000
    61 H5       -0.5922    3.0545    9.8487   H         1 RES1   0.0000
    62 H6       -0.5243    4.1020    7.5890   H         1 RES1   0.0000
    63 H7       -0.5497    5.7003    8.3391   H         1 RES1   0.0000
    64 H8       -2.7527    5.1226    9.4032   H         1 RES1   0.0000
    65 H9       -2.7649    3.6086    8.5082   H         1 RES1   0.0000
    66 H10      -2.7382    6.4058    7.2739   H         1 RES1   0.0000
    67 H11      -4.1555    5.3806    7.4543   H         1 RES1   0.0000
    68 H12      -3.1187    3.6521    6.0095   H         1 RES1   0.0000
    69 H13      -1.6766    4.6656    5.8529   H         1 RES1   0.0000
    70 H14      -3.0895    6.4121    4.7135   H         1 RES1   0.0000
    71 H15      -4.4250    5.2616    4.6902   H         1 RES1   0.0000
    72 H16      -3.0107    3.6420    3.4362   H         1 RES1   0.0000
    73 H17      -1.6582    4.7653    3.5742   H         1 RES1   0.0000
    74 H18      -2.8418    6.4057    2.1579   H         1 RES1   0.0000
    75 H19      -4.1999    5.2745    2.0019   H         1 RES1   0.0000
    76 H20      -2.8312    5.1064    0.0162   H         1 RES1   0.0000
    77 H21      -2.7202    3.5975    0.9455   H         1 RES1   0.0000
    78 H22      -1.1644    6.7575    0.5842   H         1 RES1   0.0000
    79 H23       0.3534    6.0470    0.0534   H         1 RES1   0.0000
    80 H24       1.0270    5.8119    2.4843   H         1 RES1   0.0000
    81 H25      -0.4532    6.6552    2.9325   H         1 RES1   0.0000
    82 H26       0.3095    8.6952    1.9314   H         1 RES1   0.0000
    83 H27       1.6094    7.8846    1.0642   H         1 RES1   0.0000
    84 H28       1.4491    7.9241    4.1176   H         1 RES1   0.0000
    85 H29       2.2527    9.1807    3.1907   H         1 RES1   0.0000
    86 H30       3.7501    7.4674    2.1637   H         1 RES1   0.0000
    87 H31       3.0364    6.2303    3.1964   H         1 RES1   0.0000
    88 H32       3.7692    7.4639    5.2099   H         1 RES1   0.0000
    89 H33       4.4196    8.7513    4.1995   H         1 RES1   0.0000
    90 H34       5.9914    7.1443    3.1451   H         1 RES1   0.0000
    91 H35       5.3939    5.8602    4.2055   H         1 RES1   0.0000
    92 H36       6.0692    7.2827    6.1842   H         1 RES1   0.0000
    93 H37       6.7905    8.4342    5.0681   H         1 RES1   0.0000
    94 H38       7.5963    5.4995    5.2584   H         1 RES1   0.0000
    95 H39       8.4074    6.8052    6.1092   H         1 RES1   0.0000
    96 H40       8.2040    6.5684    3.0724   H         1 RES1   0.0000
    97 H41       9.6338    6.2548    4.0541   H         1 RES1   0.0000
    98 H42       8.9831    7.8836    3.9436   H         1 RES1   0.0000
    99 H43       1.6802    4.5091    0.9167   H         1 RES1   0.0000
   100 H44       1.2209    1.8023    2.2223   H         1 RES1   0.0000
   101 H45       2.5758    2.8989    2.5200   H         1 RES1   0.0000
   102 H46      -0.0154    4.1262    3.1977   H         1 RES1   0.0000
   103 H47       1.3650    3.9198    4.2513   H         1 RES1   0.0000
   104 H48      -0.7164    1.8061    3.5544   H         1 RES1   0.0000
   105 H49      -0.6828    2.7671    5.0446   H         1 RES1   0.0000
   106 H50       0.5759    1.5797    4.7332   H         1 RES1   0.0000
   107 H51       2.0959    4.3617   -1.1211   H         1 RES1   0.0000
   108 H52       4.4733    4.1213   -1.1389   H         1 RES1   0.0000
   109 H53       3.9935    3.5696    0.4612   H         1 RES1   0.0000
   110 H54       5.7367    2.1476   -0.7669   H         1 RES1   0.0000
   111 H55       4.4633    1.6348   -1.8589   H         1 RES1   0.0000
   112 H56       4.5209    1.3026    1.1747   H         1 RES1   0.0000
   113 H57       4.7748    0.0115   -0.0071   H         1 RES1   0.0000
   114 H58       3.1695    0.7533    0.1538   H         1 RES1   0.0000
   115 H59       1.5505    1.9137   -4.7185   H         1 RES1   0.0000
   116 H60       3.2962    2.0014   -5.0457   H         1 RES1   0.0000
   117 H61       3.0180    4.0971   -6.2646   H         1 RES1   0.0000
   118 H62       1.3492    4.2421   -5.6809   H         1 RES1   0.0000
   119 H63       1.1271    3.8184   -7.8805   H         1 RES1   0.0000
   120 H64       0.7746    2.2589   -7.1879   H         1 RES1   0.0000
   121 H65       3.0174    1.4304   -7.9627   H         1 RES1   0.0000
   122 H66       3.3956    3.0434   -8.5512   H         1 RES1   0.0000
   123 H67       2.7284    1.9151  -10.4667   H         1 RES1   0.0000
   124 H68       1.3274    2.8683  -10.0253   H         1 RES1   0.0000
   125 H69       0.4138    0.8285  -10.6666   H         1 RES1   0.0000
   126 H70       0.4193    0.7270   -8.9152   H         1 RES1   0.0000
   127 H71       2.6676   -0.5630   -9.1859   H         1 RES1   0.0000
   128 H72       2.2970   -0.6166  -10.8911   H         1 RES1   0.0000
   129 H73       0.7592   -2.2965  -10.6456   H         1 RES1   0.0000
   130 H74       0.0155   -1.5619   -9.2403   H         1 RES1   0.0000
   131 H75       2.1181   -2.4274   -7.9184   H         1 RES1   0.0000
   132 H76       2.3672   -3.4773   -9.2982   H         1 RES1   0.0000
   133 H77      -0.3173   -3.3178   -7.8575   H         1 RES1   0.0000
   134 H78       0.9826   -4.3697   -7.2940   H         1 RES1   0.0000
   135 H79       0.2744   -4.6176   -8.8922   H         1 RES1   0.0000
   136 H80       3.0802    5.0822   -2.6170   H         1 RES1   0.0000
   137 H81       2.5689    5.1840   -4.2859   H         1 RES1   0.0000
   138 H82       4.7581    4.0537   -4.9389   H         1 RES1   0.0000
   139 H83       5.2716    4.1986   -3.2593   H         1 RES1   0.0000
   140 H84       4.2928    6.5738   -4.9106   H         1 RES1   0.0000
   141 H85       5.9739    6.0636   -4.9168   H         1 RES1   0.0000
   142 H86       6.3936    6.8167   -2.7907   H         1 RES1   0.0000
   143 H87       4.7552    6.5216   -2.2146   H         1 RES1   0.0000
   144 H88       5.4471    8.8010   -4.0997   H         1 RES1   0.0000
   145 H89       5.4309    8.9295   -2.3495   H         1 RES1   0.0000
   146 H90       3.0097    8.0823   -2.4168   H         1 RES1   0.0000
   147 H91       3.0695    8.2902   -4.1597   H         1 RES1   0.0000
   148 H92       2.3202   10.4021   -3.7339   H         1 RES1   0.0000
   149 H93       3.9958   10.7466   -3.3337   H         1 RES1   0.0000
   150 H94       1.7894    9.9743   -1.3642   H         1 RES1   0.0000
   151 H95       2.4363   11.5895   -1.6411   H         1 RES1   0.0000
   152 H96       4.6860   10.7916   -0.8764   H         1 RES1   0.0000
   153 H97       3.9661    9.2309   -0.4693   H         1 RES1   0.0000
   154 H98       3.2554   11.9365    0.7504   H         1 RES1   0.0000
   155 H99       4.0722   10.5949    1.5511   H         1 RES1   0.0000
   156 H100      2.3725   10.4498    1.0890   H         1 RES1   0.0000
   157 C51      -6.8567   -5.3189   -3.1983   C.3       1 RES1   0.0000
   158 C52      -7.7540   -4.0881   -3.2379   C.3       1 RES1   0.0000
   159 C53      -7.7745   -3.3692   -1.8924   C.3       1 RES1   0.0000
   160 C54      -8.6559   -2.1230   -1.9069   C.3       1 RES1   0.0000
   161 C55      -8.6834   -1.4189   -0.5499   C.3       1 RES1   0.0000
   162 C56      -7.3837   -0.6723   -0.2597   C.3       1 RES1   0.0000
   163 C57      -7.2303   -0.2069    1.1867   C.3       1 RES1   0.0000
   164 C58      -5.8190    0.3383    1.4103   C.3       1 RES1   0.0000
   165 C59      -5.5128    0.7290    2.8567   C.3       1 RES1   0.0000
   166 C60      -4.0091    0.8347    3.1238   C.3       1 RES1   0.0000
   167 N3       -3.3456   -0.4613    3.2543   N.am      1 RES1   0.0000
   168 C61      -3.8124   -1.3419    4.3265   C.3       1 RES1   0.0000
   169 C62      -4.6611   -2.5427    3.8951   C.3       1 RES1   0.0000
   170 C63      -5.1595   -3.3412    5.1048   C.3       1 RES1   0.0000
   171 C64      -5.7247   -4.7129    4.7068   C.3       1 RES1   0.0000
   172 C65      -4.6408   -5.7170    4.3040   C.3       1 RES1   0.0000
   173 C66      -5.1987   -7.0678    3.8391   C.3       1 RES1   0.0000
   174 C67      -4.1429   -7.8420    3.0489   C.3       1 RES1   0.0000
   175 C68      -4.6232   -9.1794    2.4873   C.3       1 RES1   0.0000
   176 C69      -3.5206   -9.9015    1.7033   C.3       1 RES1   0.0000
   177 C70      -2.4956  -10.5919    2.5959   C.3       1 RES1   0.0000
   178 C71      -2.2389   -0.6657    2.5511   C.2       1 RES1   0.0000
   179 O4       -1.6899    0.2103    1.8536   O.2       1 RES1   0.0000
   180 C72      -1.5683   -2.0356    2.5602   C.3       1 RES1   0.0000
   181 C73      -2.1689   -2.9292    1.4446   C.3       1 RES1   0.0000
   182 C74      -3.3987   -2.4186    0.6864   C.3       1 RES1   0.0000
   183 C75      -3.6320   -3.3015   -0.5345   C.3       1 RES1   0.0000
   184 O5       -0.1925   -1.7771    2.2540   O.3       1 RES1   0.0000
   185 C76       0.7453   -1.9198    3.3214   C.3       1 RES1   0.0000
   186 C77       1.4103   -3.3205    3.2261   C.3       1 RES1   0.0000
   187 C78       2.8621   -3.3965    2.7448   C.3       1 RES1   0.0000
   188 C79       3.0863   -2.9635    1.2993   C.3       1 RES1   0.0000
   189 C80       1.7541   -0.7760    3.1855   C.2       1 RES1   0.0000
   190 O6        1.7658   -0.1427    2.1015   O.2       1 RES1   0.0000
   191 N4        2.5635   -0.4874    4.2025   N.am      1 RES1   0.0000
   192 C81       3.6816    0.4354    3.9850   C.3       1 RES1   0.0000
   193 C82       3.5992    1.7306    4.7996   C.3       1 RES1   0.0000
   194 C83       4.5884    2.8064    4.3537   C.3       1 RES1   0.0000
   195 C84       6.0526    2.4935    4.6915   C.3       1 RES1   0.0000
   196 C85       6.8972    2.1607    3.4648   C.3       1 RES1   0.0000
   197 C86       7.1150    3.3669    2.5555   C.3       1 RES1   0.0000
   198 C87       8.0968    3.0325    1.4367   C.3       1 RES1   0.0000
   199 C88       8.6352    4.2280    0.6447   C.3       1 RES1   0.0000
   200 C89       7.6255    4.9191   -0.2818   C.3       1 RES1   0.0000
   201 C90       6.8164    6.0238    0.3908   C.3       1 RES1   0.0000
   202 C91       2.5057   -1.2670    5.4489   C.3       1 RES1   0.0000
   203 C92       3.3319   -0.7835    6.6472   C.3       1 RES1   0.0000
   204 C93       2.4989    0.0766    7.6115   C.3       1 RES1   0.0000
   205 C94       1.7436   -0.8287    8.5909   C.3       1 RES1   0.0000
   206 C95       0.5860   -0.1586    9.3401   C.3       1 RES1   0.0000
   207 C96      -0.7395   -0.2839    8.5840   C.3       1 RES1   0.0000
   208 C97      -1.9174    0.2465    9.4027   C.3       1 RES1   0.0000
   209 C98      -3.3004   -0.0548    8.8160   C.3       1 RES1   0.0000
   210 C99      -3.6241   -1.5478    8.7253   C.3       1 RES1   0.0000
   211 C100     -5.1199   -1.8132    8.5919   C.3       1 RES1   0.0000
   212 H101     -6.8606   -5.8280   -4.1578   H         1 RES1   0.0000
   213 H102     -7.2067   -6.0157   -2.4407   H         1 RES1   0.0000
   214 H103     -5.8299   -5.0417   -2.9598   H         1 RES1   0.0000
   215 H104     -8.7686   -4.3903   -3.4986   H         1 RES1   0.0000
   216 H105     -7.4045   -3.4014   -4.0135   H         1 RES1   0.0000
   217 H106     -6.7492   -3.0990   -1.6220   H         1 RES1   0.0000
   218 H107     -8.1439   -4.0551   -1.1274   H         1 RES1   0.0000
   219 H108     -9.6691   -2.4239   -2.1723   H         1 RES1   0.0000
   220 H109     -8.3088   -1.4310   -2.6788   H         1 RES1   0.0000
   221 H110     -8.8630   -2.1666    0.2238   H         1 RES1   0.0000
   222 H111     -9.5102   -0.7106   -0.5256   H         1 RES1   0.0000
   223 H112     -7.3241    0.2044   -0.9078   H         1 RES1   0.0000
   224 H113     -6.5349   -1.3208   -0.4866   H         1 RES1   0.0000
   225 H114     -7.4196   -1.0429    1.8641   H         1 RES1   0.0000
   226 H115     -7.9684    0.5627    1.4048   H         1 RES1   0.0000
   227 H116     -5.6761    1.2096    0.7668   H         1 RES1   0.0000
   228 H117     -5.1101   -0.4226    1.0877   H         1 RES1   0.0000
   229 H118     -5.9743    0.0191    3.5441   H         1 RES1   0.0000
   230 H119     -5.9442    1.7061    3.0713   H         1 RES1   0.0000
   231 H120     -3.8428    1.3937    4.0503   H         1 RES1   0.0000
   232 H121     -3.5235    1.3570    2.2924   H         1 RES1   0.0000
   233 H122     -4.3978   -0.7193    5.0061   H         1 RES1   0.0000
   234 H123     -2.9469   -1.7128    4.8860   H         1 RES1   0.0000
   235 H124     -4.0629   -3.2068    3.2767   H         1 RES1   0.0000
   236 H125     -5.5235   -2.2064    3.3185   H         1 RES1   0.0000
   237 H126     -5.9353   -2.7671    5.6153   H         1 RES1   0.0000
   238 H127     -4.3398   -3.4923    5.8113   H         1 RES1   0.0000
   239 H128     -6.4328   -4.5928    3.8835   H         1 RES1   0.0000
   240 H129     -6.2777   -5.1182    5.5551   H         1 RES1   0.0000
   241 H130     -3.9753   -5.8827    5.1542   H         1 RES1   0.0000
   242 H131     -4.0374   -5.2983    3.4919   H         1 RES1   0.0000
   243 H132     -6.0829   -6.9055    3.2190   H         1 RES1   0.0000
   244 H133     -5.5099   -7.6532    4.7037   H         1 RES1   0.0000
   245 H134     -3.2801   -8.0116    3.6975   H         1 RES1   0.0000
   246 H135     -3.8224   -7.2165    2.2083   H         1 RES1   0.0000
   247 H136     -5.4693   -9.0018    1.8199   H         1 RES1   0.0000
   248 H137     -4.9688   -9.8199    3.3000   H         1 RES1   0.0000
   249 H138     -3.0112   -9.1893    1.0470   H         1 RES1   0.0000
   250 H139     -3.9742  -10.6554    1.0600   H         1 RES1   0.0000
   251 H140     -2.1066   -9.9154    3.3519   H         1 RES1   0.0000
   252 H141     -1.6609  -10.9590    2.0032   H         1 RES1   0.0000
   253 H142     -2.9446  -11.4390    3.1054   H         1 RES1   0.0000
   254 H143     -1.6439   -2.5378    3.5290   H         1 RES1   0.0000
   255 H144     -1.3755   -3.0382    0.7096   H         1 RES1   0.0000
   256 H145     -2.3966   -3.9168    1.8521   H         1 RES1   0.0000
   257 H146     -3.2531   -1.3864    0.3649   H         1 RES1   0.0000
   258 H147     -4.2901   -2.4608    1.3102   H         1 RES1   0.0000
   259 H148     -2.8254   -3.1801   -1.2542   H         1 RES1   0.0000
   260 H149     -4.5738   -3.0630   -1.0176   H         1 RES1   0.0000
   261 H150     -3.6717   -4.3465   -0.2396   H         1 RES1   0.0000
   262 H151      0.2181   -1.8203    4.2807   H         1 RES1   0.0000
   263 H152      1.3395   -3.8056    4.1985   H         1 RES1   0.0000
   264 H153      0.7953   -3.9001    2.5364   H         1 RES1   0.0000
   265 H154      3.1705   -4.4405    2.8415   H         1 RES1   0.0000
   266 H155      3.5146   -2.8154    3.3946   H         1 RES1   0.0000
   267 H156      2.8022   -3.7543    0.6112   H         1 RES1   0.0000
   268 H157      4.1410   -2.7433    1.1491   H         1 RES1   0.0000
   269 H158      2.5023   -2.0776    1.0544   H         1 RES1   0.0000
   270 H159      3.6688    0.6621    2.9181   H         1 RES1   0.0000
   271 H160      4.6050   -0.1090    4.2040   H         1 RES1   0.0000
   272 H161      3.7912    1.5450    5.8499   H         1 RES1   0.0000
   273 H162      2.5858    2.1155    4.7262   H         1 RES1   0.0000
   274 H163      4.2937    3.7284    4.8544   H         1 RES1   0.0000
   275 H164      4.4980    2.9707    3.2803   H         1 RES1   0.0000
   276 H165      6.1086    1.6628    5.3949   H         1 RES1   0.0000
   277 H166      6.5059    3.3525    5.1859   H         1 RES1   0.0000
   278 H167      6.4333    1.3478    2.9010   H         1 RES1   0.0000
   279 H168      7.8745    1.8057    3.7938   H         1 RES1   0.0000
   280 H169      7.5163    4.1871    3.1487   H         1 RES1   0.0000
   281 H170      6.1626    3.6927    2.1347   H         1 RES1   0.0000
   282 H171      7.6343    2.3203    0.7474   H         1 RES1   0.0000
   283 H172      8.9548    2.5300    1.8880   H         1 RES1   0.0000
   284 H173      9.4612    3.8552    0.0328   H         1 RES1   0.0000
   285 H174      9.0520    4.9612    1.3377   H         1 RES1   0.0000
   286 H175      6.9480    4.1703   -0.7035   H         1 RES1   0.0000
   287 H176      8.1734    5.3651   -1.1147   H         1 RES1   0.0000
   288 H177      6.2300    5.6387    1.2200   H         1 RES1   0.0000
   289 H178      6.1406    6.4922   -0.3219   H         1 RES1   0.0000
   290 H179      7.4805    6.7956    0.7710   H         1 RES1   0.0000
   291 H180      2.8087   -2.2903    5.2147   H         1 RES1   0.0000
   292 H181      1.4648   -1.2975    5.7790   H         1 RES1   0.0000
   293 H182      4.2487   -0.2878    6.3440   H         1 RES1   0.0000
   294 H183      3.6521   -1.6795    7.1814   H         1 RES1   0.0000
   295 H184      1.7962    0.6956    7.0479   H         1 RES1   0.0000
   296 H185      3.1506    0.7482    8.1736   H         1 RES1   0.0000
   297 H186      2.4691   -1.2169    9.3067   H         1 RES1   0.0000
   298 H187      1.3458   -1.6884    8.0432   H         1 RES1   0.0000
   299 H188      0.8146    0.8889    9.5414   H         1 RES1   0.0000
   300 H189      0.4653   -0.6513   10.3055   H         1 RES1   0.0000
   301 H190     -0.9022   -1.3437    8.3698   H         1 RES1   0.0000
   302 H191     -0.6818    0.2546    7.6319   H         1 RES1   0.0000
   303 H192     -1.8160    1.3288    9.5052   H         1 RES1   0.0000
   304 H193     -1.8649   -0.1794   10.4060   H         1 RES1   0.0000
   305 H194     -3.3930    0.4025    7.8258   H         1 RES1   0.0000
   306 H195     -4.0400    0.4173    9.4651   H         1 RES1   0.0000
   307 H196     -3.2604   -2.0465    9.6243   H         1 RES1   0.0000
   308 H197     -3.1071   -1.9883    7.8691   H         1 RES1   0.0000
   309 H198     -5.6463   -1.4752    9.4796   H         1 RES1   0.0000
   310 H199     -5.3081   -2.8774    8.4733   H         1 RES1   0.0000
   311 H200     -5.5386   -1.2940    7.7320   H         1 RES1   0.0000
   312 C101      0.6543    7.2586   -6.7023   C.3       1 RES1   0.0000
   313 C102     -0.6103    7.8412   -6.0796   C.3       1 RES1   0.0000
   314 C103     -1.7158    6.7904   -5.9710   C.3       1 RES1   0.0000
   315 C104     -2.9886    7.3392   -5.3255   C.3       1 RES1   0.0000
   316 C105     -4.1669    6.3559   -5.3125   C.3       1 RES1   0.0000
   317 C106     -3.8818    5.1231   -4.4564   C.3       1 RES1   0.0000
   318 C107     -5.0087    4.0881   -4.3567   C.3       1 RES1   0.0000
   319 C108     -4.5316    2.9495   -3.4459   C.3       1 RES1   0.0000
   320 C109     -5.4245    1.7126   -3.3703   C.3       1 RES1   0.0000
   321 C110     -4.8741    0.6090   -2.4494   C.3       1 RES1   0.0000
   322 N5       -3.6618   -0.0264   -2.9576   N.am      1 RES1   0.0000
   323 C111     -3.7848   -0.7095   -4.2496   C.3       1 RES1   0.0000
   324 C112     -3.2252    0.0170   -5.4941   C.3       1 RES1   0.0000
   325 C113     -2.1680   -0.7801   -6.3011   C.3       1 RES1   0.0000
   326 C114     -0.7956   -0.1234   -6.5790   C.3       1 RES1   0.0000
   327 C115      0.3930   -0.6920   -5.7845   C.3       1 RES1   0.0000
   328 C116      1.7479   -0.2831   -6.3660   C.3       1 RES1   0.0000
   329 C117      2.9862   -0.8020   -5.6284   C.3       1 RES1   0.0000
   330 C118      4.2749   -0.3950   -6.3499   C.3       1 RES1   0.0000
   331 C119      5.5489   -0.6738   -5.5491   C.3       1 RES1   0.0000
   332 C120      5.9988   -2.1271   -5.6125   C.3       1 RES1   0.0000
   333 C121     -2.5432   -0.0897   -2.2266   C.2       1 RES1   0.0000
   334 O7       -2.4401    0.0996   -1.0003   O.2       1 RES1   0.0000
   335 C122     -1.2537   -0.2226   -3.0187   C.3       1 RES1   0.0000
   336 C123     -0.8438    1.2280   -3.3741   C.3       1 RES1   0.0000
   337 C124     -1.2267    2.3078   -2.3630   C.3       1 RES1   0.0000
   338 C125     -0.8614    3.7148   -2.8358   C.3       1 RES1   0.0000
   339 O8       -0.2257   -0.8662   -2.2456   O.3       1 RES1   0.0000
   340 C126     -0.0074   -2.2571   -2.5689   C.3       1 RES1   0.0000
   341 C127      1.3092   -2.5203   -3.3366   C.3       1 RES1   0.0000
   342 C128      2.5721   -2.8385   -2.5309   C.3       1 RES1   0.0000
   343 C129      3.1036   -1.6333   -1.7680   C.3       1 RES1   0.0000
   344 C130      0.0900   -3.0544   -1.2824   C.2       1 RES1   0.0000
   345 O9        0.3234   -2.4029   -0.2427   O.2       1 RES1   0.0000
   346 N6        0.0049   -4.3817   -1.3328   N.am      1 RES1   0.0000
   347 C131      0.2896   -5.1643   -0.1302   C.3       1 RES1   0.0000
   348 C132     -0.8381   -6.1271    0.2547   C.3       1 RES1   0.0000
   349 C133     -0.7301   -6.5864    1.7106   C.3       1 RES1   0.0000
   350 C134      0.3903   -7.6073    1.9565   C.3       1 RES1   0.0000
   351 C135      1.4253   -7.1324    2.9740   C.3       1 RES1   0.0000
   352 C136      0.8725   -6.8609    4.3727   C.3       1 RES1   0.0000
   353 C137      2.0107   -6.5979    5.3580   C.3       1 RES1   0.0000
   354 C138      1.5732   -6.2544    6.7862   C.3       1 RES1   0.0000
   355 C139      1.1142   -4.8034    7.0075   C.3       1 RES1   0.0000
   356 C140     -0.4022   -4.6298    7.0230   C.3       1 RES1   0.0000
   357 C141     -0.3981   -5.1888   -2.4868   C.3       1 RES1   0.0000
   358 C142      0.6188   -6.2508   -2.9495   C.3       1 RES1   0.0000
   359 C143     -0.0976   -7.3861   -3.7086   C.3       1 RES1   0.0000
   360 C144      0.4191   -7.6050   -5.1336   C.3       1 RES1   0.0000
   361 C145     -0.6658   -8.1893   -6.0423   C.3       1 RES1   0.0000
   362 C146     -1.6259   -7.1037   -6.5214   C.3       1 RES1   0.0000
   363 C147     -2.8240   -7.6470   -7.2962   C.3       1 RES1   0.0000
   364 C148     -3.7016   -6.5091   -7.8279   C.3       1 RES1   0.0000
   365 C149     -3.1182   -5.8466   -9.0802   C.3       1 RES1   0.0000
   366 C150     -3.6096   -4.4158   -9.2584   C.3       1 RES1   0.0000
   367 H201      1.4228    8.0204   -6.8087   H         1 RES1   0.0000
   368 H202      0.4388    6.8525   -7.6882   H         1 RES1   0.0000
   369 H203      1.0517    6.4554   -6.0819   H         1 RES1   0.0000
   370 H204     -0.9583    8.6737   -6.6908   H         1 RES1   0.0000
   371 H205     -0.3784    8.2376   -5.0879   H         1 RES1   0.0000
   372 H206     -1.3313    5.9493   -5.3879   H         1 RES1   0.0000
   373 H207     -1.9506    6.4240   -6.9715   H         1 RES1   0.0000
   374 H208     -3.2916    8.2313   -5.8750   H         1 RES1   0.0000
   375 H209     -2.7631    7.6492   -4.3020   H         1 RES1   0.0000
   376 H210     -4.3938    6.0517   -6.3349   H         1 RES1   0.0000
   377 H211     -5.0428    6.8757   -4.9210   H         1 RES1   0.0000
   378 H212     -3.6350    5.4581   -3.4450   H         1 RES1   0.0000
   379 H213     -3.0065    4.6170   -4.8677   H         1 RES1   0.0000
   380 H214     -5.2497    3.7070   -5.3507   H         1 RES1   0.0000
   381 H215     -5.9091    4.5496   -3.9522   H         1 RES1   0.0000
   382 H216     -4.4037    3.3605   -2.4402   H         1 RES1   0.0000
   383 H217     -3.5547    2.6413   -3.8176   H         1 RES1   0.0000
   384 H218     -5.5797    1.3114   -4.3719   H         1 RES1   0.0000
   385 H219     -6.4025    1.9928   -2.9790   H         1 RES1   0.0000
   386 H220     -5.6509   -0.1512   -2.3307   H         1 RES1   0.0000
   387 H221     -4.6304    1.0123   -1.4642   H         1 RES1   0.0000
   388 H222     -4.8532   -0.8795   -4.3893   H         1 RES1   0.0000
   389 H223     -3.3364   -1.7042   -4.1623   H         1 RES1   0.0000
   390 H224     -2.8508    0.9937   -5.1983   H         1 RES1   0.0000
   391 H225     -4.0620    0.2248   -6.1594   H         1 RES1   0.0000
   392 H226     -2.6215   -0.9970   -7.2674   H         1 RES1   0.0000
   393 H227     -1.9977   -1.7543   -5.8364   H         1 RES1   0.0000
   394 H228     -0.8497    0.9596   -6.4532   H         1 RES1   0.0000
   395 H229     -0.5743   -0.3023   -7.6273   H         1 RES1   0.0000
   396 H230      0.3705   -0.3385   -4.7600   H         1 RES1   0.0000
   397 H231      0.3145   -1.7803   -5.8054   H         1 RES1   0.0000
   398 H232      1.8092    0.7937   -6.3729   H         1 RES1   0.0000
   399 H233      1.7976   -0.6135   -7.3923   H         1 RES1   0.0000
   400 H234      2.9592   -1.8895   -5.5594   H         1 RES1   0.0000
   401 H235      3.0250   -0.3829   -4.6177   H         1 RES1   0.0000
   402 H236      4.2472    0.6756   -6.5558   H         1 RES1   0.0000
   403 H237      4.3388   -0.9117   -7.3070   H         1 RES1   0.0000
   404 H238      5.3921   -0.3868   -4.5055   H         1 RES1   0.0000
   405 H239      6.3544   -0.0487   -5.9422   H         1 RES1   0.0000
   406 H240      5.2783   -2.7945   -5.1455   H         1 RES1   0.0000
   407 H241      6.9512   -2.2411   -5.1025   H         1 RES1   0.0000
   408 H242      6.1329   -2.4358   -6.6454   H         1 RES1   0.0000
   409 H243     -1.3992   -0.7755   -3.9413   H         1 RES1   0.0000
   410 H244      0.2405    1.2296   -3.4499   H         1 RES1   0.0000
   411 H245     -1.2640    1.4720   -4.3453   H         1 RES1   0.0000
   412 H246     -0.7087    2.0769   -1.4203   H         1 RES1   0.0000
   413 H247     -2.3028    2.2940   -2.1682   H         1 RES1   0.0000
   414 H248      0.1983    3.9214   -2.7153   H         1 RES1   0.0000
   415 H249     -1.4142    4.4558   -2.2663   H         1 RES1   0.0000
   416 H250     -1.1219    3.8423   -3.8824   H         1 RES1   0.0000
   417 H251     -0.8607   -2.5964   -3.1603   H         1 RES1   0.0000
   418 H252      1.1304   -3.3464   -4.0252   H         1 RES1   0.0000
   419 H253      1.5320   -1.6366   -3.9157   H         1 RES1   0.0000
   420 H254      3.3328   -3.1492   -3.2498   H         1 RES1   0.0000
   421 H255      2.4186   -3.6835   -1.8615   H         1 RES1   0.0000
   422 H256      3.4769   -0.8846   -2.4635   H         1 RES1   0.0000
   423 H257      3.9172   -1.9420   -1.1175   H         1 RES1   0.0000
   424 H258      2.3152   -1.1688   -1.1532   H         1 RES1   0.0000
   425 H259      0.4711   -4.4506    0.6714   H         1 RES1   0.0000
   426 H260      1.2145   -5.7166   -0.3111   H         1 RES1   0.0000
   427 H261     -0.8257   -7.0072   -0.3896   H         1 RES1   0.0000
   428 H262     -1.7935   -5.6154    0.1074   H         1 RES1   0.0000
   429 H263     -1.6845   -7.0292    1.9886   H         1 RES1   0.0000
   430 H264     -0.5789   -5.7133    2.3469   H         1 RES1   0.0000
   431 H265      0.9155   -7.8107    1.0233   H         1 RES1   0.0000
   432 H266     -0.0413   -8.5486    2.2936   H         1 RES1   0.0000
   433 H267      1.8941   -6.2240    2.5914   H         1 RES1   0.0000
   434 H268      2.2069   -7.8875    3.0581   H         1 RES1   0.0000
   435 H269      0.3072   -7.7272    4.7159   H         1 RES1   0.0000
   436 H270      0.1916   -6.0093    4.3540   H         1 RES1   0.0000
   437 H271      2.6522   -5.8015    4.9680   H         1 RES1   0.0000
   438 H272      2.6204   -7.5007    5.4037   H         1 RES1   0.0000
   439 H273      2.4261   -6.4497    7.4386   H         1 RES1   0.0000
   440 H274      0.7729   -6.9308    7.0883   H         1 RES1   0.0000
   441 H275      1.5481   -4.1574    6.2362   H         1 RES1   0.0000
   442 H276      1.5019   -4.4546    7.9663   H         1 RES1   0.0000
   443 H277     -0.8466   -4.9539    6.0848   H         1 RES1   0.0000
   444 H278     -0.6699   -3.5868    7.1921   H         1 RES1   0.0000
   445 H279     -0.8428   -5.2164    7.8250   H         1 RES1   0.0000
   446 H280     -0.6286   -4.5550   -3.3420   H         1 RES1   0.0000
   447 H281     -1.3254   -5.6964   -2.1942   H         1 RES1   0.0000
   448 H282      1.1577   -6.6667   -2.1020   H         1 RES1   0.0000
   449 H283      1.3621   -5.7816   -3.5972   H         1 RES1   0.0000
   450 H284     -1.1636   -7.1636   -3.7655   H         1 RES1   0.0000
   451 H285     -0.0049   -8.3221   -3.1582   H         1 RES1   0.0000
   452 H286      1.2875   -8.2639   -5.1135   H         1 RES1   0.0000
   453 H287      0.7474   -6.6543   -5.5600   H         1 RES1   0.0000
   454 H288     -1.2124   -8.9670   -5.5066   H         1 RES1   0.0000
   455 H289     -0.1996   -8.6566   -6.9085   H         1 RES1   0.0000
   456 H290     -1.0683   -6.4090   -7.1522   H         1 RES1   0.0000
   457 H291     -2.0038   -6.5357   -5.6661   H         1 RES1   0.0000
   458 H292     -3.4169   -8.2843   -6.6355   H         1 RES1   0.0000
   459 H293     -2.4813   -8.2606   -8.1306   H         1 RES1   0.0000
   460 H294     -3.8198   -5.7595   -7.0387   H         1 RES1   0.0000
   461 H295     -4.6966   -6.8919   -8.0605   H         1 RES1   0.0000
   462 H296     -3.3897   -6.4372   -9.9551   H         1 RES1   0.0000
   463 H297     -2.0289   -5.8393   -9.0214   H         1 RES1   0.0000
   464 H298     -4.6955   -4.3809   -9.2706   H         1 RES1   0.0000
   465 H299     -3.2424   -3.9991  -10.1920   H         1 RES1   0.0000
   466 H300     -3.2559   -3.7899   -8.4402   H         1 RES1   0.0000
@<TRIPOS>BOND
     1     1    24    1
     2     1    29    1
     3     1    35    1
     4     1   179    1
     5     1   184    1
     6     1   190    1
     7     1   334    1
     8     1   339    1
     9     1   345    1
    10     2     3    1
    11     2    57    1
    12     2    58    1
    13     2    59    1
    14     3     4    1
    15     3    60    1
    16     3    61    1
    17     4     5    1
    18     4    62    1
    19     4    63    1
    20     5     6    1
    21     5    64    1
    22     5    65    1
    23     6     7    1
    24     6    66    1
    25     6    67    1
    26     7     8    1
    27     7    68    1
    28     7    69    1
    29     8     9    1
    30     8    70    1
    31     8    71    1
    32     9    10    1
    33     9    72    1
    34     9    73    1
    35    10    11    1
    36    10    74    1
    37    10    75    1
    38    11    12    1
    39    11    76    1
    40    11    77    1
    41    12    13    1
    42    12    23    1
    43    13    14    1
    44    13    78    1
    45    13    79    1
    46    14    15    1
    47    14    80    1
    48    14    81    1
    49    15    16    1
    50    15    82    1
    51    15    83    1
    52    16    17    1
    53    16    84    1
    54    16    85    1
    55    17    18    1
    56    17    86    1
    57    17    87    1
    58    18    19    1
    59    18    88    1
    60    18    89    1
    61    19    20    1
    62    19    90    1
    63    19    91    1
    64    20    21    1
    65    20    92    1
    66    20    93    1
    67    21    22    1
    68    21    94    1
    69    21    95    1
    70    22    96    1
    71    22    97    1
    72    22    98    1
    73    23    24    2
    74    23    25    1
    75    25    26    1
    76    25    29    1
    77    25    99    1
    78    26    27    1
    79    26   100    1
    80    26   101    1
    81    27    28    1
    82    27   102    1
    83    27   103    1
    84    28   104    1
    85    28   105    1
    86    28   106    1
    87    29    30    1
    88    30    31    1
    89    30    34    1
    90    30   107    1
    91    31    32    1
    92    31   108    1
    93    31   109    1
    94    32    33    1
    95    32   110    1
    96    32   111    1
    97    33   112    1
    98    33   113    1
    99    33   114    1
   100    34    35    2
   101    34    36    1
   102    36    37    1
   103    36    47    1
   104    37    38    1
   105    37   115    1
   106    37   116    1
   107    38    39    1
   108    38   117    1
   109    38   118    1
   110    39    40    1
   111    39   119    1
   112    39   120    1
   113    40    41    1
   114    40   121    1
   115    40   122    1
   116    41    42    1
   117    41   123    1
   118    41   124    1
   119    42    43    1
   120    42   125    1
   121    42   126    1
   122    43    44    1
   123    43   127    1
   124    43   128    1
   125    44    45    1
   126    44   129    1
   127    44   130    1
   128    45    46    1
   129    45   131    1
   130    45   132    1
   131    46   133    1
   132    46   134    1
   133    46   135    1
   134    47    48    1
   135    47   136    1
   136    47   137    1
   137    48    49    1
   138    48   138    1
   139    48   139    1
   140    49    50    1
   141    49   140    1
   142    49   141    1
   143    50    51    1
   144    50   142    1
   145    50   143    1
   146    51    52    1
   147    51   144    1
   148    51   145    1
   149    52    53    1
   150    52   146    1
   151    52   147    1
   152    53    54    1
   153    53   148    1
   154    53   149    1
   155    54    55    1
   156    54   150    1
   157    54   151    1
   158    55    56    1
   159    55   152    1
   160    55   153    1
   161    56   154    1
   162    56   155    1
   163    56   156    1
   164   157   158    1
   165   157   212    1
   166   157   213    1
   167   157   214    1
   168   158   159    1
   169   158   215    1
   170   158   216    1
   171   159   160    1
   172   159   217    1
   173   159   218    1
   174   160   161    1
   175   160   219    1
   176   160   220    1
   177   161   162    1
   178   161   221    1
   179   161   222    1
   180   162   163    1
   181   162   223    1
   182   162   224    1
   183   163   164    1
   184   163   225    1
   185   163   226    1
   186   164   165    1
   187   164   227    1
   188   164   228    1
   189   165   166    1
   190   165   229    1
   191   165   230    1
   192   166   167    1
   193   166   231    1
   194   166   232    1
   195   167   168    1
   196   167   178    1
   197   168   169    1
   198   168   233    1
   199   168   234    1
   200   169   170    1
   201   169   235    1
   202   169   236    1
   203   170   171    1
   204   170   237    1
   205   170   238    1
   206   171   172    1
   207   171   239    1
   208   171   240    1
   209   172   173    1
   210   172   241    1
   211   172   242    1
   212   173   174    1
   213   173   243    1
   214   173   244    1
   215   174   175    1
   216   174   245    1
   217   174   246    1
   218   175   176    1
   219   175   247    1
   220   175   248    1
   221   176   177    1
   222   176   249    1
   223   176   250    1
   224   177   251    1
   225   177   252    1
   226   177   253    1
   227   178   179    2
   228   178   180    1
   229   180   181    1
   230   180   184    1
   231   180   254    1
   232   181   182    1
   233   181   255    1
   234   181   256    1
   235   182   183    1
   236   182   257    1
   237   182   258    1
   238   183   259    1
   239   183   260    1
   240   183   261    1
   241   184   185    1
   242   185   186    1
   243   185   189    1
   244   185   262    1
   245   186   187    1
   246   186   263    1
   247   186   264    1
   248   187   188    1
   249   187   265    1
   250   187   266    1
   251   188   267    1
   252   188   268    1
   253   188   269    1
   254   189   190    2
   255   189   191    1
   256   191   192    1
   257   191   202    1
   258   192   193    1
   259   192   270    1
   260   192   271    1
   261   193   194    1
   262   193   272    1
   263   193   273    1
   264   194   195    1
   265   194   274    1
   266   194   275    1
   267   195   196    1
   268   195   276    1
   269   195   277    1
   270   196   197    1
   271   196   278    1
   272   196   279    1
   273   197   198    1
   274   197   280    1
   275   197   281    1
   276   198   199    1
   277   198   282    1
   278   198   283    1
   279   199   200    1
   280   199   284    1
   281   199   285    1
   282   200   201    1
   283   200   286    1
   284   200   287    1
   285   201   288    1
   286   201   289    1
   287   201   290    1
   288   202   203    1
   289   202   291    1
   290   202   292    1
   291   203   204    1
   292   203   293    1
   293   203   294    1
   294   204   205    1
   295   204   295    1
   296   204   296    1
   297   205   206    1
   298   205   297    1
   299   205   298    1
   300   206   207    1
   301   206   299    1
   302   206   300    1
   303   207   208    1
   304   207   301    1
   305   207   302    1
   306   208   209    1
   307   208   303    1
   308   208   304    1
   309   209   210    1
   310   209   305    1
   311   209   306    1
   312   210   211    1
   313   210   307    1
   314   210   308    1
   315   211   309    1
   316   211   310    1
   317   211   311    1
   318   312   313    1
   319   312   367    1
   320   312   368    1
   321   312   369    1
   322   313   314    1
   323   313   370    1
   324   313   371    1
   325   314   315    1
   326   314   372    1
   327   314   373    1
   328   315   316    1
   329   315   374    1
   330   315   375    1
   331   316   317    1
   332   316   376    1
   333   316   377    1
   334   317   318    1
   335   317   378    1
   336   317   379    1
   337   318   319    1
   338   318   380    1
   339   318   381    1
   340   319   320    1
   341   319   382    1
   342   319   383    1
   343   320   321    1
   344   320   384    1
   345   320   385    1
   346   321   322    1
   347   321   386    1
   348   321   387    1
   349   322   323    1
   350   322   333    1
   351   323   324    1
   352   323   388    1
   353   323   389    1
   354   324   325    1
   355   324   390    1
   356   324   391    1
   357   325   326    1
   358   325   392    1
   359   325   393    1
   360   326   327    1
   361   326   394    1
   362   326   395    1
   363   327   328    1
   364   327   396    1
   365   327   397    1
   366   328   329    1
   367   328   398    1
   368   328   399    1
   369   329   330    1
   370   329   400    1
   371   329   401    1
   372   330   331    1
   373   330   402    1
   374   330   403    1
   375   331   332    1
   376   331   404    1
   377   331   405    1
   378   332   406    1
   379   332   407    1
   380   332   408    1
   381   333   334    2
   382   333   335    1
   383   335   336    1
   384   335   339    1
   385   335   409    1
   386   336   337    1
   387   336   410    1
   388   336   411    1
   389   337   338    1
   390   337   412    1
   391   337   413    1
   392   338   414    1
   393   338   415    1
   394   338   416    1
   395   339   340    1
   396   340   341    1
   397   340   344    1
   398   340   417    1
   399   341   342    1
   400   341   418    1
   401   341   419    1
   402   342   343    1
   403   342   420    1
   404   342   421    1
   405   343   422    1
   406   343   423    1
   407   343   424    1
   408   344   345    2
   409   344   346    1
   410   346   347    1
   411   346   357    1
   412   347   348    1
   413   347   425    1
   414   347   426    1
   415   348   349    1
   416   348   427    1
   417   348   428    1
   418   349   350    1
   419   349   429    1
   420   349   430    1
   421   350   351    1
   422   350   431    1
   423   350   432    1
   424   351   352    1
   425   351   433    1
   426   351   434    1
   427   352   353    1
   428   352   435    1
   429   352   436    1
   430   353   354    1
   431   353   437    1
   432   353   438    1
   433   354   355    1
   434   354   439    1
   435   354   440    1
   436   355   356    1
   437   355   441    1
   438   355   442    1
   439   356   443    1
   440   356   444    1
   441   356   445    1
   442   357   358    1
   443   357   446    1
   444   357   447    1
   445   358   359    1
   446   358   448    1
   447   358   449    1
   448   359   360    1
   449   359   450    1
   450   359   451    1
   451   360   361    1
   452   360   452    1
   453   360   453    1
   454   361   362    1
   455   361   454    1
   456   361   455    1
   457   362   363    1
   458   362   456    1
   459   362   457    1
   460   363   364    1
   461   363   458    1
   462   363   459    1
   463   364   365    1
   464   364   460    1
   465   364   461    1
   466   365   366    1
   467   365   462    1
   468   365   463    1
   469   366   464    1
   470   366   465    1
   471   366   466    1
@<TRIPOS>SUBSTRUCTURE
     1 RES1      466 GROUP             0 ****  ****    0  
