@<TRIPOS>MOLECULE
cn9_YICLED_0_nunpairedes_0_charge_3 Charge: 3 Unpaired_Electrons: 7 XTB_Unpaired_Electrons: 0 XTB_Charge: 3
   340   345     1     0     0
SMALL
NoCharges
****
Generated from Architector

@<TRIPOS>ATOM
     1 Gd1       0.0166   -0.1378    0.1637   Gd        1 RES1   0.0000
     2 C1        1.4265   -9.0670   -1.9526   C.3       1 RES1   0.0000
     3 C2        2.4132   -8.7077   -0.8491   C.3       1 RES1   0.0000
     4 C3        1.8353   -7.7542    0.1971   C.3       1 RES1   0.0000
     5 C4        2.8705   -7.4400    1.2753   C.3       1 RES1   0.0000
     6 C5        2.4069   -6.4236    2.3192   C.3       1 RES1   0.0000
     7 C6        3.4557   -6.2723    3.4209   C.3       1 RES1   0.0000
     8 C7        3.1654   -5.1548    4.4203   C.3       1 RES1   0.0000
     9 C8        3.3146   -3.7264    3.8627   C.3       1 RES1   0.0000
    10 N1        2.0704   -3.1255    3.3878   N.am      1 RES1   0.0000
    11 C9        0.8968   -3.2555    4.2582   C.3       1 RES1   0.0000
    12 C10       1.1974   -2.8559    5.7126   C.3       1 RES1   0.0000
    13 C11      -0.0668   -2.5032    6.5296   C.3       1 RES1   0.0000
    14 C12       0.0686   -1.1403    7.2241   C.3       1 RES1   0.0000
    15 C13      -1.2406   -0.5123    7.7005   C.3       1 RES1   0.0000
    16 C14      -0.9895    0.8821    8.2891   C.3       1 RES1   0.0000
    17 C15      -2.1958    1.8093    8.1577   C.3       1 RES1   0.0000
    18 C16      -1.8969    3.2204    8.6519   C.3       1 RES1   0.0000
    19 C17       1.9721   -2.3248    2.3277   C.2       1 RES1   0.0000
    20 O1        0.9014   -1.8057    1.9674   O.2       1 RES1   0.0000
    21 C18       3.2219   -1.9569    1.5143   C.3       1 RES1   0.0000
    22 O2        2.7586   -1.0124    0.5586   O.3       1 RES1   0.0000
    23 C19       3.7397   -0.1918   -0.0475   C.3       1 RES1   0.0000
    24 C20       3.0612    1.1716   -0.2504   C.2       1 RES1   0.0000
    25 O3        1.8205    1.2121   -0.0752   O.2       1 RES1   0.0000
    26 N2        3.7968    2.2512   -0.4758   N.am      1 RES1   0.0000
    27 C21       3.2124    3.5633   -0.1506   C.3       1 RES1   0.0000
    28 C22       3.7616    4.7825   -0.8946   C.3       1 RES1   0.0000
    29 C23       4.7935    5.5978   -0.0968   C.3       1 RES1   0.0000
    30 C24       5.5835    6.5412   -1.0133   C.3       1 RES1   0.0000
    31 C25       6.7640    5.8549   -1.7077   C.3       1 RES1   0.0000
    32 C26       7.0867    6.4590   -3.0721   C.3       1 RES1   0.0000
    33 C27       8.2009    5.6878   -3.7772   C.3       1 RES1   0.0000
    34 C28       8.5229    6.2428   -5.1601   C.3       1 RES1   0.0000
    35 C29       5.1665    2.1313   -0.9521   C.3       1 RES1   0.0000
    36 C30       5.2294    1.6414   -2.4100   C.3       1 RES1   0.0000
    37 C31       5.0102    2.7314   -3.4618   C.3       1 RES1   0.0000
    38 C32       5.0469    2.2434   -4.9126   C.3       1 RES1   0.0000
    39 C33       5.2723    3.4326   -5.8591   C.3       1 RES1   0.0000
    40 C34       4.6333    3.2794   -7.2432   C.3       1 RES1   0.0000
    41 C35       3.1822    3.7536   -7.2489   C.3       1 RES1   0.0000
    42 C36       2.6121    3.8336   -8.6556   C.3       1 RES1   0.0000
    43 H1        1.8907   -9.7588   -2.6503   H         1 RES1   0.0000
    44 H2        1.1167   -8.1873   -2.5146   H         1 RES1   0.0000
    45 H3        0.5381   -9.5343   -1.5358   H         1 RES1   0.0000
    46 H4        3.3008   -8.2542   -1.2968   H         1 RES1   0.0000
    47 H5        2.7289   -9.6227   -0.3449   H         1 RES1   0.0000
    48 H6        0.9566   -8.2089    0.6575   H         1 RES1   0.0000
    49 H7        1.5088   -6.8276   -0.2849   H         1 RES1   0.0000
    50 H8        3.7795   -7.0639    0.7996   H         1 RES1   0.0000
    51 H9        3.1370   -8.3666    1.7846   H         1 RES1   0.0000
    52 H10       1.4704   -6.7604    2.7654   H         1 RES1   0.0000
    53 H11       2.2253   -5.4545    1.8446   H         1 RES1   0.0000
    54 H12       4.4385   -6.1128    2.9723   H         1 RES1   0.0000
    55 H13       3.5111   -7.2100    3.9764   H         1 RES1   0.0000
    56 H14       3.8807   -5.2546    5.2364   H         1 RES1   0.0000
    57 H15       2.1720   -5.2967    4.8396   H         1 RES1   0.0000
    58 H16       4.0415   -3.7366    3.0563   H         1 RES1   0.0000
    59 H17       3.7032   -3.0792    4.6547   H         1 RES1   0.0000
    60 H18       0.5148   -4.2780    4.1981   H         1 RES1   0.0000
    61 H19       0.1446   -2.5872    3.8388   H         1 RES1   0.0000
    62 H20       1.8578   -1.9863    5.6918   H         1 RES1   0.0000
    63 H21       1.7389   -3.6536    6.2182   H         1 RES1   0.0000
    64 H22      -0.2519   -3.2691    7.2812   H         1 RES1   0.0000
    65 H23      -0.9361   -2.5019    5.8688   H         1 RES1   0.0000
    66 H24       0.5291   -0.4395    6.5236   H         1 RES1   0.0000
    67 H25       0.7386   -1.2387    8.0785   H         1 RES1   0.0000
    68 H26      -1.7279   -1.1526    8.4305   H         1 RES1   0.0000
    69 H27      -1.9181   -0.4149    6.8523   H         1 RES1   0.0000
    70 H28      -0.1469    1.3441    7.7679   H         1 RES1   0.0000
    71 H29      -0.7078    0.8044    9.3384   H         1 RES1   0.0000
    72 H30      -3.0370    1.3978    8.7154   H         1 RES1   0.0000
    73 H31      -2.4903    1.8577    7.1064   H         1 RES1   0.0000
    74 H32      -1.6308    3.2057    9.7056   H         1 RES1   0.0000
    75 H33      -2.7672    3.8611    8.5215   H         1 RES1   0.0000
    76 H34      -1.0682    3.6590    8.0976   H         1 RES1   0.0000
    77 H35       3.6639   -2.8293    1.0142   H         1 RES1   0.0000
    78 H36       3.9797   -1.4997    2.1660   H         1 RES1   0.0000
    79 H37       4.0953   -0.6317   -0.9877   H         1 RES1   0.0000
    80 H38       4.5920   -0.0640    0.6285   H         1 RES1   0.0000
    81 H39       3.3805    3.7187    0.9197   H         1 RES1   0.0000
    82 H40       2.1360    3.4679   -0.3022   H         1 RES1   0.0000
    83 H41       2.9214    5.4374   -1.1255   H         1 RES1   0.0000
    84 H42       4.1919    4.4954   -1.8478   H         1 RES1   0.0000
    85 H43       5.4920    4.9400    0.4224   H         1 RES1   0.0000
    86 H44       4.2704    6.1821    0.6633   H         1 RES1   0.0000
    87 H45       5.9558    7.3918   -0.4424   H         1 RES1   0.0000
    88 H46       4.9001    6.9383   -1.7673   H         1 RES1   0.0000
    89 H47       6.5452    4.7957   -1.8504   H         1 RES1   0.0000
    90 H48       7.6481    5.9107   -1.0727   H         1 RES1   0.0000
    91 H49       7.3882    7.4993   -2.9553   H         1 RES1   0.0000
    92 H50       6.1942    6.4436   -3.7023   H         1 RES1   0.0000
    93 H51       7.9013    4.6387   -3.8738   H         1 RES1   0.0000
    94 H52       9.1022    5.7183   -3.1624   H         1 RES1   0.0000
    95 H53       7.6444    6.2154   -5.8016   H         1 RES1   0.0000
    96 H54       9.3091    5.6523   -5.6260   H         1 RES1   0.0000
    97 H55       8.8658    7.2723   -5.0967   H         1 RES1   0.0000
    98 H56       5.7042    1.4364   -0.3027   H         1 RES1   0.0000
    99 H57       5.6497    3.1001   -0.8668   H         1 RES1   0.0000
   100 H58       4.4793    0.8629   -2.5352   H         1 RES1   0.0000
   101 H59       6.2114    1.1983   -2.5731   H         1 RES1   0.0000
   102 H60       5.7918    3.4797   -3.3381   H         1 RES1   0.0000
   103 H61       4.0412    3.2121   -3.3131   H         1 RES1   0.0000
   104 H62       4.1105    1.7463   -5.1566   H         1 RES1   0.0000
   105 H63       5.8491    1.5186   -5.0440   H         1 RES1   0.0000
   106 H64       6.3422    3.5986   -5.9664   H         1 RES1   0.0000
   107 H65       4.8606    4.3311   -5.3917   H         1 RES1   0.0000
   108 H66       4.6943    2.2429   -7.5805   H         1 RES1   0.0000
   109 H67       5.1882    3.8891   -7.9572   H         1 RES1   0.0000
   110 H68       3.1413    4.7503   -6.8070   H         1 RES1   0.0000
   111 H69       2.5684    3.0976   -6.6231   H         1 RES1   0.0000
   112 H70       3.1872    4.5383   -9.2491   H         1 RES1   0.0000
   113 H71       1.5764    4.1626   -8.6416   H         1 RES1   0.0000
   114 H72       2.6643    2.8656   -9.1427   H         1 RES1   0.0000
   115 C37       6.9286   -4.2719    2.3158   C.3       1 RES1   0.0000
   116 C38       6.4932   -4.7340    0.9320   C.3       1 RES1   0.0000
   117 C39       7.4624   -4.2740   -0.1514   C.3       1 RES1   0.0000
   118 C40       7.1330   -4.8383   -1.5334   C.3       1 RES1   0.0000
   119 C41       5.8177   -4.3190   -2.1349   C.3       1 RES1   0.0000
   120 C42       4.6980   -5.3576   -2.1058   C.3       1 RES1   0.0000
   121 C43       3.4048   -4.8998   -2.7980   C.3       1 RES1   0.0000
   122 C44       2.3956   -4.3110   -1.8129   C.3       1 RES1   0.0000
   123 N3        1.0410   -4.0786   -2.3391   N.am      1 RES1   0.0000
   124 C45       0.4230   -5.1623   -3.1039   C.3       1 RES1   0.0000
   125 C46       0.1235   -4.8301   -4.5796   C.3       1 RES1   0.0000
   126 C47       1.2797   -5.0000   -5.5644   C.3       1 RES1   0.0000
   127 C48       0.8055   -4.8961   -7.0197   C.3       1 RES1   0.0000
   128 C49       0.2901   -3.5217   -7.4516   C.3       1 RES1   0.0000
   129 C50       1.3693   -2.4367   -7.4503   C.3       1 RES1   0.0000
   130 C51       0.9446   -1.2121   -8.2651   C.3       1 RES1   0.0000
   131 C52       2.0424   -0.1571   -8.3288   C.3       1 RES1   0.0000
   132 C53       0.3378   -3.0363   -1.8982   C.2       1 RES1   0.0000
   133 O4        0.8183   -2.0728   -1.2740   O.2       1 RES1   0.0000
   134 C54      -1.1772   -3.1100   -2.1404   C.3       1 RES1   0.0000
   135 O5       -1.8314   -1.8930   -1.8187   O.3       1 RES1   0.0000
   136 C55      -2.9643   -2.0831   -0.9949   C.3       1 RES1   0.0000
   137 C56      -2.4812   -2.0925    0.4507   C.2       1 RES1   0.0000
   138 O6       -1.2930   -1.7504    0.6186   O.2       1 RES1   0.0000
   139 N4       -3.2438   -2.3824    1.4869   N.am      1 RES1   0.0000
   140 C57      -4.5945   -2.8945    1.4001   C.3       1 RES1   0.0000
   141 C58      -5.6719   -1.8330    1.6461   C.3       1 RES1   0.0000
   142 C59      -6.9358   -2.1905    0.8590   C.3       1 RES1   0.0000
   143 C60      -6.9350   -1.7283   -0.6085   C.3       1 RES1   0.0000
   144 C61      -7.5448   -0.3334   -0.8537   C.3       1 RES1   0.0000
   145 C62      -6.5865    0.7188   -1.4229   C.3       1 RES1   0.0000
   146 C63      -5.6361    1.3116   -0.3814   C.3       1 RES1   0.0000
   147 C64      -5.0128    2.6272   -0.8269   C.3       1 RES1   0.0000
   148 C65      -2.6381   -2.1181    2.7937   C.3       1 RES1   0.0000
   149 C66      -2.4414   -0.6011    2.9914   C.3       1 RES1   0.0000
   150 C67      -1.3855   -0.1955    4.0403   C.3       1 RES1   0.0000
   151 C68      -0.0504    0.3825    3.5277   C.3       1 RES1   0.0000
   152 C69       0.2898    1.8205    3.9281   C.3       1 RES1   0.0000
   153 C70       1.7546    2.1138    3.6115   C.3       1 RES1   0.0000
   154 C71       2.0814    3.6089    3.5857   C.3       1 RES1   0.0000
   155 C72       3.5892    3.8437    3.6244   C.3       1 RES1   0.0000
   156 H73       6.2523   -4.6496    3.0775   H         1 RES1   0.0000
   157 H74       6.9500   -3.1872    2.3766   H         1 RES1   0.0000
   158 H75       7.9215   -4.6442    2.5436   H         1 RES1   0.0000
   159 H76       5.4949   -4.3450    0.7095   H         1 RES1   0.0000
   160 H77       6.4357   -5.8233    0.9166   H         1 RES1   0.0000
   161 H78       8.4701   -4.5966    0.1161   H         1 RES1   0.0000
   162 H79       7.4759   -3.1815   -0.1951   H         1 RES1   0.0000
   163 H80       7.0912   -5.9273   -1.4728   H         1 RES1   0.0000
   164 H81       7.9551   -4.5835   -2.2013   H         1 RES1   0.0000
   165 H82       5.9907   -4.0574   -3.1784   H         1 RES1   0.0000
   166 H83       5.5004   -3.4114   -1.6175   H         1 RES1   0.0000
   167 H84       4.4921   -5.6513   -1.0764   H         1 RES1   0.0000
   168 H85       5.0660   -6.2444   -2.6232   H         1 RES1   0.0000
   169 H86       2.9782   -5.7756   -3.2820   H         1 RES1   0.0000
   170 H87       3.6420   -4.1769   -3.5763   H         1 RES1   0.0000
   171 H88       2.7475   -3.3571   -1.4190   H         1 RES1   0.0000
   172 H89       2.2913   -5.0120   -0.9767   H         1 RES1   0.0000
   173 H90      -0.5043   -5.4672   -2.6075   H         1 RES1   0.0000
   174 H91       1.0936   -6.0159   -3.0522   H         1 RES1   0.0000
   175 H92      -0.2315   -3.8037   -4.6560   H         1 RES1   0.0000
   176 H93      -0.6808   -5.4929   -4.9002   H         1 RES1   0.0000
   177 H94       1.7274   -5.9873   -5.4341   H         1 RES1   0.0000
   178 H95       2.0532   -4.2540   -5.3809   H         1 RES1   0.0000
   179 H96       0.0234   -5.6374   -7.2003   H         1 RES1   0.0000
   180 H97       1.6427   -5.1518   -7.6692   H         1 RES1   0.0000
   181 H98      -0.5498   -3.2065   -6.8270   H         1 RES1   0.0000
   182 H99      -0.0862   -3.6176   -8.4718   H         1 RES1   0.0000
   183 H100      2.2827   -2.8463   -7.8884   H         1 RES1   0.0000
   184 H101      1.5984   -2.1238   -6.4285   H         1 RES1   0.0000
   185 H102      0.7084   -1.5297   -9.2826   H         1 RES1   0.0000
   186 H103      0.0336   -0.7763   -7.8378   H         1 RES1   0.0000
   187 H104      2.3089    0.2002   -7.3356   H         1 RES1   0.0000
   188 H105      2.9346   -0.5689   -8.7921   H         1 RES1   0.0000
   189 H106      1.7130    0.6917   -8.9198   H         1 RES1   0.0000
   190 H107     -1.5348   -3.9131   -1.4853   H         1 RES1   0.0000
   191 H108     -1.4209   -3.3641   -3.1775   H         1 RES1   0.0000
   192 H109     -3.5048   -2.9877   -1.2872   H         1 RES1   0.0000
   193 H110     -3.6208   -1.2188   -1.1491   H         1 RES1   0.0000
   194 H111     -4.6812   -3.7066    2.1302   H         1 RES1   0.0000
   195 H112     -4.7445   -3.3198    0.4058   H         1 RES1   0.0000
   196 H113     -5.3109   -0.8503    1.3510   H         1 RES1   0.0000
   197 H114     -5.8945   -1.7997    2.7078   H         1 RES1   0.0000
   198 H115     -7.8125   -1.7783    1.3578   H         1 RES1   0.0000
   199 H116     -7.0494   -3.2761    0.8844   H         1 RES1   0.0000
   200 H117     -7.5195   -2.4555   -1.1755   H         1 RES1   0.0000
   201 H118     -5.9203   -1.7562   -1.0094   H         1 RES1   0.0000
   202 H119     -7.9751    0.0516    0.0714   H         1 RES1   0.0000
   203 H120     -8.3689   -0.4381   -1.5583   H         1 RES1   0.0000
   204 H121     -7.1942    1.5265   -1.8372   H         1 RES1   0.0000
   205 H122     -6.0181    0.2915   -2.2557   H         1 RES1   0.0000
   206 H123     -4.8270    0.6089   -0.1575   H         1 RES1   0.0000
   207 H124     -6.1960    1.4853    0.5402   H         1 RES1   0.0000
   208 H125     -4.6046    2.5515   -1.8251   H         1 RES1   0.0000
   209 H126     -4.2002    2.9043   -0.1634   H         1 RES1   0.0000
   210 H127     -5.7466    3.4252   -0.8319   H         1 RES1   0.0000
   211 H128     -1.6719   -2.6270    2.8270   H         1 RES1   0.0000
   212 H129     -3.2993   -2.5423    3.5487   H         1 RES1   0.0000
   213 H130     -3.4029   -0.1843    3.2796   H         1 RES1   0.0000
   214 H131     -2.1825   -0.1642    2.0244   H         1 RES1   0.0000
   215 H132     -1.1781   -1.0682    4.6515   H         1 RES1   0.0000
   216 H133     -1.8257    0.5311    4.7202   H         1 RES1   0.0000
   217 H134     -0.0120    0.3401    2.4118   H         1 RES1   0.0000
   218 H135      0.7653   -0.2360    3.8964   H         1 RES1   0.0000
   219 H136      0.1059    1.9787    4.9876   H         1 RES1   0.0000
   220 H137     -0.3147    2.5276    3.3742   H         1 RES1   0.0000
   221 H138      1.9825    1.6903    2.6242   H         1 RES1   0.0000
   222 H139      2.3894    1.6279    4.3541   H         1 RES1   0.0000
   223 H140      1.6221    4.1091    4.4414   H         1 RES1   0.0000
   224 H141      1.6532    4.0505    2.6813   H         1 RES1   0.0000
   225 H142      3.9822    3.5632    4.5978   H         1 RES1   0.0000
   226 H143      3.8253    4.8892    3.4454   H         1 RES1   0.0000
   227 H144      4.0940    3.2402    2.8716   H         1 RES1   0.0000
   228 C73      -5.4387   -4.4409    6.0656   C.3       1 RES1   0.0000
   229 C74      -4.7826   -3.0711    6.2046   C.3       1 RES1   0.0000
   230 C75      -5.6763   -1.9432    5.6897   C.3       1 RES1   0.0000
   231 C76      -4.9184   -0.6174    5.6793   C.3       1 RES1   0.0000
   232 C77      -5.6192    0.5293    4.9458   C.3       1 RES1   0.0000
   233 C78      -4.7549    1.8019    4.9771   C.3       1 RES1   0.0000
   234 C79      -4.3960    2.4166    3.6086   C.3       1 RES1   0.0000
   235 C80      -3.0005    3.0293    3.7259   C.3       1 RES1   0.0000
   236 N5       -2.4879    3.7731    2.5711   N.am      1 RES1   0.0000
   237 C81      -2.4572    5.2290    2.7397   C.3       1 RES1   0.0000
   238 C82      -3.0955    6.1367    1.6787   C.3       1 RES1   0.0000
   239 C83      -4.5101    5.7674    1.2321   C.3       1 RES1   0.0000
   240 C84      -5.5849    5.8090    2.3256   C.3       1 RES1   0.0000
   241 C85      -6.7860    4.9250    1.9793   C.3       1 RES1   0.0000
   242 C86      -7.5976    5.4265    0.7845   C.3       1 RES1   0.0000
   243 C87      -8.5717    4.3689    0.2540   C.3       1 RES1   0.0000
   244 C88      -9.6306    3.9709    1.2723   C.3       1 RES1   0.0000
   245 C89      -1.8164    3.1173    1.6196   C.2       1 RES1   0.0000
   246 O7       -1.7615    1.8828    1.5061   O.2       1 RES1   0.0000
   247 C90      -1.0032    3.9442    0.6234   C.3       1 RES1   0.0000
   248 O8       -0.1872    3.0684   -0.1456   O.3       1 RES1   0.0000
   249 C91      -0.3993    3.1080   -1.5400   C.3       1 RES1   0.0000
   250 C92      -1.3982    2.0450   -2.0165   C.2       1 RES1   0.0000
   251 O9       -1.4397    0.9620   -1.3922   O.2       1 RES1   0.0000
   252 N6       -2.0988    2.3095   -3.1090   N.am      1 RES1   0.0000
   253 C93      -1.9858    3.5627   -3.8449   C.3       1 RES1   0.0000
   254 C94      -2.9462    4.6254   -3.3033   C.3       1 RES1   0.0000
   255 C95      -2.8134    5.9661   -4.0274   C.3       1 RES1   0.0000
   256 C96      -1.6325    6.8361   -3.5795   C.3       1 RES1   0.0000
   257 C97      -0.3220    6.6034   -4.3338   C.3       1 RES1   0.0000
   258 C98       0.6475    7.7631   -4.1068   C.3       1 RES1   0.0000
   259 C99       1.9544    7.6356   -4.8900   C.3       1 RES1   0.0000
   260 C100      2.8731    6.5324   -4.3773   C.3       1 RES1   0.0000
   261 C101     -3.0618    1.3619   -3.6518   C.3       1 RES1   0.0000
   262 C102     -2.6078    0.7256   -4.9648   C.3       1 RES1   0.0000
   263 C103     -1.4347   -0.2241   -4.7593   C.3       1 RES1   0.0000
   264 C104     -0.0630    0.4587   -4.7210   C.3       1 RES1   0.0000
   265 C105      0.8835   -0.3661   -3.8531   C.3       1 RES1   0.0000
   266 C106      2.3579   -0.1682   -4.1824   C.3       1 RES1   0.0000
   267 C107      3.1507   -1.4005   -3.7587   C.3       1 RES1   0.0000
   268 C108      4.5818   -1.4247   -4.2824   C.3       1 RES1   0.0000
   269 H145     -4.8051   -5.2257    6.4704   H         1 RES1   0.0000
   270 H146     -5.6348   -4.6831    5.0234   H         1 RES1   0.0000
   271 H147     -6.3829   -4.4537    6.5999   H         1 RES1   0.0000
   272 H148     -3.8331   -3.0689    5.6555   H         1 RES1   0.0000
   273 H149     -4.5429   -2.8931    7.2552   H         1 RES1   0.0000
   274 H150     -6.5517   -1.8730    6.3305   H         1 RES1   0.0000
   275 H151     -6.0182   -2.1955    4.6863   H         1 RES1   0.0000
   276 H152     -3.9394   -0.7802    5.2224   H         1 RES1   0.0000
   277 H153     -4.7452   -0.3215    6.7127   H         1 RES1   0.0000
   278 H154     -6.5776    0.7159    5.4272   H         1 RES1   0.0000
   279 H155     -5.8199    0.2468    3.9128   H         1 RES1   0.0000
   280 H156     -3.8229    1.5533    5.4887   H         1 RES1   0.0000
   281 H157     -5.2459    2.5614    5.5861   H         1 RES1   0.0000
   282 H158     -5.1169    3.1824    3.3399   H         1 RES1   0.0000
   283 H159     -4.3927    1.6607    2.8225   H         1 RES1   0.0000
   284 H160     -2.9934    3.6994    4.5893   H         1 RES1   0.0000
   285 H161     -2.3081    2.2195    3.9264   H         1 RES1   0.0000
   286 H162     -1.4164    5.5486    2.8791   H         1 RES1   0.0000
   287 H163     -2.9843    5.4289    3.6708   H         1 RES1   0.0000
   288 H164     -2.4669    6.2076    0.7897   H         1 RES1   0.0000
   289 H165     -3.1180    7.1370    2.1149   H         1 RES1   0.0000
   290 H166     -4.4856    4.7730    0.7831   H         1 RES1   0.0000
   291 H167     -4.7797    6.4748    0.4447   H         1 RES1   0.0000
   292 H168     -5.9250    6.8350    2.4700   H         1 RES1   0.0000
   293 H169     -5.1731    5.4676    3.2775   H         1 RES1   0.0000
   294 H170     -7.4395    4.8726    2.8500   H         1 RES1   0.0000
   295 H171     -6.4352    3.9101    1.7630   H         1 RES1   0.0000
   296 H172     -6.9151    5.7125   -0.0210   H         1 RES1   0.0000
   297 H173     -8.1542    6.3193    1.0772   H         1 RES1   0.0000
   298 H174     -8.0101    3.4782   -0.0482   H         1 RES1   0.0000
   299 H175     -9.0637    4.7651   -0.6373   H         1 RES1   0.0000
   300 H176     -9.1767    3.4979    2.1375   H         1 RES1   0.0000
   301 H177    -10.3346    3.2691    0.8359   H         1 RES1   0.0000
   302 H178    -10.1827    4.8444    1.6019   H         1 RES1   0.0000
   303 H179     -0.3384    4.6194    1.1770   H         1 RES1   0.0000
   304 H180     -1.6645    4.5369   -0.0141   H         1 RES1   0.0000
   305 H181      0.5626    2.8453   -2.0008   H         1 RES1   0.0000
   306 H182     -0.6843    4.1152   -1.8402   H         1 RES1   0.0000
   307 H183     -2.2445    3.3690   -4.8864   H         1 RES1   0.0000
   308 H184     -0.9535    3.9147   -3.8364   H         1 RES1   0.0000
   309 H185     -2.7906    4.7690   -2.2304   H         1 RES1   0.0000
   310 H186     -3.9667    4.2581   -3.4303   H         1 RES1   0.0000
   311 H187     -3.7374    6.5192   -3.8512   H         1 RES1   0.0000
   312 H188     -2.7466    5.7953   -5.1029   H         1 RES1   0.0000
   313 H189     -1.4723    6.7197   -2.5042   H         1 RES1   0.0000
   314 H190     -1.9179    7.8766   -3.7349   H         1 RES1   0.0000
   315 H191     -0.5278    6.5268   -5.4038   H         1 RES1   0.0000
   316 H192      0.1495    5.6709   -4.0156   H         1 RES1   0.0000
   317 H193      0.8711    7.8577   -3.0408   H         1 RES1   0.0000
   318 H194      0.1487    8.6836   -4.4148   H         1 RES1   0.0000
   319 H195      2.4866    8.5860   -4.8231   H         1 RES1   0.0000
   320 H196      1.7220    7.4618   -5.9422   H         1 RES1   0.0000
   321 H197      3.0974    6.6900   -3.3245   H         1 RES1   0.0000
   322 H198      3.8100    6.5441   -4.9303   H         1 RES1   0.0000
   323 H199      2.4174    5.5515   -4.4985   H         1 RES1   0.0000
   324 H200     -4.0069    1.8844   -3.8222   H         1 RES1   0.0000
   325 H201     -3.2100    0.5920   -2.8950   H         1 RES1   0.0000
   326 H202     -2.3536    1.4860   -5.7049   H         1 RES1   0.0000
   327 H203     -3.4592    0.1751   -5.3621   H         1 RES1   0.0000
   328 H204     -1.4304   -0.9658   -5.5609   H         1 RES1   0.0000
   329 H205     -1.5851   -0.7534   -3.8158   H         1 RES1   0.0000
   330 H206     -0.1378    1.4791   -4.3443   H         1 RES1   0.0000
   331 H207      0.3425    0.5227   -5.7313   H         1 RES1   0.0000
   332 H208      0.6502   -1.4172   -4.0375   H         1 RES1   0.0000
   333 H209      0.6925   -0.1691   -2.7808   H         1 RES1   0.0000
   334 H210      2.7424    0.7410   -3.7193   H         1 RES1   0.0000
   335 H211      2.4553   -0.0591   -5.2652   H         1 RES1   0.0000
   336 H212      2.6221   -2.2665   -4.1580   H         1 RES1   0.0000
   337 H213      3.1219   -1.4952   -2.6718   H         1 RES1   0.0000
   338 H214      4.6279   -0.9494   -5.2568   H         1 RES1   0.0000
   339 H215      4.9249   -2.4482   -4.3979   H         1 RES1   0.0000
   340 H216      5.2770   -0.9192   -3.6221   H         1 RES1   0.0000
@<TRIPOS>BOND
     1     1    20    1
     2     1    22    1
     3     1    25    1
     4     1   133    1
     5     1   135    1
     6     1   138    1
     7     1   246    1
     8     1   248    1
     9     1   251    1
    10     2     3    1
    11     2    43    1
    12     2    44    1
    13     2    45    1
    14     3     4    1
    15     3    46    1
    16     3    47    1
    17     4     5    1
    18     4    48    1
    19     4    49    1
    20     5     6    1
    21     5    50    1
    22     5    51    1
    23     6     7    1
    24     6    52    1
    25     6    53    1
    26     7     8    1
    27     7    54    1
    28     7    55    1
    29     8     9    1
    30     8    56    1
    31     8    57    1
    32     9    10    1
    33     9    58    1
    34     9    59    1
    35    10    11    1
    36    10    19    1
    37    11    12    1
    38    11    60    1
    39    11    61    1
    40    12    13    1
    41    12    62    1
    42    12    63    1
    43    13    14    1
    44    13    64    1
    45    13    65    1
    46    14    15    1
    47    14    66    1
    48    14    67    1
    49    15    16    1
    50    15    68    1
    51    15    69    1
    52    16    17    1
    53    16    70    1
    54    16    71    1
    55    17    18    1
    56    17    72    1
    57    17    73    1
    58    18    74    1
    59    18    75    1
    60    18    76    1
    61    19    20    2
    62    19    21    1
    63    21    22    1
    64    21    77    1
    65    21    78    1
    66    22    23    1
    67    23    24    1
    68    23    79    1
    69    23    80    1
    70    24    25    2
    71    24    26    1
    72    26    27    1
    73    26    35    1
    74    27    28    1
    75    27    81    1
    76    27    82    1
    77    28    29    1
    78    28    83    1
    79    28    84    1
    80    29    30    1
    81    29    85    1
    82    29    86    1
    83    30    31    1
    84    30    87    1
    85    30    88    1
    86    31    32    1
    87    31    89    1
    88    31    90    1
    89    32    33    1
    90    32    91    1
    91    32    92    1
    92    33    34    1
    93    33    93    1
    94    33    94    1
    95    34    95    1
    96    34    96    1
    97    34    97    1
    98    35    36    1
    99    35    98    1
   100    35    99    1
   101    36    37    1
   102    36   100    1
   103    36   101    1
   104    37    38    1
   105    37   102    1
   106    37   103    1
   107    38    39    1
   108    38   104    1
   109    38   105    1
   110    39    40    1
   111    39   106    1
   112    39   107    1
   113    40    41    1
   114    40   108    1
   115    40   109    1
   116    41    42    1
   117    41   110    1
   118    41   111    1
   119    42   112    1
   120    42   113    1
   121    42   114    1
   122   115   116    1
   123   115   156    1
   124   115   157    1
   125   115   158    1
   126   116   117    1
   127   116   159    1
   128   116   160    1
   129   117   118    1
   130   117   161    1
   131   117   162    1
   132   118   119    1
   133   118   163    1
   134   118   164    1
   135   119   120    1
   136   119   165    1
   137   119   166    1
   138   120   121    1
   139   120   167    1
   140   120   168    1
   141   121   122    1
   142   121   169    1
   143   121   170    1
   144   122   123    1
   145   122   171    1
   146   122   172    1
   147   123   124    1
   148   123   132    1
   149   124   125    1
   150   124   173    1
   151   124   174    1
   152   125   126    1
   153   125   175    1
   154   125   176    1
   155   126   127    1
   156   126   177    1
   157   126   178    1
   158   127   128    1
   159   127   179    1
   160   127   180    1
   161   128   129    1
   162   128   181    1
   163   128   182    1
   164   129   130    1
   165   129   183    1
   166   129   184    1
   167   130   131    1
   168   130   185    1
   169   130   186    1
   170   131   187    1
   171   131   188    1
   172   131   189    1
   173   132   133    2
   174   132   134    1
   175   134   135    1
   176   134   190    1
   177   134   191    1
   178   135   136    1
   179   136   137    1
   180   136   192    1
   181   136   193    1
   182   137   138    2
   183   137   139    1
   184   139   140    1
   185   139   148    1
   186   140   141    1
   187   140   194    1
   188   140   195    1
   189   141   142    1
   190   141   196    1
   191   141   197    1
   192   142   143    1
   193   142   198    1
   194   142   199    1
   195   143   144    1
   196   143   200    1
   197   143   201    1
   198   144   145    1
   199   144   202    1
   200   144   203    1
   201   145   146    1
   202   145   204    1
   203   145   205    1
   204   146   147    1
   205   146   206    1
   206   146   207    1
   207   147   208    1
   208   147   209    1
   209   147   210    1
   210   148   149    1
   211   148   211    1
   212   148   212    1
   213   149   150    1
   214   149   213    1
   215   149   214    1
   216   150   151    1
   217   150   215    1
   218   150   216    1
   219   151   152    1
   220   151   217    1
   221   151   218    1
   222   152   153    1
   223   152   219    1
   224   152   220    1
   225   153   154    1
   226   153   221    1
   227   153   222    1
   228   154   155    1
   229   154   223    1
   230   154   224    1
   231   155   225    1
   232   155   226    1
   233   155   227    1
   234   228   229    1
   235   228   269    1
   236   228   270    1
   237   228   271    1
   238   229   230    1
   239   229   272    1
   240   229   273    1
   241   230   231    1
   242   230   274    1
   243   230   275    1
   244   231   232    1
   245   231   276    1
   246   231   277    1
   247   232   233    1
   248   232   278    1
   249   232   279    1
   250   233   234    1
   251   233   280    1
   252   233   281    1
   253   234   235    1
   254   234   282    1
   255   234   283    1
   256   235   236    1
   257   235   284    1
   258   235   285    1
   259   236   237    1
   260   236   245    1
   261   237   238    1
   262   237   286    1
   263   237   287    1
   264   238   239    1
   265   238   288    1
   266   238   289    1
   267   239   240    1
   268   239   290    1
   269   239   291    1
   270   240   241    1
   271   240   292    1
   272   240   293    1
   273   241   242    1
   274   241   294    1
   275   241   295    1
   276   242   243    1
   277   242   296    1
   278   242   297    1
   279   243   244    1
   280   243   298    1
   281   243   299    1
   282   244   300    1
   283   244   301    1
   284   244   302    1
   285   245   246    2
   286   245   247    1
   287   247   248    1
   288   247   303    1
   289   247   304    1
   290   248   249    1
   291   249   250    1
   292   249   305    1
   293   249   306    1
   294   250   251    2
   295   250   252    1
   296   252   253    1
   297   252   261    1
   298   253   254    1
   299   253   307    1
   300   253   308    1
   301   254   255    1
   302   254   309    1
   303   254   310    1
   304   255   256    1
   305   255   311    1
   306   255   312    1
   307   256   257    1
   308   256   313    1
   309   256   314    1
   310   257   258    1
   311   257   315    1
   312   257   316    1
   313   258   259    1
   314   258   317    1
   315   258   318    1
   316   259   260    1
   317   259   319    1
   318   259   320    1
   319   260   321    1
   320   260   322    1
   321   260   323    1
   322   261   262    1
   323   261   324    1
   324   261   325    1
   325   262   263    1
   326   262   326    1
   327   262   327    1
   328   263   264    1
   329   263   328    1
   330   263   329    1
   331   264   265    1
   332   264   330    1
   333   264   331    1
   334   265   266    1
   335   265   332    1
   336   265   333    1
   337   266   267    1
   338   266   334    1
   339   266   335    1
   340   267   268    1
   341   267   336    1
   342   267   337    1
   343   268   338    1
   344   268   339    1
   345   268   340    1
@<TRIPOS>SUBSTRUCTURE
     1 RES1      340 GROUP             0 ****  ****    0  
