@<TRIPOS>MOLECULE
capped_square_antiprismatic_0_nunpairedes_0_charge_2 Charge: 2 Unpaired_Electrons: 7 XTB_Unpaired_Electrons: 0 XTB_Charge: 2
    66    75     1     0     0
SMALL
NoCharges
****
Generated from Architector

@<TRIPOS>ATOM
     1 Gd1      -0.3608   -1.1176    0.1964   Gd        1 RES1   0.0000
     2 C1       -1.3404   -3.4268    3.6740   C.3       1 RES1   0.0000
     3 C2       -1.2327   -4.7235    2.8784   C.3       1 RES1   0.0000
     4 C3       -0.8365   -4.5038    1.4164   C.3       1 RES1   0.0000
     5 C4        0.5476   -3.9883    1.1076   C.ar      1 RES1   0.0000
     6 N1        0.5615   -3.1757    0.0618   N.ar      1 RES1   0.0000
     7 N2        1.5941   -2.3887   -0.2538   N.ar      1 RES1   0.0000
     8 C5        2.5834   -2.3689    0.6598   C.ar      1 RES1   0.0000
     9 C6        3.0027   -1.0133    1.1384   C.ar      1 RES1   0.0000
    10 C7        4.1561   -0.3486    1.5240   C.ar      1 RES1   0.0000
    11 C8        3.9939    0.8220    2.2708   C.ar      1 RES1   0.0000
    12 C9        2.7440    1.2099    2.7579   C.ar      1 RES1   0.0000
    13 C10       1.6411    0.4728    2.3468   C.ar      1 RES1   0.0000
    14 C11       0.2202    0.4416    2.7506   C.ar      1 RES1   0.0000
    15 N3       -0.3411   -0.7609    2.4404   N.ar      1 RES1   0.0000
    16 N4       -1.6235   -0.6867    2.0741   N.ar      1 RES1   0.0000
    17 C12      -2.3564    0.3804    2.2771   C.ar      1 RES1   0.0000
    18 C13      -3.5250    0.6330    1.3954   C.3       1 RES1   0.0000
    19 C14      -3.7452   -0.4323    0.3057   C.3       1 RES1   0.0000
    20 C15      -4.1744   -1.8091    0.8342   C.3       1 RES1   0.0000
    21 C16      -1.8371    1.2409    3.3256   C.ar      1 RES1   0.0000
    22 C17      -2.6219    1.6761    4.4866   C.3       1 RES1   0.0000
    23 C18      -2.9015    0.3631    5.2803   C.3       1 RES1   0.0000
    24 C19      -4.1116   -0.4054    4.7683   C.3       1 RES1   0.0000
    25 N5       -0.5323    1.3344    3.3335   N.ar      1 RES1   0.0000
    26 N6        1.7985   -0.5246    1.4590   N.ar      1 RES1   0.0000
    27 N7        2.7568   -3.3688    1.4901   N.ar      1 RES1   0.0000
    28 C20       1.8339   -4.2842    1.6963   C.ar      1 RES1   0.0000
    29 C21       2.1876   -5.4248    2.5688   C.3       1 RES1   0.0000
    30 C22       2.9089   -4.9695    3.8685   C.3       1 RES1   0.0000
    31 C23       2.0435   -4.1477    4.8122   C.3       1 RES1   0.0000
    32 H1       -1.6007   -3.6423    4.7094   H         1 RES1   0.0000
    33 H2       -2.1231   -2.7878    3.2621   H         1 RES1   0.0000
    34 H3       -0.4088   -2.8596    3.6710   H         1 RES1   0.0000
    35 H4       -2.2095   -5.2065    2.8683   H         1 RES1   0.0000
    36 H5       -0.5394   -5.4075    3.3605   H         1 RES1   0.0000
    37 H6       -1.5509   -3.7755    0.9674   H         1 RES1   0.0000
    38 H7       -0.9607   -5.4445    0.8672   H         1 RES1   0.0000
    39 H8        5.1413   -0.6982    1.2634   H         1 RES1   0.0000
    40 H9        4.8665    1.4093    2.5281   H         1 RES1   0.0000
    41 H10       2.6211    2.0366    3.4391   H         1 RES1   0.0000
    42 H11      -3.3224    1.5997    0.9136   H         1 RES1   0.0000
    43 H12      -4.4215    0.7775    2.0010   H         1 RES1   0.0000
    44 H13      -2.8105   -0.5587   -0.3258   H         1 RES1   0.0000
    45 H14      -4.5206   -0.0521   -0.3623   H         1 RES1   0.0000
    46 H15      -3.4893   -2.1717    1.6020   H         1 RES1   0.0000
    47 H16      -4.1922   -2.5238    0.0114   H         1 RES1   0.0000
    48 H17      -5.1743   -1.7796    1.2657   H         1 RES1   0.0000
    49 H18      -3.5643    2.1509    4.2217   H         1 RES1   0.0000
    50 H19      -2.0098    2.3540    5.0796   H         1 RES1   0.0000
    51 H20      -3.0463    0.6317    6.3261   H         1 RES1   0.0000
    52 H21      -2.0181   -0.2799    5.2291   H         1 RES1   0.0000
    53 H22      -4.9951    0.2276    4.7530   H         1 RES1   0.0000
    54 H23      -4.3142   -1.2476    5.4251   H         1 RES1   0.0000
    55 H24      -3.9490   -0.8075    3.7693   H         1 RES1   0.0000
    56 H25       2.9139   -6.0464    2.0300   H         1 RES1   0.0000
    57 H26       1.3168   -6.0355    2.8097   H         1 RES1   0.0000
    58 H27       3.7944   -4.3950    3.5982   H         1 RES1   0.0000
    59 H28       3.2369   -5.8718    4.3845   H         1 RES1   0.0000
    60 H29       1.7538   -3.2003    4.3674   H         1 RES1   0.0000
    61 H30       2.6100   -3.9201    5.7094   H         1 RES1   0.0000
    62 H31       1.1426   -4.6748    5.1083   H         1 RES1   0.0000
    63 N8        0.2470    0.8128   -0.7578   N.3       1 RES1   0.0000
    64 O1        1.2557    1.4263   -0.7938   O.2       1 RES1   0.0000
    65 O2       -0.5833    0.9794    0.1645   O.co2     1 RES1   0.0000
    66 O3       -0.0305   -0.1029   -1.5426   O.co2     1 RES1   0.0000
@<TRIPOS>BOND
     1     1     6    1
     2     1     7    1
     3     1    15    1
     4     1    16    1
     5     1    25    1
     6     1    26    1
     7     1    27    1
     8     1    65    1
     9     1    66    1
    10     2     3    1
    11     2    32    1
    12     2    33    1
    13     2    34    1
    14     3     4    1
    15     3    35    1
    16     3    36    1
    17     4     5    1
    18     4    37    1
    19     4    38    1
    20     5     6    1
    21     5    28    2
    22     6     7    2
    23     7     8    1
    24     8     9    1
    25     8    27    2
    26     9    10    1
    27     9    26    2
    28    10    11    2
    29    10    39    1
    30    11    12    1
    31    11    40    1
    32    12    13    2
    33    12    41    1
    34    13    14    1
    35    13    26    1
    36    14    15    1
    37    14    25    2
    38    15    16    2
    39    16    17    1
    40    17    18    1
    41    17    21    2
    42    18    19    1
    43    18    42    1
    44    18    43    1
    45    19    20    1
    46    19    44    1
    47    19    45    1
    48    20    46    1
    49    20    47    1
    50    20    48    1
    51    21    22    1
    52    21    25    1
    53    22    23    1
    54    22    49    1
    55    22    50    1
    56    23    24    1
    57    23    51    1
    58    23    52    1
    59    24    53    1
    60    24    54    1
    61    24    55    1
    62    27    28    1
    63    28    29    1
    64    29    30    1
    65    29    56    1
    66    29    57    1
    67    30    31    1
    68    30    58    1
    69    30    59    1
    70    31    60    1
    71    31    61    1
    72    31    62    1
    73    63    64    2
    74    63    65    1
    75    63    66    1
@<TRIPOS>SUBSTRUCTURE
     1 RES1       66 GROUP             0 ****  ****    0  
