@<TRIPOS>MOLECULE
am_c3_9H2O_c0_0_nunpairedes_0_charge_3 Charge: 3 Unpaired_Electrons: 7 XTB_Unpaired_Electrons: 0 XTB_Charge: 3
   196   201     1     0     0
SMALL
NoCharges
****
Generated from Architector

@<TRIPOS>ATOM
     1 Gd1       0.0101   -0.0388   -0.1809   Gd        1 RES1   0.0000
     2 C1        1.0298    4.4512   -2.1597   C.3       1 RES1   0.0000
     3 C2       -0.0493    4.9824   -3.0947   C.3       1 RES1   0.0000
     4 C3       -0.1305    6.5059   -2.9924   C.3       1 RES1   0.0000
     5 C4       -1.3686    4.2081   -2.8941   C.3       1 RES1   0.0000
     6 N1       -1.8585    4.0967   -1.5213   N.am      1 RES1   0.0000
     7 C5       -2.5727    5.2546   -0.9960   C.3       1 RES1   0.0000
     8 C6       -4.0793    5.3836   -1.3281   C.3       1 RES1   0.0000
     9 C7       -4.3820    5.6171   -2.8078   C.3       1 RES1   0.0000
    10 C8       -4.9142    4.2109   -0.8170   C.3       1 RES1   0.0000
    11 C9       -1.6046    2.9957   -0.8216   C.2       1 RES1   0.0000
    12 O1       -0.9862    2.0063   -1.2627   O.2       1 RES1   0.0000
    13 C10      -2.1258    2.9133    0.6246   C.3       1 RES1   0.0000
    14 O2       -1.6832    1.6847    1.1887   O.3       1 RES1   0.0000
    15 C11      -2.5494    1.1573    2.1954   C.3       1 RES1   0.0000
    16 C12      -2.8352   -0.2993    1.8160   C.2       1 RES1   0.0000
    17 O3       -2.0213   -0.8373    1.0365   O.2       1 RES1   0.0000
    18 N2       -3.9428   -0.8951    2.2535   N.am      1 RES1   0.0000
    19 C13      -4.8861   -0.2775    3.1894   C.3       1 RES1   0.0000
    20 C14      -4.3755    0.1259    4.5890   C.3       1 RES1   0.0000
    21 C15      -5.5360    0.7822    5.3441   C.3       1 RES1   0.0000
    22 C16      -3.8295   -1.0517    5.3958   C.3       1 RES1   0.0000
    23 C17      -4.4490   -2.0254    1.4644   C.3       1 RES1   0.0000
    24 C18      -4.5856   -3.4285    2.0939   C.3       1 RES1   0.0000
    25 C19      -5.6279   -3.5286    3.2034   C.3       1 RES1   0.0000
    26 C20      -3.2413   -4.0145    2.5422   C.3       1 RES1   0.0000
    27 H1        2.0003    4.8548   -2.4446   H         1 RES1   0.0000
    28 H2        0.8306    4.7596   -1.1325   H         1 RES1   0.0000
    29 H3        1.0436    3.3644   -2.2085   H         1 RES1   0.0000
    30 H4        0.2439    4.7488   -4.1234   H         1 RES1   0.0000
    31 H5       -0.1442    6.8494   -1.9601   H         1 RES1   0.0000
    32 H6        0.7556    6.9371   -3.4550   H         1 RES1   0.0000
    33 H7       -0.9958    6.9025   -3.5154   H         1 RES1   0.0000
    34 H8       -2.1424    4.6837   -3.4877   H         1 RES1   0.0000
    35 H9       -1.2155    3.1902   -3.2606   H         1 RES1   0.0000
    36 H10      -2.4699    5.2839    0.0890   H         1 RES1   0.0000
    37 H11      -2.0764    6.1386   -1.3966   H         1 RES1   0.0000
    38 H12      -4.3928    6.2824   -0.7843   H         1 RES1   0.0000
    39 H13      -4.2547    4.7072   -3.3925   H         1 RES1   0.0000
    40 H14      -5.4191    5.9288   -2.9065   H         1 RES1   0.0000
    41 H15      -3.7640    6.4099   -3.2219   H         1 RES1   0.0000
    42 H16      -4.5420    3.2687   -1.2222   H         1 RES1   0.0000
    43 H17      -4.9180    4.1792    0.2717   H         1 RES1   0.0000
    44 H18      -5.9467    4.3319   -1.1395   H         1 RES1   0.0000
    45 H19      -1.7629    3.7520    1.2376   H         1 RES1   0.0000
    46 H20      -3.2199    2.9508    0.6016   H         1 RES1   0.0000
    47 H21      -2.0485    1.2204    3.1690   H         1 RES1   0.0000
    48 H22      -3.4896    1.7243    2.2463   H         1 RES1   0.0000
    49 H23      -5.3340    0.6065    2.7195   H         1 RES1   0.0000
    50 H24      -5.6792   -1.0072    3.3387   H         1 RES1   0.0000
    51 H25      -3.5851    0.8755    4.5102   H         1 RES1   0.0000
    52 H26      -6.3689    0.0935    5.4619   H         1 RES1   0.0000
    53 H27      -5.2061    1.0872    6.3341   H         1 RES1   0.0000
    54 H28      -5.8835    1.6718    4.8248   H         1 RES1   0.0000
    55 H29      -4.6399   -1.7009    5.7158   H         1 RES1   0.0000
    56 H30      -3.1171   -1.6309    4.8136   H         1 RES1   0.0000
    57 H31      -3.3308   -0.6900    6.2942   H         1 RES1   0.0000
    58 H32      -5.4365   -1.7226    1.0995   H         1 RES1   0.0000
    59 H33      -3.7780   -2.1115    0.6043   H         1 RES1   0.0000
    60 H34      -4.9640   -4.0411    1.2655   H         1 RES1   0.0000
    61 H35      -5.2687   -3.0932    4.1298   H         1 RES1   0.0000
    62 H36      -6.5631   -3.0638    2.9059   H         1 RES1   0.0000
    63 H37      -5.8401   -4.5773    3.3911   H         1 RES1   0.0000
    64 H38      -2.5418   -3.2309    2.8239   H         1 RES1   0.0000
    65 H39      -3.3760   -4.6683    3.3984   H         1 RES1   0.0000
    66 H40      -2.8005   -4.6225    1.7583   H         1 RES1   0.0000
    67 C21       5.0525    2.4495    4.6457   C.3       1 RES1   0.0000
    68 C22       4.1938    3.3826    3.7944   C.3       1 RES1   0.0000
    69 C23       4.7383    3.4254    2.3687   C.3       1 RES1   0.0000
    70 C24       2.6762    3.0912    3.8821   C.3       1 RES1   0.0000
    71 N3        2.1770    1.8078    3.3880   N.am      1 RES1   0.0000
    72 C25       2.2843    0.6580    4.2879   C.3       1 RES1   0.0000
    73 C26       1.0675    0.3121    5.1745   C.3       1 RES1   0.0000
    74 C27       0.1040   -0.6652    4.5034   C.3       1 RES1   0.0000
    75 C28       0.3272    1.5500    5.6633   C.3       1 RES1   0.0000
    76 C29       1.5881    1.6347    2.2150   C.2       1 RES1   0.0000
    77 O4        0.9953    0.5839    1.8964   O.2       1 RES1   0.0000
    78 C30       1.6318    2.7448    1.1516   C.3       1 RES1   0.0000
    79 O5        1.5116    2.1213   -0.1213   O.3       1 RES1   0.0000
    80 C31       2.7436    2.0065   -0.8356   C.3       1 RES1   0.0000
    81 C32       2.5032    0.9777   -1.9451   C.2       1 RES1   0.0000
    82 O6        1.6152    0.1244   -1.7458   O.2       1 RES1   0.0000
    83 N4        3.2665    0.9728   -3.0298   N.am      1 RES1   0.0000
    84 C33       3.8970    2.1787   -3.5776   C.3       1 RES1   0.0000
    85 C34       5.2060    2.6938   -2.9507   C.3       1 RES1   0.0000
    86 C35       6.4335    1.9190   -3.4216   C.3       1 RES1   0.0000
    87 C36       5.3652    4.1535   -3.3813   C.3       1 RES1   0.0000
    88 C37       3.0952   -0.1787   -3.9230   C.3       1 RES1   0.0000
    89 C38       3.4706   -1.5282   -3.2906   C.3       1 RES1   0.0000
    90 C39       3.1482   -2.6340   -4.2908   C.3       1 RES1   0.0000
    91 C40       4.9536   -1.5689   -2.9367   C.3       1 RES1   0.0000
    92 H41       6.0580    2.8567    4.7165   H         1 RES1   0.0000
    93 H42       4.6635    2.3673    5.6574   H         1 RES1   0.0000
    94 H43       5.1282    1.4592    4.2013   H         1 RES1   0.0000
    95 H44       4.2871    4.3885    4.2166   H         1 RES1   0.0000
    96 H45       4.5943    2.4677    1.8718   H         1 RES1   0.0000
    97 H46       4.2715    4.2230    1.7935   H         1 RES1   0.0000
    98 H47       5.8061    3.6318    2.3921   H         1 RES1   0.0000
    99 H48       2.4106    3.1285    4.9402   H         1 RES1   0.0000
   100 H49       2.1356    3.8923    3.3732   H         1 RES1   0.0000
   101 H50       2.5125   -0.2060    3.6598   H         1 RES1   0.0000
   102 H51       3.1320    0.8673    4.9332   H         1 RES1   0.0000
   103 H52       1.4833   -0.1992    6.0489   H         1 RES1   0.0000
   104 H53      -0.4325   -0.1963    3.6809   H         1 RES1   0.0000
   105 H54       0.6498   -1.5190    4.1146   H         1 RES1   0.0000
   106 H55      -0.6096   -1.0231    5.2394   H         1 RES1   0.0000
   107 H56      -0.0523    2.1394    4.8315   H         1 RES1   0.0000
   108 H57      -0.5154    1.2530    6.2774   H         1 RES1   0.0000
   109 H58       0.9698    2.1776    6.2719   H         1 RES1   0.0000
   110 H59       0.7496    3.3856    1.2753   H         1 RES1   0.0000
   111 H60       2.5326    3.3581    1.2018   H         1 RES1   0.0000
   112 H61       3.0555    2.9871   -1.2101   H         1 RES1   0.0000
   113 H62       3.5412    1.5942   -0.1985   H         1 RES1   0.0000
   114 H63       4.0968    1.9830   -4.6314   H         1 RES1   0.0000
   115 H64       3.1524    2.9791   -3.5342   H         1 RES1   0.0000
   116 H65       5.1441    2.6346   -1.8593   H         1 RES1   0.0000
   117 H66       6.5266    1.9858   -4.5020   H         1 RES1   0.0000
   118 H67       7.3314    2.3573   -2.9919   H         1 RES1   0.0000
   119 H68       6.3937    0.8738   -3.1361   H         1 RES1   0.0000
   120 H69       5.4127    4.2112   -4.4660   H         1 RES1   0.0000
   121 H70       4.5386    4.7727   -3.0393   H         1 RES1   0.0000
   122 H71       6.2879    4.5674   -2.9884   H         1 RES1   0.0000
   123 H72       2.0470   -0.2057   -4.2378   H         1 RES1   0.0000
   124 H73       3.7251   -0.0196   -4.7953   H         1 RES1   0.0000
   125 H74       2.8665   -1.6725   -2.3884   H         1 RES1   0.0000
   126 H75       3.7234   -2.4968   -5.2014   H         1 RES1   0.0000
   127 H76       3.4095   -3.6023   -3.8757   H         1 RES1   0.0000
   128 H77       2.0921   -2.6386   -4.5455   H         1 RES1   0.0000
   129 H78       5.5531   -1.4005   -3.8276   H         1 RES1   0.0000
   130 H79       5.2018   -0.8151   -2.1939   H         1 RES1   0.0000
   131 H80       5.2312   -2.5416   -2.5394   H         1 RES1   0.0000
   132 C41      -3.5311    0.3048   -2.1996   C.3       1 RES1   0.0000
   133 C42      -4.1322   -0.7741   -3.0989   C.3       1 RES1   0.0000
   134 C43      -5.4687   -1.2529   -2.5361   C.3       1 RES1   0.0000
   135 C44      -3.1579   -1.9287   -3.4055   C.3       1 RES1   0.0000
   136 N5       -2.7299   -2.7738   -2.2864   N.am      1 RES1   0.0000
   137 C45      -3.5365   -3.9589   -2.0142   C.3       1 RES1   0.0000
   138 C46      -3.2743   -5.2547   -2.8200   C.3       1 RES1   0.0000
   139 C47      -3.3737   -5.1031   -4.3363   C.3       1 RES1   0.0000
   140 C48      -1.9626   -5.9424   -2.4513   C.3       1 RES1   0.0000
   141 C49      -1.6637   -2.3972   -1.5924   C.2       1 RES1   0.0000
   142 O7       -1.0763   -1.3133   -1.8012   O.2       1 RES1   0.0000
   143 C50      -1.0836   -3.3063   -0.5000   C.3       1 RES1   0.0000
   144 O8       -0.1277   -2.5238    0.1935   O.3       1 RES1   0.0000
   145 C51       0.6432   -3.2378    1.1454   C.3       1 RES1   0.0000
   146 C52       2.0210   -2.5485    1.1166   C.2       1 RES1   0.0000
   147 O9        2.0873   -1.4858    0.4838   O.2       1 RES1   0.0000
   148 N6        3.0768   -3.1617    1.6601   N.am      1 RES1   0.0000
   149 C53       2.9402   -4.3380    2.5259   C.3       1 RES1   0.0000
   150 C54       2.3017   -4.1031    3.9088   C.3       1 RES1   0.0000
   151 C55       2.0810   -5.4513    4.5971   C.3       1 RES1   0.0000
   152 C56       3.1823   -3.2281    4.7943   C.3       1 RES1   0.0000
   153 C57       4.3942   -2.9393    1.0321   C.3       1 RES1   0.0000
   154 C58       5.3106   -1.7736    1.4421   C.3       1 RES1   0.0000
   155 C59       5.7038   -1.7524    2.9135   C.3       1 RES1   0.0000
   156 C60       4.7725   -0.4156    1.0052   C.3       1 RES1   0.0000
   157 H81      -4.2226    1.1439   -2.1267   H         1 RES1   0.0000
   158 H82      -3.3534   -0.0789   -1.1927   H         1 RES1   0.0000
   159 H83      -2.5908    0.6666   -2.6120   H         1 RES1   0.0000
   160 H84      -4.3243   -0.3192   -4.0769   H         1 RES1   0.0000
   161 H85      -5.3537   -1.6362   -1.5240   H         1 RES1   0.0000
   162 H86      -6.1787   -0.4298   -2.4994   H         1 RES1   0.0000
   163 H87      -5.9030   -2.0237   -3.1667   H         1 RES1   0.0000
   164 H88      -3.6411   -2.5849   -4.1266   H         1 RES1   0.0000
   165 H89      -2.2575   -1.5054   -3.8540   H         1 RES1   0.0000
   166 H90      -3.4416   -4.2121   -0.9574   H         1 RES1   0.0000
   167 H91      -4.5729   -3.6726   -2.1968   H         1 RES1   0.0000
   168 H92      -4.0897   -5.9159   -2.5031   H         1 RES1   0.0000
   169 H93      -2.5573   -4.5040   -4.7370   H         1 RES1   0.0000
   170 H94      -3.3139   -6.0920   -4.7859   H         1 RES1   0.0000
   171 H95      -4.3254   -4.6699   -4.6355   H         1 RES1   0.0000
   172 H96      -1.1049   -5.3653   -2.7929   H         1 RES1   0.0000
   173 H97      -1.9012   -6.1071   -1.3779   H         1 RES1   0.0000
   174 H98      -1.9224   -6.9170   -2.9322   H         1 RES1   0.0000
   175 H99      -1.8506   -3.6559    0.1991   H         1 RES1   0.0000
   176 H100     -0.5948   -4.1728   -0.9686   H         1 RES1   0.0000
   177 H101      0.1633   -3.2057    2.1264   H         1 RES1   0.0000
   178 H102      0.7552   -4.2838    0.8417   H         1 RES1   0.0000
   179 H103      2.3755   -5.1211    2.0087   H         1 RES1   0.0000
   180 H104      3.9427   -4.7266    2.6961   H         1 RES1   0.0000
   181 H105      1.3284   -3.6158    3.7926   H         1 RES1   0.0000
   182 H106      3.0217   -5.9883    4.6882   H         1 RES1   0.0000
   183 H107      1.6901   -5.2894    5.5980   H         1 RES1   0.0000
   184 H108      1.3691   -6.0692    4.0569   H         1 RES1   0.0000
   185 H109      4.1739   -3.6631    4.8812   H         1 RES1   0.0000
   186 H110      3.2667   -2.2237    4.3897   H         1 RES1   0.0000
   187 H111      2.7652   -3.1565    5.7954   H         1 RES1   0.0000
   188 H112      4.9612   -3.8583    1.1719   H         1 RES1   0.0000
   189 H113      4.2076   -2.8281   -0.0386   H         1 RES1   0.0000
   190 H114      6.2212   -1.9622    0.8623   H         1 RES1   0.0000
   191 H115      4.9059   -1.3460    3.5285   H         1 RES1   0.0000
   192 H116      5.9477   -2.7497    3.2646   H         1 RES1   0.0000
   193 H117      6.5819   -1.1261    3.0496   H         1 RES1   0.0000
   194 H118      3.9114   -0.1336    1.6093   H         1 RES1   0.0000
   195 H119      5.5519    0.3357    1.1144   H         1 RES1   0.0000
   196 H120      4.4672   -0.4610   -0.0373   H         1 RES1   0.0000
@<TRIPOS>BOND
     1     1    12    1
     2     1    14    1
     3     1    17    1
     4     1    77    1
     5     1    79    1
     6     1    82    1
     7     1   142    1
     8     1   144    1
     9     1   147    1
    10     2     3    1
    11     2    27    1
    12     2    28    1
    13     2    29    1
    14     3     4    1
    15     3     5    1
    16     3    30    1
    17     4    31    1
    18     4    32    1
    19     4    33    1
    20     5     6    1
    21     5    34    1
    22     5    35    1
    23     6     7    1
    24     6    11    1
    25     7     8    1
    26     7    36    1
    27     7    37    1
    28     8     9    1
    29     8    10    1
    30     8    38    1
    31     9    39    1
    32     9    40    1
    33     9    41    1
    34    10    42    1
    35    10    43    1
    36    10    44    1
    37    11    12    2
    38    11    13    1
    39    13    14    1
    40    13    45    1
    41    13    46    1
    42    14    15    1
    43    15    16    1
    44    15    47    1
    45    15    48    1
    46    16    17    2
    47    16    18    1
    48    18    19    1
    49    18    23    1
    50    19    20    1
    51    19    49    1
    52    19    50    1
    53    20    21    1
    54    20    22    1
    55    20    51    1
    56    21    52    1
    57    21    53    1
    58    21    54    1
    59    22    55    1
    60    22    56    1
    61    22    57    1
    62    23    24    1
    63    23    58    1
    64    23    59    1
    65    24    25    1
    66    24    26    1
    67    24    60    1
    68    25    61    1
    69    25    62    1
    70    25    63    1
    71    26    64    1
    72    26    65    1
    73    26    66    1
    74    67    68    1
    75    67    92    1
    76    67    93    1
    77    67    94    1
    78    68    69    1
    79    68    70    1
    80    68    95    1
    81    69    96    1
    82    69    97    1
    83    69    98    1
    84    70    71    1
    85    70    99    1
    86    70   100    1
    87    71    72    1
    88    71    76    1
    89    72    73    1
    90    72   101    1
    91    72   102    1
    92    73    74    1
    93    73    75    1
    94    73   103    1
    95    74   104    1
    96    74   105    1
    97    74   106    1
    98    75   107    1
    99    75   108    1
   100    75   109    1
   101    76    77    2
   102    76    78    1
   103    78    79    1
   104    78   110    1
   105    78   111    1
   106    79    80    1
   107    80    81    1
   108    80   112    1
   109    80   113    1
   110    81    82    2
   111    81    83    1
   112    83    84    1
   113    83    88    1
   114    84    85    1
   115    84   114    1
   116    84   115    1
   117    85    86    1
   118    85    87    1
   119    85   116    1
   120    86   117    1
   121    86   118    1
   122    86   119    1
   123    87   120    1
   124    87   121    1
   125    87   122    1
   126    88    89    1
   127    88   123    1
   128    88   124    1
   129    89    90    1
   130    89    91    1
   131    89   125    1
   132    90   126    1
   133    90   127    1
   134    90   128    1
   135    91   129    1
   136    91   130    1
   137    91   131    1
   138   132   133    1
   139   132   157    1
   140   132   158    1
   141   132   159    1
   142   133   134    1
   143   133   135    1
   144   133   160    1
   145   134   161    1
   146   134   162    1
   147   134   163    1
   148   135   136    1
   149   135   164    1
   150   135   165    1
   151   136   137    1
   152   136   141    1
   153   137   138    1
   154   137   166    1
   155   137   167    1
   156   138   139    1
   157   138   140    1
   158   138   168    1
   159   139   169    1
   160   139   170    1
   161   139   171    1
   162   140   172    1
   163   140   173    1
   164   140   174    1
   165   141   142    2
   166   141   143    1
   167   143   144    1
   168   143   175    1
   169   143   176    1
   170   144   145    1
   171   145   146    1
   172   145   177    1
   173   145   178    1
   174   146   147    2
   175   146   148    1
   176   148   149    1
   177   148   153    1
   178   149   150    1
   179   149   179    1
   180   149   180    1
   181   150   151    1
   182   150   152    1
   183   150   181    1
   184   151   182    1
   185   151   183    1
   186   151   184    1
   187   152   185    1
   188   152   186    1
   189   152   187    1
   190   153   154    1
   191   153   188    1
   192   153   189    1
   193   154   155    1
   194   154   156    1
   195   154   190    1
   196   155   191    1
   197   155   192    1
   198   155   193    1
   199   156   194    1
   200   156   195    1
   201   156   196    1
@<TRIPOS>SUBSTRUCTURE
     1 RES1      196 GROUP             0 ****  ****    0  
