@<TRIPOS>MOLECULE
am_c3_9H2O_c0_0_nunpairedes_0_charge_3 Charge: 3 Unpaired_Electrons: 7 XTB_Unpaired_Electrons: 0 XTB_Charge: 3
   104   119     1     0     0
SMALL
NoCharges
****
Generated from Architector

@<TRIPOS>ATOM
     1 Gd1       0.0793   -0.0557    0.0103   Gd        1 RES1   0.0000
     2 O1        0.8576   -2.1359    0.6046   O.2       1 RES1   0.0000
     3 C1        1.6357   -2.3230    1.5700   C.2       1 RES1   0.0000
     4 C2        2.3665   -1.1026    2.0908   C.ar      1 RES1   0.0000
     5 C3        3.3545   -1.0365    3.0786   C.ar      1 RES1   0.0000
     6 C4        3.9302    0.1878    3.3944   C.ar      1 RES1   0.0000
     7 Cl1       5.1533    0.2617    4.5883   Cl        1 RES1   0.0000
     8 C5        3.4983    1.3607    2.7222   C.ar      1 RES1   0.0000
     9 C6        4.0283    2.6583    2.9561   C.ar      1 RES1   0.0000
    10 C7        3.5769    3.7375    2.2665   C.ar      1 RES1   0.0000
    11 C8        2.5427    3.6278    1.2991   C.ar      1 RES1   0.0000
    12 C9        2.0398    4.7172    0.5377   C.ar      1 RES1   0.0000
    13 Cl2       2.6772    6.2870    0.7241   Cl        1 RES1   0.0000
    14 C10       1.0092    4.5083   -0.3708   C.ar      1 RES1   0.0000
    15 C11       0.4603    3.2278   -0.4882   C.ar      1 RES1   0.0000
    16 C12      -0.6944    2.7964   -1.3590   C.2       1 RES1   0.0000
    17 O2       -0.9092    1.5606   -1.4433   O.2       1 RES1   0.0000
    18 N1       -1.4857    3.6200   -2.0271   N.am      1 RES1   0.0000
    19 C13      -1.5732    5.0739   -2.0726   C.3       1 RES1   0.0000
    20 C14      -2.9520    5.3402   -2.6849   C.3       1 RES1   0.0000
    21 C15      -3.1208    4.1673   -3.6450   C.3       1 RES1   0.0000
    22 C16      -2.5419    3.0113   -2.8411   C.3       1 RES1   0.0000
    23 N2        0.9486    2.1931    0.1993   N.ar      1 RES1   0.0000
    24 C17       1.9658    2.3604    1.0554   C.ar      1 RES1   0.0000
    25 C18       2.4754    1.1956    1.7595   C.ar      1 RES1   0.0000
    26 N3        1.9548   -0.0014    1.4634   N.ar      1 RES1   0.0000
    27 N4        1.7541   -3.5468    2.0713   N.am      1 RES1   0.0000
    28 C19       2.5824   -4.1023    3.1376   C.3       1 RES1   0.0000
    29 C20       2.1113   -5.5559    3.2641   C.3       1 RES1   0.0000
    30 C21       1.6638   -5.8898    1.8491   C.3       1 RES1   0.0000
    31 C22       0.9769   -4.6053    1.4216   C.3       1 RES1   0.0000
    32 H1        3.6860   -1.9130    3.6027   H         1 RES1   0.0000
    33 H2        4.8076    2.7681    3.6928   H         1 RES1   0.0000
    34 H3        4.0058    4.7083    2.4404   H         1 RES1   0.0000
    35 H4        0.6608    5.3325   -0.9702   H         1 RES1   0.0000
    36 H5       -0.7922    5.4692   -2.7302   H         1 RES1   0.0000
    37 H6       -1.4828    5.5167   -1.0797   H         1 RES1   0.0000
    38 H7       -3.0116    6.3070   -3.1792   H         1 RES1   0.0000
    39 H8       -3.7157    5.2988   -1.9091   H         1 RES1   0.0000
    40 H9       -2.5319    4.3258   -4.5473   H         1 RES1   0.0000
    41 H10      -4.1520    3.9865   -3.9373   H         1 RES1   0.0000
    42 H11      -2.1217    2.2070   -3.4501   H         1 RES1   0.0000
    43 H12      -3.2810    2.5612   -2.1699   H         1 RES1   0.0000
    44 H13       2.4631   -3.5667    4.0836   H         1 RES1   0.0000
    45 H14       3.6315   -4.0747    2.8287   H         1 RES1   0.0000
    46 H15       1.2712   -5.6107    3.9551   H         1 RES1   0.0000
    47 H16       2.8963   -6.2128    3.6273   H         1 RES1   0.0000
    48 H17       0.9986   -6.7434    1.8030   H         1 RES1   0.0000
    49 H18       2.5213   -6.0808    1.2081   H         1 RES1   0.0000
    50 H19      -0.0514   -4.5450    1.7930   H         1 RES1   0.0000
    51 H20       0.9595   -4.4439    0.3422   H         1 RES1   0.0000
    52 O3       -0.7026   -0.4154    2.2489   O.2       1 RES1   0.0000
    53 C23      -1.8691   -0.7829    2.5310   C.2       1 RES1   0.0000
    54 C24      -2.7289   -1.2477    1.3831   C.ar      1 RES1   0.0000
    55 C25      -4.0151   -1.7864    1.4415   C.ar      1 RES1   0.0000
    56 C26      -4.6697   -2.1277    0.2649   C.ar      1 RES1   0.0000
    57 Cl3      -6.2722   -2.7071    0.3369   Cl        1 RES1   0.0000
    58 C27      -3.9920   -1.9896   -0.9728   C.ar      1 RES1   0.0000
    59 C28      -4.5724   -2.3058   -2.2304   C.ar      1 RES1   0.0000
    60 C29      -3.8716   -2.1715   -3.3863   C.ar      1 RES1   0.0000
    61 C30      -2.5194   -1.7372   -3.3803   C.ar      1 RES1   0.0000
    62 C31      -1.7264   -1.5986   -4.5483   C.ar      1 RES1   0.0000
    63 Cl4      -2.3389   -2.0126   -6.0850   Cl        1 RES1   0.0000
    64 C32      -0.4308   -1.1123   -4.4439   C.ar      1 RES1   0.0000
    65 C33       0.0890   -0.8065   -3.1849   C.ar      1 RES1   0.0000
    66 C34       1.4321   -0.2020   -2.8487   C.2       1 RES1   0.0000
    67 O4        1.7043   -0.0941   -1.6268   O.2       1 RES1   0.0000
    68 N5        2.2980    0.2539   -3.7396   N.am      1 RES1   0.0000
    69 C35       3.5589    0.8109   -3.2401   C.3       1 RES1   0.0000
    70 C36       4.4768    0.8038   -4.4543   C.3       1 RES1   0.0000
    71 C37       3.5024    1.0904   -5.5910   C.3       1 RES1   0.0000
    72 C38       2.2760    0.2620   -5.1978   C.3       1 RES1   0.0000
    73 N6       -0.6277   -1.0021   -2.0772   N.ar      1 RES1   0.0000
    74 C39      -1.8972   -1.4152   -2.1519   C.ar      1 RES1   0.0000
    75 C40      -2.6614   -1.5094   -0.9215   C.ar      1 RES1   0.0000
    76 N7       -2.0827   -1.1144    0.2220   N.ar      1 RES1   0.0000
    77 N8       -2.2501   -0.7373    3.8003   N.am      1 RES1   0.0000
    78 C41      -3.5386   -0.9412    4.4483   C.3       1 RES1   0.0000
    79 C42      -3.3451   -0.3263    5.8374   C.3       1 RES1   0.0000
    80 C43      -1.8773   -0.6186    6.1273   C.3       1 RES1   0.0000
    81 C44      -1.2296   -0.3500    4.7777   C.3       1 RES1   0.0000
    82 H21      -4.5177   -1.9416    2.3778   H         1 RES1   0.0000
    83 H22      -5.5877   -2.6636   -2.2530   H         1 RES1   0.0000
    84 H23      -4.3319   -2.4066   -4.3315   H         1 RES1   0.0000
    85 H24       0.1489   -0.9865   -5.3402   H         1 RES1   0.0000
    86 H25       3.9253    0.2129   -2.4031   H         1 RES1   0.0000
    87 H26       3.3728    1.8267   -2.8740   H         1 RES1   0.0000
    88 H27       4.9232   -0.1825   -4.5739   H         1 RES1   0.0000
    89 H28       5.2797    1.5316   -4.3743   H         1 RES1   0.0000
    90 H29       3.8955    0.8143   -6.5662   H         1 RES1   0.0000
    91 H30       3.2493    2.1502   -5.6106   H         1 RES1   0.0000
    92 H31       2.3834   -0.7627   -5.5658   H         1 RES1   0.0000
    93 H32       1.3615    0.7088   -5.5922   H         1 RES1   0.0000
    94 H33      -3.7431   -2.0123    4.5364   H         1 RES1   0.0000
    95 H34      -4.3480   -0.4512    3.9045   H         1 RES1   0.0000
    96 H35      -4.0179   -0.7483    6.5788   H         1 RES1   0.0000
    97 H36      -3.5075    0.7503    5.7939   H         1 RES1   0.0000
    98 H37      -1.7437   -1.6628    6.4040   H         1 RES1   0.0000
    99 H38      -1.4557    0.0000    6.9146   H         1 RES1   0.0000
   100 H39      -0.3113   -0.9137    4.5971   H         1 RES1   0.0000
   101 H40      -0.9917    0.7100    4.6412   H         1 RES1   0.0000
   102 O5       -1.6700    1.8455    1.2525   O.3       1 RES1   0.0000
   103 H41      -1.4091    2.1035    2.1464   H         1 RES1   0.0000
   104 H42      -2.6320    1.7742    1.2642   H         1 RES1   0.0000
@<TRIPOS>BOND
     1     1     2    1
     2     1    17    1
     3     1    23    1
     4     1    26    1
     5     1    52    1
     6     1    67    1
     7     1    73    1
     8     1    76    1
     9     1   102    1
    10     2     3    2
    11     3     4    1
    12     3    27    1
    13     4     5    1
    14     4    26    2
    15     5     6    2
    16     5    32    1
    17     6     7    1
    18     6     8    1
    19     8     9    1
    20     8    25    2
    21     9    10    2
    22     9    33    1
    23    10    11    1
    24    10    34    1
    25    11    12    1
    26    11    24    2
    27    12    13    1
    28    12    14    2
    29    14    15    1
    30    14    35    1
    31    15    16    1
    32    15    23    2
    33    16    17    2
    34    16    18    1
    35    18    19    1
    36    18    22    1
    37    19    20    1
    38    19    36    1
    39    19    37    1
    40    20    21    1
    41    20    38    1
    42    20    39    1
    43    21    22    1
    44    21    40    1
    45    21    41    1
    46    22    42    1
    47    22    43    1
    48    23    24    1
    49    24    25    1
    50    25    26    1
    51    27    28    1
    52    27    31    1
    53    28    29    1
    54    28    44    1
    55    28    45    1
    56    29    30    1
    57    29    46    1
    58    29    47    1
    59    30    31    1
    60    30    48    1
    61    30    49    1
    62    31    50    1
    63    31    51    1
    64    52    53    2
    65    53    54    1
    66    53    77    1
    67    54    55    1
    68    54    76    2
    69    55    56    2
    70    55    82    1
    71    56    57    1
    72    56    58    1
    73    58    59    1
    74    58    75    2
    75    59    60    2
    76    59    83    1
    77    60    61    1
    78    60    84    1
    79    61    62    1
    80    61    74    2
    81    62    63    1
    82    62    64    2
    83    64    65    1
    84    64    85    1
    85    65    66    1
    86    65    73    2
    87    66    67    2
    88    66    68    1
    89    68    69    1
    90    68    72    1
    91    69    70    1
    92    69    86    1
    93    69    87    1
    94    70    71    1
    95    70    88    1
    96    70    89    1
    97    71    72    1
    98    71    90    1
    99    71    91    1
   100    72    92    1
   101    72    93    1
   102    73    74    1
   103    74    75    1
   104    75    76    1
   105    77    78    1
   106    77    81    1
   107    78    79    1
   108    78    94    1
   109    78    95    1
   110    79    80    1
   111    79    96    1
   112    79    97    1
   113    80    81    1
   114    80    98    1
   115    80    99    1
   116    81   100    1
   117    81   101    1
   118   102   103    1
   119   102   104    1
@<TRIPOS>SUBSTRUCTURE
     1 RES1      104 GROUP             0 ****  ****    0  
