@<TRIPOS>MOLECULE
tricapped_trigonal_prismatic_0_nunpairedes_0_charge_3 Charge: 3 Unpaired_Electrons: 7 XTB_Unpaired_Electrons: 0 XTB_Charge: 3
   172   186     1     0     0
SMALL
NoCharges
****
Generated from Architector

@<TRIPOS>ATOM
     1 Gd1       0.0174   -0.1028    0.0360   Gd        1 RES1   0.0000
     2 C1       -3.7530    2.2376    2.3130   C.3       1 RES1   0.0000
     3 C2       -2.4776    2.7012    3.0020   C.3       1 RES1   0.0000
     4 N1       -1.7895    1.5792    3.6573   N.am      1 RES1   0.0000
     5 C3       -1.0553    0.7802    2.8835   C.2       1 RES1   0.0000
     6 O1       -0.9394    1.0505    1.6710   O.2       1 RES1   0.0000
     7 C4       -0.3896   -0.5055    3.3384   C.ar      1 RES1   0.0000
     8 C5       -0.2625   -1.0525    4.6126   C.ar      1 RES1   0.0000
     9 C6        0.3652   -2.2888    4.7245   C.ar      1 RES1   0.0000
    10 C7        0.8058   -2.9728    3.5991   C.ar      1 RES1   0.0000
    11 C8        0.6250   -2.3720    2.3503   C.ar      1 RES1   0.0000
    12 C9        0.9401   -2.8856    0.9492   C.2       1 RES1   0.0000
    13 O2        0.5041   -2.2206   -0.0103   O.2       1 RES1   0.0000
    14 N2        1.7045   -3.9538    0.7180   N.am      1 RES1   0.0000
    15 C10       2.0629   -4.2591   -0.6719   C.3       1 RES1   0.0000
    16 C11       1.2237   -5.3824   -1.2654   C.3       1 RES1   0.0000
    17 C12       1.8781   -5.0210    1.6429   C.ar      1 RES1   0.0000
    18 C13       0.7233   -5.6525    2.1033   C.ar      1 RES1   0.0000
    19 C14       0.8138   -6.7240    2.9682   C.ar      1 RES1   0.0000
    20 C15       2.0681   -7.1659    3.3622   C.ar      1 RES1   0.0000
    21 C16       3.2117   -6.5427    2.8989   C.ar      1 RES1   0.0000
    22 C17       3.1398   -5.4573    2.0274   C.ar      1 RES1   0.0000
    23 C18       4.3948   -4.8079    1.5380   C.3       1 RES1   0.0000
    24 N3        0.0726   -1.1607    2.2697   N.ar      1 RES1   0.0000
    25 C19      -1.7122    1.6612    5.0808   C.ar      1 RES1   0.0000
    26 C20      -2.5032    0.8593    5.8906   C.ar      1 RES1   0.0000
    27 C21      -2.4139    0.9779    7.2678   C.ar      1 RES1   0.0000
    28 C22      -1.5345    1.8980    7.8150   C.ar      1 RES1   0.0000
    29 C23      -0.7666    2.7137    7.0027   C.ar      1 RES1   0.0000
    30 C24      -0.8491    2.6171    5.6205   C.ar      1 RES1   0.0000
    31 C25      -0.0810    3.5436    4.7313   C.3       1 RES1   0.0000
    32 H1       -4.2871    3.0940    1.9127   H         1 RES1   0.0000
    33 H2       -4.4138    1.7402    3.0178   H         1 RES1   0.0000
    34 H3       -3.5033    1.5638    1.4986   H         1 RES1   0.0000
    35 H4       -2.7247    3.4431    3.7612   H         1 RES1   0.0000
    36 H5       -1.7945    3.1409    2.2677   H         1 RES1   0.0000
    37 H6       -0.6305   -0.5506    5.4920   H         1 RES1   0.0000
    38 H7        0.5013   -2.7376    5.6961   H         1 RES1   0.0000
    39 H8        1.2605   -3.9415    3.7102   H         1 RES1   0.0000
    40 H9        3.1157   -4.5446   -0.6972   H         1 RES1   0.0000
    41 H10       1.9180   -3.3361   -1.2342   H         1 RES1   0.0000
    42 H11       1.3435   -6.3000   -0.6968   H         1 RES1   0.0000
    43 H12       1.5598   -5.5818   -2.2785   H         1 RES1   0.0000
    44 H13       0.1709   -5.1132   -1.2893   H         1 RES1   0.0000
    45 H14      -0.2320   -5.2816    1.7640   H         1 RES1   0.0000
    46 H15      -0.0785   -7.2156    3.3244   H         1 RES1   0.0000
    47 H16       2.1507   -8.0024    4.0360   H         1 RES1   0.0000
    48 H17       4.1874   -6.8850    3.2116   H         1 RES1   0.0000
    49 H18       5.0778   -4.6529    2.3686   H         1 RES1   0.0000
    50 H19       4.1994   -3.8555    1.0523   H         1 RES1   0.0000
    51 H20       4.8909   -5.4738    0.8321   H         1 RES1   0.0000
    52 H21      -3.1796    0.1556    5.4304   H         1 RES1   0.0000
    53 H22      -3.0233    0.3597    7.9088   H         1 RES1   0.0000
    54 H23      -1.4497    1.9805    8.8852   H         1 RES1   0.0000
    55 H24      -0.0939    3.4390    7.4362   H         1 RES1   0.0000
    56 H25       0.7727    3.9606    5.2542   H         1 RES1   0.0000
    57 H26      -0.7164    4.3766    4.4330   H         1 RES1   0.0000
    58 H27       0.2551    3.0358    3.8282   H         1 RES1   0.0000
    59 C26       3.7462   -1.3742   -2.1925   C.3       1 RES1   0.0000
    60 C27       3.3755   -0.2489   -3.1499   C.3       1 RES1   0.0000
    61 N4        2.0512   -0.4609   -3.7551   N.am      1 RES1   0.0000
    62 C28       1.0112   -0.3523   -2.9313   C.2       1 RES1   0.0000
    63 O3        1.2307    0.0309   -1.7643   O.2       1 RES1   0.0000
    64 C29      -0.4387   -0.6715   -3.2505   C.ar      1 RES1   0.0000
    65 C30      -1.0913   -0.7825   -4.4775   C.ar      1 RES1   0.0000
    66 C31      -2.4563   -1.0506   -4.4646   C.ar      1 RES1   0.0000
    67 C32      -3.1430   -1.2051   -3.2682   C.ar      1 RES1   0.0000
    68 C33      -2.4254   -1.0698   -2.0799   C.ar      1 RES1   0.0000
    69 C34      -2.9004   -1.1276   -0.6383   C.2       1 RES1   0.0000
    70 O4       -2.0106   -1.0786    0.2362   O.2       1 RES1   0.0000
    71 N5       -4.1818   -1.1405   -0.2691   N.am      1 RES1   0.0000
    72 C35      -4.4783   -1.0725    1.1693   C.3       1 RES1   0.0000
    73 C36      -4.9105   -2.4198    1.7258   C.3       1 RES1   0.0000
    74 C37      -5.2938   -1.5672   -1.0542   C.ar      1 RES1   0.0000
    75 C38      -5.2648   -2.8586   -1.5791   C.ar      1 RES1   0.0000
    76 C39      -6.3862   -3.3880   -2.1867   C.ar      1 RES1   0.0000
    77 C40      -7.5400   -2.6227   -2.2746   C.ar      1 RES1   0.0000
    78 C41      -7.5515   -1.3269   -1.7960   C.ar      1 RES1   0.0000
    79 C42      -6.4322   -0.7757   -1.1773   C.ar      1 RES1   0.0000
    80 C43      -6.5131    0.6218   -0.6510   C.3       1 RES1   0.0000
    81 N6       -1.1162   -0.8085   -2.1082   N.ar      1 RES1   0.0000
    82 C44       2.0135   -0.5563   -5.1771   C.ar      1 RES1   0.0000
    83 C45       1.6171   -1.7321   -5.8010   C.ar      1 RES1   0.0000
    84 C46       1.6292   -1.8113   -7.1829   C.ar      1 RES1   0.0000
    85 C47       2.0177   -0.7105   -7.9289   C.ar      1 RES1   0.0000
    86 C48       2.4044    0.4596   -7.3019   C.ar      1 RES1   0.0000
    87 C49       2.4259    0.5546   -5.9174   C.ar      1 RES1   0.0000
    88 C50       2.9382    1.8002   -5.2623   C.3       1 RES1   0.0000
    89 H28       4.7744   -1.2505   -1.8676   H         1 RES1   0.0000
    90 H29       3.6671   -2.3362   -2.6906   H         1 RES1   0.0000
    91 H30       3.1068   -1.3498   -1.3125   H         1 RES1   0.0000
    92 H31       4.1020   -0.1992   -3.9587   H         1 RES1   0.0000
    93 H32       3.3647    0.7027   -2.6075   H         1 RES1   0.0000
    94 H33      -0.5775   -0.6548   -5.4152   H         1 RES1   0.0000
    95 H34      -3.0039   -1.1363   -5.3891   H         1 RES1   0.0000
    96 H35      -4.1968   -1.4295   -3.2714   H         1 RES1   0.0000
    97 H36      -5.2724   -0.3399    1.3148   H         1 RES1   0.0000
    98 H37      -3.5721   -0.7334    1.6726   H         1 RES1   0.0000
    99 H38      -5.8080   -2.7691    1.2248   H         1 RES1   0.0000
   100 H39      -5.1297   -2.3201    2.7834   H         1 RES1   0.0000
   101 H40      -4.1235   -3.1577    1.6009   H         1 RES1   0.0000
   102 H41      -4.3610   -3.4410   -1.4736   H         1 RES1   0.0000
   103 H42      -6.3687   -4.3995   -2.5609   H         1 RES1   0.0000
   104 H43      -8.4309   -3.0454   -2.7085   H         1 RES1   0.0000
   105 H44      -8.4362   -0.7130   -1.8830   H         1 RES1   0.0000
   106 H45      -7.0445    1.2402   -1.3689   H         1 RES1   0.0000
   107 H46      -5.5333    1.0535   -0.4656   H         1 RES1   0.0000
   108 H47      -7.0917    0.6295    0.2728   H         1 RES1   0.0000
   109 H48       1.3156   -2.5761   -5.1985   H         1 RES1   0.0000
   110 H49       1.3423   -2.7251   -7.6774   H         1 RES1   0.0000
   111 H50       2.0235   -0.7628   -9.0038   H         1 RES1   0.0000
   112 H51       2.7060    1.3206   -7.8791   H         1 RES1   0.0000
   113 H52       2.8115    2.6564   -5.9165   H         1 RES1   0.0000
   114 H53       4.0072    1.6998   -5.0778   H         1 RES1   0.0000
   115 H54       2.4410    1.9919   -4.3151   H         1 RES1   0.0000
   116 C51      -3.3394    3.1735   -1.4581   C.3       1 RES1   0.0000
   117 C52      -2.3112    3.1235   -2.5786   C.3       1 RES1   0.0000
   118 N7       -0.9936    3.5659   -2.1062   N.am      1 RES1   0.0000
   119 C53      -0.3802    2.7574   -1.2410   C.2       1 RES1   0.0000
   120 O5       -0.9474    1.6953   -0.9189   O.2       1 RES1   0.0000
   121 C54       0.9683    3.0506   -0.6151   C.ar      1 RES1   0.0000
   122 C55       1.7841    4.1677   -0.7920   C.ar      1 RES1   0.0000
   123 C56       2.9921    4.2277   -0.1059   C.ar      1 RES1   0.0000
   124 C57       3.3895    3.1799    0.7098   C.ar      1 RES1   0.0000
   125 C58       2.5465    2.0742    0.7917   C.ar      1 RES1   0.0000
   126 C59       2.8642    0.7176    1.3671   C.2       1 RES1   0.0000
   127 O6        2.2815   -0.2367    0.8058   O.2       1 RES1   0.0000
   128 N8        3.7649    0.4908    2.3274   N.am      1 RES1   0.0000
   129 C60       3.9806   -0.9161    2.7047   C.3       1 RES1   0.0000
   130 C61       3.6720   -1.1563    4.1751   C.3       1 RES1   0.0000
   131 C62       4.2504    1.4637    3.2569   C.ar      1 RES1   0.0000
   132 C63       3.3427    2.3412    3.8473   C.ar      1 RES1   0.0000
   133 C64       3.7358    3.1935    4.8629   C.ar      1 RES1   0.0000
   134 C65       5.0414    3.1564    5.3247   C.ar      1 RES1   0.0000
   135 C66       5.9501    2.3069    4.7253   C.ar      1 RES1   0.0000
   136 C67       5.5838    1.4697    3.6739   C.ar      1 RES1   0.0000
   137 C68       6.6386    0.6145    3.0517   C.3       1 RES1   0.0000
   138 N9        1.3677    2.0438    0.1651   N.ar      1 RES1   0.0000
   139 C69      -0.4489    4.6803   -2.8157   C.ar      1 RES1   0.0000
   140 C70      -0.4263    5.9508   -2.2515   C.ar      1 RES1   0.0000
   141 C71       0.0293    7.0255   -2.9965   C.ar      1 RES1   0.0000
   142 C72       0.4763    6.8233   -4.2917   C.ar      1 RES1   0.0000
   143 C73       0.4541    5.5577   -4.8473   C.ar      1 RES1   0.0000
   144 C74      -0.0308    4.4719   -4.1311   C.ar      1 RES1   0.0000
   145 C75      -0.1747    3.1373   -4.7931   C.3       1 RES1   0.0000
   146 H55      -4.3127    2.8925   -1.8441   H         1 RES1   0.0000
   147 H56      -3.4066    4.1771   -1.0494   H         1 RES1   0.0000
   148 H57      -3.0620    2.4812   -0.6683   H         1 RES1   0.0000
   149 H58      -2.6040    3.7839   -3.3955   H         1 RES1   0.0000
   150 H59      -2.2179    2.0968   -2.9519   H         1 RES1   0.0000
   151 H60       1.5057    4.9733   -1.4475   H         1 RES1   0.0000
   152 H61       3.6400    5.0821   -0.2145   H         1 RES1   0.0000
   153 H62       4.3291    3.2076    1.2369   H         1 RES1   0.0000
   154 H63       5.0055   -1.1989    2.4638   H         1 RES1   0.0000
   155 H64       3.3183   -1.5131    2.0749   H         1 RES1   0.0000
   156 H65       4.3841   -0.6510    4.8198   H         1 RES1   0.0000
   157 H66       3.7214   -2.2196    4.3865   H         1 RES1   0.0000
   158 H67       2.6740   -0.7948    4.4147   H         1 RES1   0.0000
   159 H68       2.3160    2.3251    3.5120   H         1 RES1   0.0000
   160 H69       3.0306    3.8720    5.3176   H         1 RES1   0.0000
   161 H70       5.3490    3.7867    6.1443   H         1 RES1   0.0000
   162 H71       6.9778    2.2828    5.0566   H         1 RES1   0.0000
   163 H72       7.5875    1.1406    3.0916   H         1 RES1   0.0000
   164 H73       6.4131    0.3811    2.0152   H         1 RES1   0.0000
   165 H74       6.7543   -0.3106    3.6162   H         1 RES1   0.0000
   166 H75      -0.7762    6.0924   -1.2402   H         1 RES1   0.0000
   167 H76       0.0310    8.0179   -2.5752   H         1 RES1   0.0000
   168 H77       0.8368    7.6552   -4.8721   H         1 RES1   0.0000
   169 H78       0.7982    5.3998   -5.8581   H         1 RES1   0.0000
   170 H79       0.4949    3.0618   -5.6419   H         1 RES1   0.0000
   171 H80      -1.1904    3.0362   -5.1737   H         1 RES1   0.0000
   172 H81       0.0174    2.3192   -4.1000   H         1 RES1   0.0000
@<TRIPOS>BOND
     1     1     6    1
     2     1    13    1
     3     1    24    1
     4     1    63    1
     5     1    70    1
     6     1    81    1
     7     1   120    1
     8     1   127    1
     9     1   138    1
    10     2     3    1
    11     2    32    1
    12     2    33    1
    13     2    34    1
    14     3     4    1
    15     3    35    1
    16     3    36    1
    17     4     5    1
    18     4    25    1
    19     5     6    2
    20     5     7    1
    21     7     8    1
    22     7    24    2
    23     8     9    2
    24     8    37    1
    25     9    10    1
    26     9    38    1
    27    10    11    2
    28    10    39    1
    29    11    12    1
    30    11    24    1
    31    12    13    2
    32    12    14    1
    33    14    15    1
    34    14    17    1
    35    15    16    1
    36    15    40    1
    37    15    41    1
    38    16    42    1
    39    16    43    1
    40    16    44    1
    41    17    18    1
    42    17    22    2
    43    18    19    2
    44    18    45    1
    45    19    20    1
    46    19    46    1
    47    20    21    2
    48    20    47    1
    49    21    22    1
    50    21    48    1
    51    22    23    1
    52    23    49    1
    53    23    50    1
    54    23    51    1
    55    25    26    1
    56    25    30    2
    57    26    27    2
    58    26    52    1
    59    27    28    1
    60    27    53    1
    61    28    29    2
    62    28    54    1
    63    29    30    1
    64    29    55    1
    65    30    31    1
    66    31    56    1
    67    31    57    1
    68    31    58    1
    69    59    60    1
    70    59    89    1
    71    59    90    1
    72    59    91    1
    73    60    61    1
    74    60    92    1
    75    60    93    1
    76    61    62    1
    77    61    82    1
    78    62    63    2
    79    62    64    1
    80    64    65    1
    81    64    81    2
    82    65    66    2
    83    65    94    1
    84    66    67    1
    85    66    95    1
    86    67    68    2
    87    67    96    1
    88    68    69    1
    89    68    81    1
    90    69    70    2
    91    69    71    1
    92    71    72    1
    93    71    74    1
    94    72    73    1
    95    72    97    1
    96    72    98    1
    97    73    99    1
    98    73   100    1
    99    73   101    1
   100    74    75    1
   101    74    79    2
   102    75    76    2
   103    75   102    1
   104    76    77    1
   105    76   103    1
   106    77    78    2
   107    77   104    1
   108    78    79    1
   109    78   105    1
   110    79    80    1
   111    80   106    1
   112    80   107    1
   113    80   108    1
   114    82    83    1
   115    82    87    2
   116    83    84    2
   117    83   109    1
   118    84    85    1
   119    84   110    1
   120    85    86    2
   121    85   111    1
   122    86    87    1
   123    86   112    1
   124    87    88    1
   125    88   113    1
   126    88   114    1
   127    88   115    1
   128   116   117    1
   129   116   146    1
   130   116   147    1
   131   116   148    1
   132   117   118    1
   133   117   149    1
   134   117   150    1
   135   118   119    1
   136   118   139    1
   137   119   120    2
   138   119   121    1
   139   121   122    1
   140   121   138    2
   141   122   123    2
   142   122   151    1
   143   123   124    1
   144   123   152    1
   145   124   125    2
   146   124   153    1
   147   125   126    1
   148   125   138    1
   149   126   127    2
   150   126   128    1
   151   128   129    1
   152   128   131    1
   153   129   130    1
   154   129   154    1
   155   129   155    1
   156   130   156    1
   157   130   157    1
   158   130   158    1
   159   131   132    1
   160   131   136    2
   161   132   133    2
   162   132   159    1
   163   133   134    1
   164   133   160    1
   165   134   135    2
   166   134   161    1
   167   135   136    1
   168   135   162    1
   169   136   137    1
   170   137   163    1
   171   137   164    1
   172   137   165    1
   173   139   140    1
   174   139   144    2
   175   140   141    2
   176   140   166    1
   177   141   142    1
   178   141   167    1
   179   142   143    2
   180   142   168    1
   181   143   144    1
   182   143   169    1
   183   144   145    1
   184   145   170    1
   185   145   171    1
   186   145   172    1
@<TRIPOS>SUBSTRUCTURE
     1 RES1      172 GROUP             0 ****  ****    0  
