@<TRIPOS>MOLECULE
capped_square_antiprismatic_0_nunpairedes_0_charge_3 Charge: 3 Unpaired_Electrons: 7 XTB_Unpaired_Electrons: 0 XTB_Charge: 3
   124   137     1     0     0
SMALL
NoCharges
****
Generated from Architector

@<TRIPOS>ATOM
     1 Gd1      -0.0144   -0.0252   -0.0461   Gd        1 RES1   0.0000
     2 C1        1.1574   -2.3504   -4.5292   C.3       1 RES1   0.0000
     3 C2        0.3063   -3.2388   -3.6339   C.3       1 RES1   0.0000
     4 N1       -0.9991   -2.6384   -3.3393   N.am      1 RES1   0.0000
     5 C3       -0.9865   -1.5912   -2.5158   C.2       1 RES1   0.0000
     6 O1        0.0900   -1.2361   -1.9876   O.2       1 RES1   0.0000
     7 C4       -2.1905   -0.7216   -2.2395   C.ar      1 RES1   0.0000
     8 C5       -3.2840   -0.5419   -3.0852   C.ar      1 RES1   0.0000
     9 C6       -4.2136    0.4257   -2.7379   C.ar      1 RES1   0.0000
    10 C7       -4.0092    1.2290   -1.6229   C.ar      1 RES1   0.0000
    11 C8       -2.8645    1.0304   -0.8488   C.ar      1 RES1   0.0000
    12 C9       -2.4625    1.9284    0.2769   C.ar      1 RES1   0.0000
    13 C10      -3.3042    2.9345    0.7576   C.ar      1 RES1   0.0000
    14 C11      -2.8506    3.7041    1.8113   C.ar      1 RES1   0.0000
    15 C12      -1.5592    3.5541    2.3067   C.ar      1 RES1   0.0000
    16 C13      -0.7304    2.5969    1.7260   C.ar      1 RES1   0.0000
    17 C14       0.7576    2.2992    1.9494   C.2       1 RES1   0.0000
    18 O2        1.2500    1.5009    1.1256   O.2       1 RES1   0.0000
    19 N2        1.5204    2.8028    2.9332   N.am      1 RES1   0.0000
    20 C15       1.1182    3.8859    3.8266   C.3       1 RES1   0.0000
    21 C16       1.0906    5.2144    3.0751   C.3       1 RES1   0.0000
    22 C17       2.8892    2.3806    3.0757   C.ar      1 RES1   0.0000
    23 C18       3.2841    1.0618    2.8527   C.ar      1 RES1   0.0000
    24 C19       4.5952    0.6710    3.0692   C.ar      1 RES1   0.0000
    25 C20       5.5379    1.5750    3.5323   C.ar      1 RES1   0.0000
    26 C21       5.1526    2.8827    3.7673   C.ar      1 RES1   0.0000
    27 C22       3.8485    3.2869    3.5315   C.ar      1 RES1   0.0000
    28 N3       -1.2320    1.7777    0.7813   N.ar      1 RES1   0.0000
    29 N4       -2.0171    0.0461   -1.1593   N.ar      1 RES1   0.0000
    30 C23      -2.1551   -3.3431   -3.7536   C.ar      1 RES1   0.0000
    31 C24      -2.2044   -3.9223   -5.0173   C.ar      1 RES1   0.0000
    32 C25      -3.3158   -4.6558   -5.3904   C.ar      1 RES1   0.0000
    33 C26      -4.3889   -4.7955   -4.5275   C.ar      1 RES1   0.0000
    34 C27      -4.3247   -4.2365   -3.2628   C.ar      1 RES1   0.0000
    35 C28      -3.2036   -3.5354   -2.8576   C.ar      1 RES1   0.0000
    36 H1        2.0811   -2.8716   -4.7534   H         1 RES1   0.0000
    37 H2        1.3891   -1.4160   -4.0249   H         1 RES1   0.0000
    38 H3        0.6523   -2.1298   -5.4643   H         1 RES1   0.0000
    39 H4        0.8161   -3.3907   -2.6765   H         1 RES1   0.0000
    40 H5        0.1305   -4.2070   -4.0991   H         1 RES1   0.0000
    41 H6       -3.4009   -1.1288   -3.9829   H         1 RES1   0.0000
    42 H7       -5.0735    0.5716   -3.3718   H         1 RES1   0.0000
    43 H8       -4.7105    2.0180   -1.4132   H         1 RES1   0.0000
    44 H9       -4.2835    3.1001    0.3371   H         1 RES1   0.0000
    45 H10      -3.4944    4.4513    2.2414   H         1 RES1   0.0000
    46 H11      -1.2547    4.1959    3.1113   H         1 RES1   0.0000
    47 H12       1.8336    3.9136    4.6538   H         1 RES1   0.0000
    48 H13       0.1544    3.6230    4.2641   H         1 RES1   0.0000
    49 H14       2.0850    5.5061    2.7514   H         1 RES1   0.0000
    50 H15       0.7167    5.9943    3.7264   H         1 RES1   0.0000
    51 H16       0.4689    5.1586    2.1845   H         1 RES1   0.0000
    52 H17       2.5803    0.3176    2.5048   H         1 RES1   0.0000
    53 H18       4.8781   -0.3550    2.8859   H         1 RES1   0.0000
    54 H19       6.5606    1.2714    3.7001   H         1 RES1   0.0000
    55 H20       5.8768    3.5915    4.1424   H         1 RES1   0.0000
    56 H21       3.6036    4.3197    3.7151   H         1 RES1   0.0000
    57 H22      -1.3857   -3.8089   -5.7108   H         1 RES1   0.0000
    58 H23      -3.3401   -5.1162   -6.3615   H         1 RES1   0.0000
    59 H24      -5.2680   -5.3415   -4.8317   H         1 RES1   0.0000
    60 H25      -5.1538   -4.3616   -2.5892   H         1 RES1   0.0000
    61 H26      -3.1170   -3.1509   -1.8504   H         1 RES1   0.0000
    62 C29      -0.9851    2.6994   -4.2627   C.3       1 RES1   0.0000
    63 C30      -0.1588    3.5683   -3.3242   C.3       1 RES1   0.0000
    64 N5        1.1635    2.9887   -3.0587   N.am      1 RES1   0.0000
    65 C31       1.1679    1.9327   -2.2417   C.2       1 RES1   0.0000
    66 O3        0.0960    1.5956   -1.6896   O.2       1 RES1   0.0000
    67 C32       2.3570    1.0370   -1.9864   C.ar      1 RES1   0.0000
    68 C33       3.5357    0.9730   -2.7261   C.ar      1 RES1   0.0000
    69 C34       4.4667    0.0081   -2.3737   C.ar      1 RES1   0.0000
    70 C35       4.1918   -0.8952   -1.3559   C.ar      1 RES1   0.0000
    71 C36       2.9636   -0.8129   -0.6946   C.ar      1 RES1   0.0000
    72 C37       2.5118   -1.8281    0.3094   C.ar      1 RES1   0.0000
    73 C38       3.3757   -2.8042    0.8158   C.ar      1 RES1   0.0000
    74 C39       2.8589   -3.7464    1.6846   C.ar      1 RES1   0.0000
    75 C40       1.5058   -3.7477    2.0129   C.ar      1 RES1   0.0000
    76 C41       0.6886   -2.7609    1.4690   C.ar      1 RES1   0.0000
    77 C42      -0.8279   -2.5722    1.5567   C.2       1 RES1   0.0000
    78 O4       -1.3072   -1.8906    0.6271   O.2       1 RES1   0.0000
    79 N6       -1.6050   -3.0190    2.5578   N.am      1 RES1   0.0000
    80 C43      -1.2016   -4.0225    3.5438   C.3       1 RES1   0.0000
    81 C44      -1.2309   -5.4244    2.9424   C.3       1 RES1   0.0000
    82 C45      -2.9429   -2.5216    2.7198   C.ar      1 RES1   0.0000
    83 C46      -3.2627   -1.1976    2.4208   C.ar      1 RES1   0.0000
    84 C47      -4.5133   -0.6916    2.7267   C.ar      1 RES1   0.0000
    85 C48      -5.4702   -1.4812    3.3426   C.ar      1 RES1   0.0000
    86 C49      -5.1654   -2.7988    3.6280   C.ar      1 RES1   0.0000
    87 C50      -3.9206   -3.3208    3.3152   C.ar      1 RES1   0.0000
    88 N7        1.2216   -1.8202    0.6650   N.ar      1 RES1   0.0000
    89 N8        2.1045    0.1574   -1.0109   N.ar      1 RES1   0.0000
    90 C51       2.2816    3.7267   -3.5227   C.ar      1 RES1   0.0000
    91 C52       2.2512    4.3078   -4.7870   C.ar      1 RES1   0.0000
    92 C53       3.3100    5.0905   -5.2092   C.ar      1 RES1   0.0000
    93 C54       4.4113    5.2852   -4.3944   C.ar      1 RES1   0.0000
    94 C55       4.4236    4.7326   -3.1253   C.ar      1 RES1   0.0000
    95 C56       3.3564    3.9770   -2.6735   C.ar      1 RES1   0.0000
    96 H27      -1.9252    3.2028   -4.4578   H         1 RES1   0.0000
    97 H28      -1.1847    1.7317   -3.8087   H         1 RES1   0.0000
    98 H29      -0.4804    2.5424   -5.2114   H         1 RES1   0.0000
    99 H30      -0.6731    3.6611   -2.3616   H         1 RES1   0.0000
   100 H31      -0.0092    4.5616   -3.7430   H         1 RES1   0.0000
   101 H32       3.7227    1.6446   -3.5487   H         1 RES1   0.0000
   102 H33       5.3911   -0.0461   -2.9263   H         1 RES1   0.0000
   103 H34       4.9119   -1.6639   -1.1319   H         1 RES1   0.0000
   104 H35       4.4125   -2.8354    0.5189   H         1 RES1   0.0000
   105 H36       3.5093   -4.5020    2.0929   H         1 RES1   0.0000
   106 H37       1.1388   -4.5195    2.6629   H         1 RES1   0.0000
   107 H38      -1.8899   -3.9609    4.3922   H         1 RES1   0.0000
   108 H39      -0.2156   -3.7536    3.9214   H         1 RES1   0.0000
   109 H40      -2.2448   -5.7134    2.6848   H         1 RES1   0.0000
   110 H41      -0.8456   -6.1380    3.6629   H         1 RES1   0.0000
   111 H42      -0.6456   -5.4801    2.0288   H         1 RES1   0.0000
   112 H43      -2.5419   -0.5393    1.9490   H         1 RES1   0.0000
   113 H44      -4.7402    0.3327    2.4796   H         1 RES1   0.0000
   114 H45      -6.4457   -1.0848    3.5787   H         1 RES1   0.0000
   115 H46      -5.9104   -3.4226    4.0969   H         1 RES1   0.0000
   116 H47      -3.7307   -4.3543    3.5533   H         1 RES1   0.0000
   117 H48       1.4088    4.1627   -5.4450   H         1 RES1   0.0000
   118 H49       3.2662    5.5522   -6.1790   H         1 RES1   0.0000
   119 H50       5.2503    5.8701   -4.7376   H         1 RES1   0.0000
   120 H51       5.2684    4.9092   -2.4830   H         1 RES1   0.0000
   121 H52       3.3336    3.5904   -1.6641   H         1 RES1   0.0000
   122 O5       -0.1739   -0.1383    2.8210   O.3       1 RES1   0.0000
   123 H53      -0.8611    0.2205    3.3984   H         1 RES1   0.0000
   124 H54       0.6059   -0.2396    3.3829   H         1 RES1   0.0000
@<TRIPOS>BOND
     1     1     6    1
     2     1    18    1
     3     1    28    1
     4     1    29    1
     5     1    66    1
     6     1    78    1
     7     1    88    1
     8     1    89    1
     9     1   122    1
    10     2     3    1
    11     2    36    1
    12     2    37    1
    13     2    38    1
    14     3     4    1
    15     3    39    1
    16     3    40    1
    17     4     5    1
    18     4    30    1
    19     5     6    2
    20     5     7    1
    21     7     8    1
    22     7    29    2
    23     8     9    2
    24     8    41    1
    25     9    10    1
    26     9    42    1
    27    10    11    2
    28    10    43    1
    29    11    12    1
    30    11    29    1
    31    12    13    1
    32    12    28    2
    33    13    14    2
    34    13    44    1
    35    14    15    1
    36    14    45    1
    37    15    16    2
    38    15    46    1
    39    16    17    1
    40    16    28    1
    41    17    18    2
    42    17    19    1
    43    19    20    1
    44    19    22    1
    45    20    21    1
    46    20    47    1
    47    20    48    1
    48    21    49    1
    49    21    50    1
    50    21    51    1
    51    22    23    1
    52    22    27    2
    53    23    24    2
    54    23    52    1
    55    24    25    1
    56    24    53    1
    57    25    26    2
    58    25    54    1
    59    26    27    1
    60    26    55    1
    61    27    56    1
    62    30    31    1
    63    30    35    2
    64    31    32    2
    65    31    57    1
    66    32    33    1
    67    32    58    1
    68    33    34    2
    69    33    59    1
    70    34    35    1
    71    34    60    1
    72    35    61    1
    73    62    63    1
    74    62    96    1
    75    62    97    1
    76    62    98    1
    77    63    64    1
    78    63    99    1
    79    63   100    1
    80    64    65    1
    81    64    90    1
    82    65    66    2
    83    65    67    1
    84    67    68    1
    85    67    89    2
    86    68    69    2
    87    68   101    1
    88    69    70    1
    89    69   102    1
    90    70    71    2
    91    70   103    1
    92    71    72    1
    93    71    89    1
    94    72    73    1
    95    72    88    2
    96    73    74    2
    97    73   104    1
    98    74    75    1
    99    74   105    1
   100    75    76    2
   101    75   106    1
   102    76    77    1
   103    76    88    1
   104    77    78    2
   105    77    79    1
   106    79    80    1
   107    79    82    1
   108    80    81    1
   109    80   107    1
   110    80   108    1
   111    81   109    1
   112    81   110    1
   113    81   111    1
   114    82    83    1
   115    82    87    2
   116    83    84    2
   117    83   112    1
   118    84    85    1
   119    84   113    1
   120    85    86    2
   121    85   114    1
   122    86    87    1
   123    86   115    1
   124    87   116    1
   125    90    91    1
   126    90    95    2
   127    91    92    2
   128    91   117    1
   129    92    93    1
   130    92   118    1
   131    93    94    2
   132    93   119    1
   133    94    95    1
   134    94   120    1
   135    95   121    1
   136   122   123    1
   137   122   124    1
@<TRIPOS>SUBSTRUCTURE
     1 RES1      124 GROUP             0 ****  ****    0  
