@<TRIPOS>MOLECULE
am_c3_9H2O_c0_0_nunpairedes_0_charge_3 Charge: 3 Unpaired_Electrons: 7 XTB_Unpaired_Electrons: 0 XTB_Charge: 3
    50    57     1     0     0
SMALL
NoCharges
****
Generated from Architector

@<TRIPOS>ATOM
     1 Gd1       0.7780   -0.0767   -0.0734   Gd        1 RES1   0.0000
     2 O1       -1.4042    0.3410    0.0578   O.2       1 RES1   0.0000
     3 C1       -2.3402   -0.4592    0.0108   C.2       1 RES1   0.0000
     4 O2       -3.5230   -0.1206    0.3841   O.2       1 RES1   0.0000
     5 C2       -2.0716   -1.8268   -0.5835   C.3       1 RES1   0.0000
     6 N1       -0.6107   -2.1018   -0.6464   N.4       1 RES1   0.0000
     7 C3       -0.2393   -3.0950    0.4056   C.3       1 RES1   0.0000
     8 C4        0.4096   -2.4788    1.6523   C.2       1 RES1   0.0000
     9 O3        0.7049   -1.2805    1.7090   O.2       1 RES1   0.0000
    10 O4        0.6536   -3.3353    2.5801   O.2       1 RES1   0.0000
    11 C5       -0.1619   -2.5302   -2.0286   C.3       1 RES1   0.0000
    12 C6       -1.1883   -3.4239   -2.7530   C.3       1 RES1   0.0000
    13 C7       -2.3069   -2.7471   -3.5801   C.3       1 RES1   0.0000
    14 C8       -1.9746   -1.3067   -3.9720   C.3       1 RES1   0.0000
    15 C9       -0.4883   -1.2744   -4.2929   C.3       1 RES1   0.0000
    16 C10       0.3888   -1.4193   -3.0367   C.3       1 RES1   0.0000
    17 N2        0.8203   -0.0896   -2.4450   N.4       1 RES1   0.0000
    18 C11      -0.0262    1.0806   -2.8379   C.3       1 RES1   0.0000
    19 C12       0.1127    2.2272   -1.8222   C.2       1 RES1   0.0000
    20 O5        0.6248    1.9910   -0.7340   O.2       1 RES1   0.0000
    21 O6       -0.3159    3.4013   -2.1285   O.2       1 RES1   0.0000
    22 C13       2.2421    0.2206   -2.8055   C.3       1 RES1   0.0000
    23 C14       3.3089    0.0843   -1.7069   C.2       1 RES1   0.0000
    24 O7        4.3669   -0.4234   -1.8515   O.2       1 RES1   0.0000
    25 O8        2.9356    0.6673   -0.5039   O.3       1 RES1   0.0000
    26 H1       -4.2511   -0.7661    0.3024   H         1 RES1   0.0000
    27 H2       -2.4824   -1.8304   -1.5983   H         1 RES1   0.0000
    28 H3       -2.6168   -2.6012   -0.0348   H         1 RES1   0.0000
    29 H4        0.4762   -3.8349    0.0199   H         1 RES1   0.0000
    30 H5       -1.1047   -3.6719    0.7624   H         1 RES1   0.0000
    31 H6        1.0545   -3.0038    3.4139   H         1 RES1   0.0000
    32 H7        0.7047   -3.1754   -1.8467   H         1 RES1   0.0000
    33 H8       -1.6255   -4.1037   -2.0240   H         1 RES1   0.0000
    34 H9       -0.6121   -4.0544   -3.4264   H         1 RES1   0.0000
    35 H10      -3.2749   -2.8039   -3.0826   H         1 RES1   0.0000
    36 H11      -2.4229   -3.3137   -4.5027   H         1 RES1   0.0000
    37 H12      -2.2309   -0.5988   -3.1760   H         1 RES1   0.0000
    38 H13      -2.5474   -1.0059   -4.8485   H         1 RES1   0.0000
    39 H14      -0.1965   -0.3891   -4.8547   H         1 RES1   0.0000
    40 H15      -0.2820   -2.1262   -4.9445   H         1 RES1   0.0000
    41 H16       1.3170   -1.8644   -3.3975   H         1 RES1   0.0000
    42 H17      -1.0863    0.7955   -2.8649   H         1 RES1   0.0000
    43 H18       0.2383    1.4426   -3.8419   H         1 RES1   0.0000
    44 H19      -0.6954    3.5592   -3.0109   H         1 RES1   0.0000
    45 H20       2.3172    1.2614   -3.1534   H         1 RES1   0.0000
    46 H21       2.5940   -0.4177   -3.6267   H         1 RES1   0.0000
    47 H22       3.7411    0.8590    0.0285   H         1 RES1   0.0000
    48 O9        2.5156   -2.1679   -0.2430   O.3       1 RES1   0.0000
    49 H23       2.9110   -2.6792   -0.9707   H         1 RES1   0.0000
    50 H24       3.1236   -2.3644    0.4909   H         1 RES1   0.0000
@<TRIPOS>BOND
     1     1     2    1
     2     1     4    1
     3     1     6    1
     4     1     9    1
     5     1    10    1
     6     1    17    1
     7     1    20    1
     8     1    21    1
     9     1    48    1
    10     2     3    2
    11     3     4    1
    12     3     5    1
    13     4    26    1
    14     5     6    1
    15     5    27    1
    16     5    28    1
    17     6     7    1
    18     6    11    1
    19     7     8    1
    20     7    29    1
    21     7    30    1
    22     8     9    2
    23     8    10    1
    24    10    31    1
    25    11    12    1
    26    11    16    1
    27    11    32    1
    28    12    13    1
    29    12    33    1
    30    12    34    1
    31    13    14    1
    32    13    35    1
    33    13    36    1
    34    14    15    1
    35    14    37    1
    36    14    38    1
    37    15    16    1
    38    15    39    1
    39    15    40    1
    40    16    17    1
    41    16    41    1
    42    17    18    1
    43    17    22    1
    44    18    19    1
    45    18    42    1
    46    18    43    1
    47    19    20    2
    48    19    21    1
    49    21    44    1
    50    22    23    1
    51    22    45    1
    52    22    46    1
    53    23    24    2
    54    23    25    1
    55    25    47    1
    56    48    49    1
    57    48    50    1
@<TRIPOS>SUBSTRUCTURE
     1 RES1       50 GROUP             0 ****  ****    0  
