@<TRIPOS>MOLECULE
am_c3_9H2O_c0_0_nunpairedes_0_charge_3 Charge: 3 Unpaired_Electrons: 7 XTB_Unpaired_Electrons: 0 XTB_Charge: 3
   172   186     1     0     0
SMALL
NoCharges
****
Generated from Architector

@<TRIPOS>ATOM
     1 Gd1      -0.1008    0.0093    0.0312   Gd        1 RES1   0.0000
     2 C1       -4.8660    2.4393   -4.2060   C.3       1 RES1   0.0000
     3 C2       -4.1981    2.7182   -2.8636   C.3       1 RES1   0.0000
     4 N1       -2.8188    2.2376   -2.8096   N.am      1 RES1   0.0000
     5 C3       -2.3738    1.3520   -1.9138   C.2       1 RES1   0.0000
     6 O1       -1.1540    1.2542   -1.6458   O.2       1 RES1   0.0000
     7 C4       -3.2746    0.3585   -1.2317   C.ar      1 RES1   0.0000
     8 C5       -4.4478   -0.1827   -1.7584   C.ar      1 RES1   0.0000
     9 C6       -5.0596   -1.2192   -1.0670   C.ar      1 RES1   0.0000
    10 C7       -4.4707   -1.7217    0.0860   C.ar      1 RES1   0.0000
    11 C8       -3.2859   -1.1402    0.5409   C.ar      1 RES1   0.0000
    12 C9       -2.3719   -1.6612    1.6234   C.2       1 RES1   0.0000
    13 O2       -1.1700   -1.3623    1.4943   O.2       1 RES1   0.0000
    14 N2       -2.7952   -2.4733    2.6058   N.am      1 RES1   0.0000
    15 C10      -4.1767   -2.4828    3.0755   C.3       1 RES1   0.0000
    16 C11      -4.8422   -3.8479    2.9174   C.3       1 RES1   0.0000
    17 C12      -1.8508   -3.2839    3.3072   C.ar      1 RES1   0.0000
    18 C13      -0.7032   -3.7477    2.6620   C.ar      1 RES1   0.0000
    19 C14       0.1803   -4.5895    3.3090   C.ar      1 RES1   0.0000
    20 C15      -0.0634   -5.0381    4.6020   C.ar      1 RES1   0.0000
    21 C16       0.8546   -6.0054    5.2735   C.3       1 RES1   0.0000
    22 C17      -1.2115   -4.5757    5.2400   C.ar      1 RES1   0.0000
    23 C18      -2.0843   -3.7054    4.6154   C.ar      1 RES1   0.0000
    24 N3       -2.7217   -0.1273   -0.1200   N.ar      1 RES1   0.0000
    25 C19      -1.8929    2.7747   -3.7572   C.ar      1 RES1   0.0000
    26 C20      -2.0023    4.0674   -4.2548   C.ar      1 RES1   0.0000
    27 C21      -1.1685    4.4916   -5.2739   C.ar      1 RES1   0.0000
    28 C22      -0.1948    3.6556   -5.8169   C.ar      1 RES1   0.0000
    29 C23       0.6556    4.0815   -6.9698   C.3       1 RES1   0.0000
    30 C24      -0.0658    2.3804   -5.2774   C.ar      1 RES1   0.0000
    31 C25      -0.9044    1.9417   -4.2777   C.ar      1 RES1   0.0000
    32 H1       -5.8910    2.7984   -4.1807   H         1 RES1   0.0000
    33 H2       -4.8707    1.3767   -4.4368   H         1 RES1   0.0000
    34 H3       -4.3455    2.9476   -5.0134   H         1 RES1   0.0000
    35 H4       -4.7511    2.2644   -2.0398   H         1 RES1   0.0000
    36 H5       -4.1858    3.7965   -2.6814   H         1 RES1   0.0000
    37 H6       -4.8574    0.1496   -2.6962   H         1 RES1   0.0000
    38 H7       -5.9810   -1.6498   -1.4331   H         1 RES1   0.0000
    39 H8       -4.9146   -2.5751    0.5725   H         1 RES1   0.0000
    40 H9       -4.7173   -1.6973    2.5467   H         1 RES1   0.0000
    41 H10      -4.1732   -2.1952    4.1314   H         1 RES1   0.0000
    42 H11      -4.7841   -4.2178    1.8962   H         1 RES1   0.0000
    43 H12      -5.8853   -3.7762    3.2095   H         1 RES1   0.0000
    44 H13      -4.3641   -4.5881    3.5521   H         1 RES1   0.0000
    45 H14      -0.4873   -3.4500    1.6470   H         1 RES1   0.0000
    46 H15       1.0698   -4.9270    2.7924   H         1 RES1   0.0000
    47 H16       1.7829   -6.1273    4.7174   H         1 RES1   0.0000
    48 H17       0.3760   -6.9829    5.3474   H         1 RES1   0.0000
    49 H18       1.0816   -5.6842    6.2885   H         1 RES1   0.0000
    50 H19      -1.4286   -4.9015    6.2444   H         1 RES1   0.0000
    51 H20      -2.9439   -3.3788    5.1754   H         1 RES1   0.0000
    52 H21      -2.7427    4.7522   -3.8746   H         1 RES1   0.0000
    53 H22      -1.2852    5.4874   -5.6679   H         1 RES1   0.0000
    54 H23       0.0405    4.1848   -7.8644   H         1 RES1   0.0000
    55 H24       1.4255    3.3403   -7.1775   H         1 RES1   0.0000
    56 H25       1.1260    5.0480   -6.7957   H         1 RES1   0.0000
    57 H26       0.6784    1.6982   -5.6650   H         1 RES1   0.0000
    58 H27      -0.7937    0.9341   -3.9143   H         1 RES1   0.0000
    59 C26       0.3669   -5.4280   -3.8874   C.3       1 RES1   0.0000
    60 C27      -0.3664   -5.1093   -2.5862   C.3       1 RES1   0.0000
    61 N4       -0.7096   -3.6936   -2.4898   N.am      1 RES1   0.0000
    62 C28      -0.1399   -2.8586   -1.6066   C.2       1 RES1   0.0000
    63 O3       -0.6607   -1.7514   -1.3561   O.2       1 RES1   0.0000
    64 C29       1.1583   -3.1224   -0.8745   C.ar      1 RES1   0.0000
    65 C30       2.2088   -3.9806   -1.1999   C.ar      1 RES1   0.0000
    66 C31       3.3596   -3.9337   -0.4228   C.ar      1 RES1   0.0000
    67 C32       3.4621   -3.0325    0.6287   C.ar      1 RES1   0.0000
    68 C33       2.3747   -2.1970    0.8852   C.ar      1 RES1   0.0000
    69 C34       2.3036   -1.0161    1.8222   C.2       1 RES1   0.0000
    70 O4        1.5163   -0.1144    1.4793   O.2       1 RES1   0.0000
    71 N5        3.0642   -0.8687    2.9131   N.am      1 RES1   0.0000
    72 C35       3.7617   -1.9544    3.5852   C.3       1 RES1   0.0000
    73 C36       5.2747   -1.7525    3.5529   C.3       1 RES1   0.0000
    74 C37       3.1090    0.4329    3.5126   C.ar      1 RES1   0.0000
    75 C38       3.1540    1.5593    2.6912   C.ar      1 RES1   0.0000
    76 C39       3.1905    2.8251    3.2402   C.ar      1 RES1   0.0000
    77 C40       3.2123    3.0087    4.6174   C.ar      1 RES1   0.0000
    78 C41       3.2784    4.3733    5.2147   C.3       1 RES1   0.0000
    79 C42       3.2077    1.8794    5.4282   C.ar      1 RES1   0.0000
    80 C43       3.1409    0.6073    4.8926   C.ar      1 RES1   0.0000
    81 N6        1.2744   -2.2547    0.1355   N.ar      1 RES1   0.0000
    82 C44      -1.7016   -3.1846   -3.3928   C.ar      1 RES1   0.0000
    83 C45      -2.6664   -4.0053   -3.9726   C.ar      1 RES1   0.0000
    84 C46      -3.5400   -3.5003   -4.9225   C.ar      1 RES1   0.0000
    85 C47      -3.4995   -2.1683   -5.3089   C.ar      1 RES1   0.0000
    86 C48      -4.3896   -1.5846   -6.3532   C.3       1 RES1   0.0000
    87 C49      -2.5542   -1.3468   -4.7049   C.ar      1 RES1   0.0000
    88 C50      -1.6663   -1.8430   -3.7790   C.ar      1 RES1   0.0000
    89 H28       0.5982   -6.4894   -3.9271   H         1 RES1   0.0000
    90 H29       1.2926   -4.8611   -3.9709   H         1 RES1   0.0000
    91 H30      -0.2513   -5.1784   -4.7463   H         1 RES1   0.0000
    92 H31       0.2275   -5.3781   -1.7126   H         1 RES1   0.0000
    93 H32      -1.2851   -5.7007   -2.5281   H         1 RES1   0.0000
    94 H33       2.1842   -4.6458   -2.0483   H         1 RES1   0.0000
    95 H34       4.1832   -4.5977   -0.6382   H         1 RES1   0.0000
    96 H35       4.3831   -2.9702    1.1863   H         1 RES1   0.0000
    97 H36       3.4618   -2.8963    3.1250   H         1 RES1   0.0000
    98 H37       3.4254   -1.9886    4.6266   H         1 RES1   0.0000
    99 H38       5.6612   -1.7094    2.5358   H         1 RES1   0.0000
   100 H39       5.7671   -2.5637    4.0810   H         1 RES1   0.0000
   101 H40       5.5340   -0.8190    4.0455   H         1 RES1   0.0000
   102 H41       3.1594    1.4510    1.6162   H         1 RES1   0.0000
   103 H42       3.2408    3.6875    2.5910   H         1 RES1   0.0000
   104 H43       3.1017    5.1437    4.4690   H         1 RES1   0.0000
   105 H44       4.2687    4.5308    5.6383   H         1 RES1   0.0000
   106 H45       2.5600    4.4767    6.0246   H         1 RES1   0.0000
   107 H46       3.2687    1.9984    6.4985   H         1 RES1   0.0000
   108 H47       3.1227   -0.2298    5.5731   H         1 RES1   0.0000
   109 H48      -2.7485   -5.0494   -3.7180   H         1 RES1   0.0000
   110 H49      -4.2558   -4.1618   -5.3849   H         1 RES1   0.0000
   111 H50      -5.0067   -2.3370   -6.8313   H         1 RES1   0.0000
   112 H51      -3.7784   -1.0982   -7.1119   H         1 RES1   0.0000
   113 H52      -5.0358   -0.8216   -5.9204   H         1 RES1   0.0000
   114 H53      -2.4915   -0.3080   -4.9966   H         1 RES1   0.0000
   115 H54      -0.9352   -1.1716   -3.3620   H         1 RES1   0.0000
   116 C51       3.5717    3.2476   -4.4614   C.3       1 RES1   0.0000
   117 C52       3.9412    2.5018   -3.1806   C.3       1 RES1   0.0000
   118 N7        3.0065    1.4211   -2.8823   N.am      1 RES1   0.0000
   119 C53       2.1986    1.4514   -1.8059   C.2       1 RES1   0.0000
   120 O5        1.7539    0.3945   -1.3144   O.2       1 RES1   0.0000
   121 C54       1.6850    2.7328   -1.1784   C.ar      1 RES1   0.0000
   122 C55       1.7232    4.0392   -1.6803   C.ar      1 RES1   0.0000
   123 C56       1.0037    5.0235   -1.0211   C.ar      1 RES1   0.0000
   124 C57       0.2453    4.7099    0.0961   C.ar      1 RES1   0.0000
   125 C58       0.2602    3.3863    0.5414   C.ar      1 RES1   0.0000
   126 C59      -0.6598    2.7751    1.5651   C.2       1 RES1   0.0000
   127 O6       -0.9141    1.5668    1.3941   O.2       1 RES1   0.0000
   128 N8       -1.2744    3.4695    2.5291   N.am      1 RES1   0.0000
   129 C60      -0.8403    4.7688    3.0232   C.3       1 RES1   0.0000
   130 C61      -1.8781    5.8442    2.7055   C.3       1 RES1   0.0000
   131 C62      -2.4343    2.8895    3.1372   C.ar      1 RES1   0.0000
   132 C63      -3.3419    2.1976    2.3367   C.ar      1 RES1   0.0000
   133 C64      -4.4802    1.6450    2.8864   C.ar      1 RES1   0.0000
   134 C65      -4.7712    1.7978    4.2372   C.ar      1 RES1   0.0000
   135 C66      -6.0297    1.2496    4.8170   C.3       1 RES1   0.0000
   136 C67      -3.8772    2.5177    5.0228   C.ar      1 RES1   0.0000
   137 C68      -2.7162    3.0469    4.4910   C.ar      1 RES1   0.0000
   138 N9        0.9593    2.4479   -0.0940   N.ar      1 RES1   0.0000
   139 C69       2.9734    0.3095   -3.7814   C.ar      1 RES1   0.0000
   140 C70       4.0000    0.0728   -4.6931   C.ar      1 RES1   0.0000
   141 C71       3.8766   -0.9147   -5.6576   C.ar      1 RES1   0.0000
   142 C72       2.7478   -1.7192   -5.7285   C.ar      1 RES1   0.0000
   143 C73       2.5484   -2.7743   -6.7647   C.3       1 RES1   0.0000
   144 C74       1.7448   -1.5074   -4.7878   C.ar      1 RES1   0.0000
   145 C75       1.8415   -0.5059   -3.8467   C.ar      1 RES1   0.0000
   146 H55       4.2525    4.0809   -4.6099   H         1 RES1   0.0000
   147 H56       2.5492    3.6201   -4.4306   H         1 RES1   0.0000
   148 H57       3.6464    2.5903   -5.3228   H         1 RES1   0.0000
   149 H58       3.9774    3.1653   -2.3158   H         1 RES1   0.0000
   150 H59       4.9447    2.0747   -3.2786   H         1 RES1   0.0000
   151 H60       2.2505    4.3119   -2.5771   H         1 RES1   0.0000
   152 H61       1.0157    6.0405   -1.3862   H         1 RES1   0.0000
   153 H62      -0.3631    5.4680    0.5586   H         1 RES1   0.0000
   154 H63       0.1381    4.9932    2.5973   H         1 RES1   0.0000
   155 H64      -0.7071    4.7033    4.1079   H         1 RES1   0.0000
   156 H65      -2.0818    5.9133    1.6377   H         1 RES1   0.0000
   157 H66      -1.5343    6.8114    3.0594   H         1 RES1   0.0000
   158 H67      -2.8178    5.6108    3.1990   H         1 RES1   0.0000
   159 H68      -3.1588    2.0910    1.2763   H         1 RES1   0.0000
   160 H69      -5.1797    1.1180    2.2524   H         1 RES1   0.0000
   161 H70      -6.5125    0.5584    4.1316   H         1 RES1   0.0000
   162 H71      -6.7205    2.0671    5.0158   H         1 RES1   0.0000
   163 H72      -5.8381    0.7517    5.7637   H         1 RES1   0.0000
   164 H73      -4.0969    2.6766    6.0669   H         1 RES1   0.0000
   165 H74      -2.0521    3.5868    5.1483   H         1 RES1   0.0000
   166 H75       4.9060    0.6552   -4.6881   H         1 RES1   0.0000
   167 H76       4.6743   -1.0524   -6.3696   H         1 RES1   0.0000
   168 H77       3.3602   -2.8050   -7.4838   H         1 RES1   0.0000
   169 H78       1.6162   -2.5870   -7.2956   H         1 RES1   0.0000
   170 H79       2.4602   -3.7525   -6.2936   H         1 RES1   0.0000
   171 H80       0.8610   -2.1283   -4.8206   H         1 RES1   0.0000
   172 H81       1.0199   -0.3478   -3.1637   H         1 RES1   0.0000
@<TRIPOS>BOND
     1     1     6    1
     2     1    13    1
     3     1    24    1
     4     1    63    1
     5     1    70    1
     6     1    81    1
     7     1   120    1
     8     1   127    1
     9     1   138    1
    10     2     3    1
    11     2    32    1
    12     2    33    1
    13     2    34    1
    14     3     4    1
    15     3    35    1
    16     3    36    1
    17     4     5    1
    18     4    25    1
    19     5     6    2
    20     5     7    1
    21     7     8    1
    22     7    24    2
    23     8     9    2
    24     8    37    1
    25     9    10    1
    26     9    38    1
    27    10    11    2
    28    10    39    1
    29    11    12    1
    30    11    24    1
    31    12    13    2
    32    12    14    1
    33    14    15    1
    34    14    17    1
    35    15    16    1
    36    15    40    1
    37    15    41    1
    38    16    42    1
    39    16    43    1
    40    16    44    1
    41    17    18    1
    42    17    23    2
    43    18    19    2
    44    18    45    1
    45    19    20    1
    46    19    46    1
    47    20    21    1
    48    20    22    2
    49    21    47    1
    50    21    48    1
    51    21    49    1
    52    22    23    1
    53    22    50    1
    54    23    51    1
    55    25    26    1
    56    25    31    2
    57    26    27    2
    58    26    52    1
    59    27    28    1
    60    27    53    1
    61    28    29    1
    62    28    30    2
    63    29    54    1
    64    29    55    1
    65    29    56    1
    66    30    31    1
    67    30    57    1
    68    31    58    1
    69    59    60    1
    70    59    89    1
    71    59    90    1
    72    59    91    1
    73    60    61    1
    74    60    92    1
    75    60    93    1
    76    61    62    1
    77    61    82    1
    78    62    63    2
    79    62    64    1
    80    64    65    1
    81    64    81    2
    82    65    66    2
    83    65    94    1
    84    66    67    1
    85    66    95    1
    86    67    68    2
    87    67    96    1
    88    68    69    1
    89    68    81    1
    90    69    70    2
    91    69    71    1
    92    71    72    1
    93    71    74    1
    94    72    73    1
    95    72    97    1
    96    72    98    1
    97    73    99    1
    98    73   100    1
    99    73   101    1
   100    74    75    1
   101    74    80    2
   102    75    76    2
   103    75   102    1
   104    76    77    1
   105    76   103    1
   106    77    78    1
   107    77    79    2
   108    78   104    1
   109    78   105    1
   110    78   106    1
   111    79    80    1
   112    79   107    1
   113    80   108    1
   114    82    83    1
   115    82    88    2
   116    83    84    2
   117    83   109    1
   118    84    85    1
   119    84   110    1
   120    85    86    1
   121    85    87    2
   122    86   111    1
   123    86   112    1
   124    86   113    1
   125    87    88    1
   126    87   114    1
   127    88   115    1
   128   116   117    1
   129   116   146    1
   130   116   147    1
   131   116   148    1
   132   117   118    1
   133   117   149    1
   134   117   150    1
   135   118   119    1
   136   118   139    1
   137   119   120    2
   138   119   121    1
   139   121   122    1
   140   121   138    2
   141   122   123    2
   142   122   151    1
   143   123   124    1
   144   123   152    1
   145   124   125    2
   146   124   153    1
   147   125   126    1
   148   125   138    1
   149   126   127    2
   150   126   128    1
   151   128   129    1
   152   128   131    1
   153   129   130    1
   154   129   154    1
   155   129   155    1
   156   130   156    1
   157   130   157    1
   158   130   158    1
   159   131   132    1
   160   131   137    2
   161   132   133    2
   162   132   159    1
   163   133   134    1
   164   133   160    1
   165   134   135    1
   166   134   136    2
   167   135   161    1
   168   135   162    1
   169   135   163    1
   170   136   137    1
   171   136   164    1
   172   137   165    1
   173   139   140    1
   174   139   145    2
   175   140   141    2
   176   140   166    1
   177   141   142    1
   178   141   167    1
   179   142   143    1
   180   142   144    2
   181   143   168    1
   182   143   169    1
   183   143   170    1
   184   144   145    1
   185   144   171    1
   186   145   172    1
@<TRIPOS>SUBSTRUCTURE
     1 RES1      172 GROUP             0 ****  ****    0  
