@<TRIPOS>MOLECULE
tri_tri_mer_capped_0_nunpairedes_0_charge_3 Charge: 3 Unpaired_Electrons: 7 XTB_Unpaired_Electrons: 0 XTB_Charge: 3
   340   345     1     0     0
SMALL
NoCharges
****
Generated from Architector

@<TRIPOS>ATOM
     1 Gd1       0.0643   -0.5117   -0.3632   Gd        1 RES1   0.0000
     2 C1        4.1473    4.3744    2.4681   C.3       1 RES1   0.0000
     3 C2        4.7886    5.0888    1.2775   C.3       1 RES1   0.0000
     4 C3        4.5343    6.6017    1.2236   C.3       1 RES1   0.0000
     5 C4        3.2584    7.0544    0.4862   C.3       1 RES1   0.0000
     6 C5        3.2865    6.7401   -1.0154   C.3       1 RES1   0.0000
     7 C6        1.9963    7.0080   -1.8172   C.3       1 RES1   0.0000
     8 C7        1.8573    5.9463   -2.9202   C.3       1 RES1   0.0000
     9 C8        0.6322    5.9629   -3.8431   C.3       1 RES1   0.0000
    10 C9       -0.7379    5.7238   -3.1804   C.3       1 RES1   0.0000
    11 C10      -1.0162    4.3821   -2.4658   C.3       1 RES1   0.0000
    12 N1       -1.2557    3.1903   -3.3058   N.am      1 RES1   0.0000
    13 C11      -1.9124    3.3680   -4.6016   C.3       1 RES1   0.0000
    14 C12      -3.3355    3.9686   -4.5774   C.3       1 RES1   0.0000
    15 C13      -4.3502    3.3072   -3.6356   C.3       1 RES1   0.0000
    16 C14      -4.4161    3.9181   -2.2325   C.3       1 RES1   0.0000
    17 C15      -5.7515    3.7232   -1.5113   C.3       1 RES1   0.0000
    18 C16      -6.0946    2.2697   -1.1711   C.3       1 RES1   0.0000
    19 C17      -6.8449    2.1630    0.1616   C.3       1 RES1   0.0000
    20 C18      -5.9276    2.3401    1.3874   C.3       1 RES1   0.0000
    21 C19      -6.4415    3.3398    2.4253   C.3       1 RES1   0.0000
    22 C20      -5.4967    3.4368    3.6195   C.3       1 RES1   0.0000
    23 C21      -0.9747    1.9747   -2.8090   C.2       1 RES1   0.0000
    24 O1       -0.8024    1.7329   -1.5977   O.2       1 RES1   0.0000
    25 C22      -0.7294    0.8301   -3.8141   C.3       1 RES1   0.0000
    26 O2       -0.0507   -0.2350   -3.1492   O.3       1 RES1   0.0000
    27 C23       0.8231   -0.9505   -4.0159   C.3       1 RES1   0.0000
    28 C24       1.7263   -1.8443   -3.1608   C.2       1 RES1   0.0000
    29 O3        1.4851   -1.9189   -1.9385   O.2       1 RES1   0.0000
    30 N2        2.7214   -2.5094   -3.7551   N.am      1 RES1   0.0000
    31 C25       3.0068   -2.4412   -5.1791   C.3       1 RES1   0.0000
    32 C26       4.0268   -1.3735   -5.6057   C.3       1 RES1   0.0000
    33 C27       5.5142   -1.6530   -5.3281   C.3       1 RES1   0.0000
    34 C28       6.0963   -0.8817   -4.1384   C.3       1 RES1   0.0000
    35 C29       7.3889   -1.5068   -3.6092   C.3       1 RES1   0.0000
    36 C30       7.9829   -0.6961   -2.4596   C.3       1 RES1   0.0000
    37 C31       3.6573   -3.2586   -2.9026   C.3       1 RES1   0.0000
    38 C32       4.3617   -4.5170   -3.4417   C.3       1 RES1   0.0000
    39 C33       3.5691   -5.8207   -3.5979   C.3       1 RES1   0.0000
    40 C34       2.6984   -5.9702   -4.8459   C.3       1 RES1   0.0000
    41 C35       2.0899   -7.3799   -4.8779   C.3       1 RES1   0.0000
    42 C36       0.8191   -7.4509   -5.7156   C.3       1 RES1   0.0000
    43 H1        4.0626    3.3028    2.2805   H         1 RES1   0.0000
    44 H2        3.1555    4.7527    2.6980   H         1 RES1   0.0000
    45 H3        4.7525    4.4915    3.3620   H         1 RES1   0.0000
    46 H4        4.4399    4.6287    0.3512   H         1 RES1   0.0000
    47 H5        5.8648    4.9134    1.3327   H         1 RES1   0.0000
    48 H6        5.3919    7.0997    0.7630   H         1 RES1   0.0000
    49 H7        4.4887    6.9706    2.2475   H         1 RES1   0.0000
    50 H8        3.1615    8.1312    0.6407   H         1 RES1   0.0000
    51 H9        2.3860    6.5960    0.9554   H         1 RES1   0.0000
    52 H10       3.5172    5.6809   -1.1263   H         1 RES1   0.0000
    53 H11       4.1130    7.2860   -1.4675   H         1 RES1   0.0000
    54 H12       2.0354    8.0125   -2.2368   H         1 RES1   0.0000
    55 H13       1.1353    6.9624   -1.1505   H         1 RES1   0.0000
    56 H14       2.7406    6.0234   -3.5523   H         1 RES1   0.0000
    57 H15       1.8855    4.9700   -2.4442   H         1 RES1   0.0000
    58 H16       0.7958    5.2188   -4.6300   H         1 RES1   0.0000
    59 H17       0.6027    6.9360   -4.3354   H         1 RES1   0.0000
    60 H18      -1.5080    5.9202   -3.9280   H         1 RES1   0.0000
    61 H19      -0.8646    6.4988   -2.4202   H         1 RES1   0.0000
    62 H20      -1.8813    4.5380   -1.8256   H         1 RES1   0.0000
    63 H21      -0.1760    4.1317   -1.8160   H         1 RES1   0.0000
    64 H22      -1.9905    2.3913   -5.0723   H         1 RES1   0.0000
    65 H23      -1.2853    3.9975   -5.2379   H         1 RES1   0.0000
    66 H24      -3.6974    3.8560   -5.6022   H         1 RES1   0.0000
    67 H25      -3.3075    5.0388   -4.3818   H         1 RES1   0.0000
    68 H26      -4.1219    2.2438   -3.5636   H         1 RES1   0.0000
    69 H27      -5.3319    3.4166   -4.0986   H         1 RES1   0.0000
    70 H28      -4.2593    4.9953   -2.3128   H         1 RES1   0.0000
    71 H29      -3.6157    3.5018   -1.6147   H         1 RES1   0.0000
    72 H30      -6.5450    4.1585   -2.1216   H         1 RES1   0.0000
    73 H31      -5.7028    4.2921   -0.5817   H         1 RES1   0.0000
    74 H32      -5.1775    1.6706   -1.1275   H         1 RES1   0.0000
    75 H33      -6.7121    1.8515   -1.9642   H         1 RES1   0.0000
    76 H34      -7.3421    1.1915    0.2113   H         1 RES1   0.0000
    77 H35      -7.6224    2.9274    0.1677   H         1 RES1   0.0000
    78 H36      -4.9372    2.6737    1.0583   H         1 RES1   0.0000
    79 H37      -5.7994    1.3744    1.8863   H         1 RES1   0.0000
    80 H38      -7.4288    3.0345    2.7751   H         1 RES1   0.0000
    81 H39      -6.5388    4.3240    1.9655   H         1 RES1   0.0000
    82 H40      -5.4294    2.4795    4.1345   H         1 RES1   0.0000
    83 H41      -5.8550    4.1789    4.3262   H         1 RES1   0.0000
    84 H42      -4.4966    3.7344    3.3038   H         1 RES1   0.0000
    85 H43      -0.0973    1.2121   -4.6253   H         1 RES1   0.0000
    86 H44      -1.6667    0.4600   -4.2470   H         1 RES1   0.0000
    87 H45       1.4430   -0.2379   -4.5761   H         1 RES1   0.0000
    88 H46       0.2556   -1.5717   -4.7272   H         1 RES1   0.0000
    89 H47       2.0767   -2.2549   -5.7168   H         1 RES1   0.0000
    90 H48       3.3566   -3.4227   -5.4896   H         1 RES1   0.0000
    91 H49       3.7507   -0.4199   -5.1588   H         1 RES1   0.0000
    92 H50       3.8974   -1.2840   -6.6842   H         1 RES1   0.0000
    93 H51       6.0903   -1.3800   -6.2132   H         1 RES1   0.0000
    94 H52       5.6777   -2.7184   -5.1774   H         1 RES1   0.0000
    95 H53       5.3645   -0.8244   -3.3244   H         1 RES1   0.0000
    96 H54       6.3230    0.1416   -4.4443   H         1 RES1   0.0000
    97 H55       8.1184   -1.5636   -4.4194   H         1 RES1   0.0000
    98 H56       7.1910   -2.5255   -3.2648   H         1 RES1   0.0000
    99 H57       8.2231    0.3152   -2.7825   H         1 RES1   0.0000
   100 H58       8.8984   -1.1627   -2.1036   H         1 RES1   0.0000
   101 H59       7.2797   -0.6307   -1.6272   H         1 RES1   0.0000
   102 H60       3.0973   -3.5075   -1.9966   H         1 RES1   0.0000
   103 H61       4.4615   -2.5666   -2.6217   H         1 RES1   0.0000
   104 H62       5.1269   -4.7143   -2.6874   H         1 RES1   0.0000
   105 H63       4.9063   -4.3178   -4.3648   H         1 RES1   0.0000
   106 H64       2.9486   -5.9744   -2.7153   H         1 RES1   0.0000
   107 H65       4.2965   -6.6372   -3.6081   H         1 RES1   0.0000
   108 H66       3.2980   -5.8037   -5.7451   H         1 RES1   0.0000
   109 H67       1.8883   -5.2380   -4.8458   H         1 RES1   0.0000
   110 H68       1.8539   -7.6921   -3.8555   H         1 RES1   0.0000
   111 H69       2.8256   -8.0824   -5.2728   H         1 RES1   0.0000
   112 H70       0.0350   -6.8343   -5.2789   H         1 RES1   0.0000
   113 H71       0.4574   -8.4744   -5.7568   H         1 RES1   0.0000
   114 H72       1.0022   -7.1154   -6.7332   H         1 RES1   0.0000
   115 C37       0.1623   -4.5915   -2.7945   C.3       1 RES1   0.0000
   116 C38       0.2400   -5.6249   -1.6822   C.3       1 RES1   0.0000
   117 C39       1.2071   -5.1878   -0.5813   C.3       1 RES1   0.0000
   118 C40       1.2337   -6.1373    0.6240   C.3       1 RES1   0.0000
   119 C41       0.2625   -5.7865    1.7518   C.3       1 RES1   0.0000
   120 C42      -1.2167   -5.8745    1.3671   C.3       1 RES1   0.0000
   121 C43      -1.7953   -4.5295    0.9174   C.3       1 RES1   0.0000
   122 C44      -3.0442   -4.6656    0.0291   C.3       1 RES1   0.0000
   123 C45      -2.8803   -4.0173   -1.3543   C.3       1 RES1   0.0000
   124 C46      -3.9963   -3.0377   -1.6975   C.3       1 RES1   0.0000
   125 N3       -4.1331   -1.9391   -0.7408   N.am      1 RES1   0.0000
   126 C47      -5.4447   -1.7621   -0.1192   C.3       1 RES1   0.0000
   127 C48      -6.6445   -1.9455   -1.0595   C.3       1 RES1   0.0000
   128 C49      -6.6111   -1.0319   -2.2955   C.3       1 RES1   0.0000
   129 C50      -6.6116   -1.7862   -3.6276   C.3       1 RES1   0.0000
   130 C51      -6.7670   -0.8501   -4.8276   C.3       1 RES1   0.0000
   131 C52      -5.6080    0.1423   -5.0205   C.3       1 RES1   0.0000
   132 C53      -4.6205   -0.1582   -6.1580   C.3       1 RES1   0.0000
   133 C54      -3.3965   -1.0014   -5.7705   C.3       1 RES1   0.0000
   134 C55      -3.5212   -2.5018   -6.0248   C.3       1 RES1   0.0000
   135 C56      -2.2202   -3.2267   -5.6884   C.3       1 RES1   0.0000
   136 C57      -3.0771   -1.2225   -0.3958   C.2       1 RES1   0.0000
   137 O4       -1.9621   -1.3118   -0.9592   O.2       1 RES1   0.0000
   138 C58      -3.2114   -0.2477    0.7750   C.3       1 RES1   0.0000
   139 O5       -1.9121    0.1747    1.1609   O.3       1 RES1   0.0000
   140 C59      -1.9447    0.8531    2.4123   C.3       1 RES1   0.0000
   141 C60      -0.5105    1.0630    2.9038   C.2       1 RES1   0.0000
   142 O6        0.4194    0.8054    2.1199   O.2       1 RES1   0.0000
   143 N4       -0.3817    1.5282    4.1466   N.am      1 RES1   0.0000
   144 C61      -1.5132    1.7069    5.0554   C.3       1 RES1   0.0000
   145 C62      -2.0409    0.3833    5.6413   C.3       1 RES1   0.0000
   146 C63      -1.4531    0.0833    7.0189   C.3       1 RES1   0.0000
   147 C64      -1.8376   -1.2930    7.5592   C.3       1 RES1   0.0000
   148 C65      -1.2537   -1.5212    8.9571   C.3       1 RES1   0.0000
   149 C66      -1.1002   -2.9991    9.2909   C.3       1 RES1   0.0000
   150 C67       0.9230    1.8666    4.7047   C.3       1 RES1   0.0000
   151 C68       1.0590    3.3649    5.0153   C.3       1 RES1   0.0000
   152 C69       2.2682    3.6656    5.9047   C.3       1 RES1   0.0000
   153 C70       2.6062    5.1665    5.9546   C.3       1 RES1   0.0000
   154 C71       4.1131    5.4268    6.0767   C.3       1 RES1   0.0000
   155 C72       4.4999    6.8751    5.7760   C.3       1 RES1   0.0000
   156 H73      -0.1944   -3.6346   -2.4152   H         1 RES1   0.0000
   157 H74      -0.5088   -4.9191   -3.5820   H         1 RES1   0.0000
   158 H75       1.1436   -4.4188   -3.2126   H         1 RES1   0.0000
   159 H76       0.5859   -6.5726   -2.1013   H         1 RES1   0.0000
   160 H77      -0.7510   -5.7889   -1.2671   H         1 RES1   0.0000
   161 H78       0.9792   -4.1593   -0.2570   H         1 RES1   0.0000
   162 H79       2.2117   -5.1696   -1.0105   H         1 RES1   0.0000
   163 H80       2.2394   -6.1407    1.0561   H         1 RES1   0.0000
   164 H81       1.0406   -7.1570    0.2795   H         1 RES1   0.0000
   165 H82       0.4879   -4.7791    2.1111   H         1 RES1   0.0000
   166 H83       0.4613   -6.4888    2.5636   H         1 RES1   0.0000
   167 H84      -1.7934   -6.2253    2.2212   H         1 RES1   0.0000
   168 H85      -1.3259   -6.6246    0.5834   H         1 RES1   0.0000
   169 H86      -1.0260   -3.9593    0.3903   H         1 RES1   0.0000
   170 H87      -2.0434   -3.9455    1.8079   H         1 RES1   0.0000
   171 H88      -3.9002   -4.2246    0.5415   H         1 RES1   0.0000
   172 H89      -3.2870   -5.7192   -0.1028   H         1 RES1   0.0000
   173 H90      -2.8743   -4.7759   -2.1401   H         1 RES1   0.0000
   174 H91      -1.9289   -3.4890   -1.3934   H         1 RES1   0.0000
   175 H92      -4.9376   -3.5793   -1.7020   H         1 RES1   0.0000
   176 H93      -3.8110   -2.6195   -2.6882   H         1 RES1   0.0000
   177 H94      -5.5111   -0.7521    0.2837   H         1 RES1   0.0000
   178 H95      -5.5274   -2.4743    0.7104   H         1 RES1   0.0000
   179 H96      -7.5171   -1.7073   -0.4506   H         1 RES1   0.0000
   180 H97      -6.7640   -2.9859   -1.3599   H         1 RES1   0.0000
   181 H98      -5.7340   -0.3888   -2.2283   H         1 RES1   0.0000
   182 H99      -7.4837   -0.3786   -2.2796   H         1 RES1   0.0000
   183 H100     -7.4524   -2.4816   -3.6300   H         1 RES1   0.0000
   184 H101     -5.6956   -2.3663   -3.7422   H         1 RES1   0.0000
   185 H102     -7.6937   -0.2881   -4.6940   H         1 RES1   0.0000
   186 H103     -6.8855   -1.4506   -5.7302   H         1 RES1   0.0000
   187 H104     -5.0474    0.2330   -4.0877   H         1 RES1   0.0000
   188 H105     -6.0414    1.1217   -5.2245   H         1 RES1   0.0000
   189 H106     -4.2525    0.8033   -6.5254   H         1 RES1   0.0000
   190 H107     -5.1442   -0.6297   -6.9893   H         1 RES1   0.0000
   191 H108     -3.1714   -0.8462   -4.7081   H         1 RES1   0.0000
   192 H109     -2.5406   -0.6440   -6.3517   H         1 RES1   0.0000
   193 H110     -3.7540   -2.6684   -7.0768   H         1 RES1   0.0000
   194 H111     -4.3374   -2.9175   -5.4326   H         1 RES1   0.0000
   195 H112     -1.4054   -2.8566   -6.3100   H         1 RES1   0.0000
   196 H113     -2.3189   -4.2930   -5.8734   H         1 RES1   0.0000
   197 H114     -1.9477   -3.0831   -4.6421   H         1 RES1   0.0000
   198 H115     -3.6875   -0.7604    1.6202   H         1 RES1   0.0000
   199 H116     -3.8180    0.6212    0.4785   H         1 RES1   0.0000
   200 H117     -2.5206    0.2552    3.1264   H         1 RES1   0.0000
   201 H118     -2.4226    1.8378    2.3008   H         1 RES1   0.0000
   202 H119     -2.3002    2.2722    4.5521   H         1 RES1   0.0000
   203 H120     -1.1694    2.3247    5.8849   H         1 RES1   0.0000
   204 H121     -1.8104   -0.4419    4.9651   H         1 RES1   0.0000
   205 H122     -3.1241    0.4447    5.7462   H         1 RES1   0.0000
   206 H123     -1.8209    0.8324    7.7178   H         1 RES1   0.0000
   207 H124     -0.3651    0.1657    6.9872   H         1 RES1   0.0000
   208 H125     -1.4795   -2.0777    6.8872   H         1 RES1   0.0000
   209 H126     -2.9247   -1.3698    7.6011   H         1 RES1   0.0000
   210 H127     -1.8927   -1.0461    9.6992   H         1 RES1   0.0000
   211 H128     -0.2792   -1.0363    9.0262   H         1 RES1   0.0000
   212 H129     -2.0577   -3.5104    9.2203   H         1 RES1   0.0000
   213 H130     -0.7177   -3.1168   10.3010   H         1 RES1   0.0000
   214 H131     -0.4048   -3.4879    8.6079   H         1 RES1   0.0000
   215 H132      1.6729    1.5940    3.9614   H         1 RES1   0.0000
   216 H133      1.0788    1.2775    5.6115   H         1 RES1   0.0000
   217 H134      0.1531    3.7555    5.4852   H         1 RES1   0.0000
   218 H135      1.1925    3.8849    4.0635   H         1 RES1   0.0000
   219 H136      3.1214    3.1395    5.4783   H         1 RES1   0.0000
   220 H137      2.0951    3.2816    6.9102   H         1 RES1   0.0000
   221 H138      2.0752    5.6462    6.7789   H         1 RES1   0.0000
   222 H139      2.2618    5.6350    5.0285   H         1 RES1   0.0000
   223 H140      4.6342    4.7813    5.3668   H         1 RES1   0.0000
   224 H141      4.4728    5.1531    7.0681   H         1 RES1   0.0000
   225 H142      4.0237    7.2170    4.8566   H         1 RES1   0.0000
   226 H143      5.5797    6.9520    5.6474   H         1 RES1   0.0000
   227 H144      4.2074    7.5474    6.5805   H         1 RES1   0.0000
   228 C73      -4.5003    7.6224   -0.4681   C.3       1 RES1   0.0000
   229 C74      -4.5098    6.8529    0.8514   C.3       1 RES1   0.0000
   230 C75      -3.6468    7.5409    1.9146   C.3       1 RES1   0.0000
   231 C76      -2.1546    7.2219    1.7694   C.3       1 RES1   0.0000
   232 C77      -1.6852    6.0075    2.5747   C.3       1 RES1   0.0000
   233 C78      -0.2336    5.6314    2.2381   C.3       1 RES1   0.0000
   234 C79      -0.1543    4.4101    1.3148   C.3       1 RES1   0.0000
   235 C80       1.1563    4.3414    0.5305   C.3       1 RES1   0.0000
   236 C81       1.5821    2.9222    0.1391   C.3       1 RES1   0.0000
   237 C82       2.5028    2.9340   -1.0973   C.3       1 RES1   0.0000
   238 N5        3.4692    1.8327   -1.1011   N.am      1 RES1   0.0000
   239 C83       4.8304    2.1016   -1.5324   C.3       1 RES1   0.0000
   240 C84       4.8750    2.8611   -2.8767   C.3       1 RES1   0.0000
   241 C85       4.1092    2.2059   -4.0404   C.3       1 RES1   0.0000
   242 C86       3.5482    3.2573   -5.0097   C.3       1 RES1   0.0000
   243 C87       3.4829    2.7949   -6.4686   C.3       1 RES1   0.0000
   244 C88       2.4486    1.6986   -6.7779   C.3       1 RES1   0.0000
   245 C89       1.4843    2.0600   -7.9104   C.3       1 RES1   0.0000
   246 C90       0.5081    3.1729   -7.5047   C.3       1 RES1   0.0000
   247 C91       0.4195    4.2983   -8.5312   C.3       1 RES1   0.0000
   248 C92      -0.4816    5.4237   -8.0388   C.3       1 RES1   0.0000
   249 C93       2.8996    0.6446   -0.9388   C.2       1 RES1   0.0000
   250 O7        1.6842    0.5520   -1.1746   O.2       1 RES1   0.0000
   251 C94       3.5522   -0.5129   -0.1803   C.3       1 RES1   0.0000
   252 O8        2.4325   -1.0920    0.4932   O.3       1 RES1   0.0000
   253 C95       2.7107   -1.5758    1.7902   C.3       1 RES1   0.0000
   254 C96       1.3785   -2.0411    2.3859   C.2       1 RES1   0.0000
   255 O9        0.3428   -1.8955    1.7027   O.2       1 RES1   0.0000
   256 N6        1.4165   -2.5551    3.6080   N.am      1 RES1   0.0000
   257 C97       2.6575   -2.8269    4.3252   C.3       1 RES1   0.0000
   258 C98       3.2099   -1.6335    5.1251   C.3       1 RES1   0.0000
   259 C99       2.7384   -1.5813    6.5793   C.3       1 RES1   0.0000
   260 C100      3.3766   -0.4284    7.3585   C.3       1 RES1   0.0000
   261 C101      2.9899   -0.4804    8.8356   C.3       1 RES1   0.0000
   262 C102      3.5392    0.7034    9.6240   C.3       1 RES1   0.0000
   263 C103      0.1771   -2.7698    4.3482   C.3       1 RES1   0.0000
   264 C104      0.0339   -4.1580    4.9822   C.3       1 RES1   0.0000
   265 C105     -1.4025   -4.6720    4.8792   C.3       1 RES1   0.0000
   266 C106     -1.4809   -6.1650    5.1840   C.3       1 RES1   0.0000
   267 C107     -2.8364   -6.7938    4.8427   C.3       1 RES1   0.0000
   268 C108     -2.6750   -8.2206    4.3372   C.3       1 RES1   0.0000
   269 H145     -5.0571    7.0898   -1.2375   H         1 RES1   0.0000
   270 H146     -3.4829    7.7800   -0.8235   H         1 RES1   0.0000
   271 H147     -4.9670    8.5956   -0.3361   H         1 RES1   0.0000
   272 H148     -4.1460    5.8340    0.6852   H         1 RES1   0.0000
   273 H149     -5.5415    6.7850    1.2032   H         1 RES1   0.0000
   274 H150     -3.9874    7.2611    2.9127   H         1 RES1   0.0000
   275 H151     -3.7917    8.6177    1.8173   H         1 RES1   0.0000
   276 H152     -1.5743    8.0868    2.0918   H         1 RES1   0.0000
   277 H153     -1.9370    7.0554    0.7141   H         1 RES1   0.0000
   278 H154     -2.3331    5.1448    2.3781   H         1 RES1   0.0000
   279 H155     -1.7598    6.2429    3.6377   H         1 RES1   0.0000
   280 H156      0.3112    5.4066    3.1557   H         1 RES1   0.0000
   281 H157      0.2580    6.4951    1.7864   H         1 RES1   0.0000
   282 H158     -0.2683    3.5131    1.9277   H         1 RES1   0.0000
   283 H159     -0.9812    4.4269    0.6004   H         1 RES1   0.0000
   284 H160      1.9588    4.7617    1.1270   H         1 RES1   0.0000
   285 H161      1.0470    4.9595   -0.3580   H         1 RES1   0.0000
   286 H162      0.6834    2.3123   -0.0360   H         1 RES1   0.0000
   287 H163      2.1315    2.4859    0.9803   H         1 RES1   0.0000
   288 H164      3.0946    3.8440   -1.0722   H         1 RES1   0.0000
   289 H165      1.8901    2.9122   -2.0061   H         1 RES1   0.0000
   290 H166      5.3670    1.1553   -1.6241   H         1 RES1   0.0000
   291 H167      5.3387    2.7091   -0.7772   H         1 RES1   0.0000
   292 H168      5.9307    2.9611   -3.1394   H         1 RES1   0.0000
   293 H169      4.4908    3.8743   -2.7422   H         1 RES1   0.0000
   294 H170      3.3014    1.5820   -3.6473   H         1 RES1   0.0000
   295 H171      4.7790    1.5545   -4.5977   H         1 RES1   0.0000
   296 H172      4.2128    4.1214   -4.9903   H         1 RES1   0.0000
   297 H173      2.5669    3.5861   -4.6575   H         1 RES1   0.0000
   298 H174      4.4778    2.4489   -6.7559   H         1 RES1   0.0000
   299 H175      3.2692    3.6648   -7.0883   H         1 RES1   0.0000
   300 H176      1.8584    1.4901   -5.8794   H         1 RES1   0.0000
   301 H177      2.9661    0.7821   -7.0571   H         1 RES1   0.0000
   302 H178      0.9275    1.1653   -8.1960   H         1 RES1   0.0000
   303 H179      2.0562    2.3617   -8.7879   H         1 RES1   0.0000
   304 H180      0.8319    3.6138   -6.5576   H         1 RES1   0.0000
   305 H181     -0.4888    2.7523   -7.3488   H         1 RES1   0.0000
   306 H182      0.0315    3.9115   -9.4743   H         1 RES1   0.0000
   307 H183      1.4229    4.6871   -8.7143   H         1 RES1   0.0000
   308 H184     -1.4956    5.0563   -7.8895   H         1 RES1   0.0000
   309 H185     -0.5156    6.2309   -8.7638   H         1 RES1   0.0000
   310 H186     -0.1102    5.8332   -7.1000   H         1 RES1   0.0000
   311 H187      4.2747   -0.1086    0.5349   H         1 RES1   0.0000
   312 H188      4.0357   -1.2816   -0.7963   H         1 RES1   0.0000
   313 H189      3.1128   -0.7634    2.4143   H         1 RES1   0.0000
   314 H190      3.4377   -2.3948    1.7313   H         1 RES1   0.0000
   315 H191      3.4011   -3.1754    3.6118   H         1 RES1   0.0000
   316 H192      2.4648   -3.6564    5.0014   H         1 RES1   0.0000
   317 H193      2.9202   -0.7095    4.6211   H         1 RES1   0.0000
   318 H194      4.3005   -1.6875    5.1253   H         1 RES1   0.0000
   319 H195      3.0017   -2.5159    7.0755   H         1 RES1   0.0000
   320 H196      1.6499   -1.4812    6.6229   H         1 RES1   0.0000
   321 H197      3.0708    0.5326    6.9341   H         1 RES1   0.0000
   322 H198      4.4629   -0.4873    7.2737   H         1 RES1   0.0000
   323 H199      3.3760   -1.4042    9.2636   H         1 RES1   0.0000
   324 H200      1.9019   -0.5106    8.9292   H         1 RES1   0.0000
   325 H201      4.6081    0.8139    9.4504   H         1 RES1   0.0000
   326 H202      3.3848    0.5493   10.6874   H         1 RES1   0.0000
   327 H203      3.0447    1.6321    9.3406   H         1 RES1   0.0000
   328 H204     -0.6396   -2.6014    3.6437   H         1 RES1   0.0000
   329 H205      0.1316   -2.0062    5.1283   H         1 RES1   0.0000
   330 H206      0.3363   -4.1341    6.0309   H         1 RES1   0.0000
   331 H207      0.6726   -4.8740    4.4621   H         1 RES1   0.0000
   332 H208     -1.7393   -4.5152    3.8557   H         1 RES1   0.0000
   333 H209     -2.0626   -4.1079    5.5391   H         1 RES1   0.0000
   334 H210     -1.2407   -6.3343    6.2321   H         1 RES1   0.0000
   335 H211     -0.7132   -6.6598    4.5855   H         1 RES1   0.0000
   336 H212     -3.3313   -6.2046    4.0689   H         1 RES1   0.0000
   337 H213     -3.4871   -6.7819    5.7153   H         1 RES1   0.0000
   338 H214     -1.9988   -8.2541    3.4853   H         1 RES1   0.0000
   339 H215     -3.6305   -8.6208    4.0180   H         1 RES1   0.0000
   340 H216     -2.2732   -8.8586    5.1168   H         1 RES1   0.0000
@<TRIPOS>BOND
     1     1    24    1
     2     1    26    1
     3     1    29    1
     4     1   137    1
     5     1   139    1
     6     1   142    1
     7     1   250    1
     8     1   252    1
     9     1   255    1
    10     2     3    1
    11     2    43    1
    12     2    44    1
    13     2    45    1
    14     3     4    1
    15     3    46    1
    16     3    47    1
    17     4     5    1
    18     4    48    1
    19     4    49    1
    20     5     6    1
    21     5    50    1
    22     5    51    1
    23     6     7    1
    24     6    52    1
    25     6    53    1
    26     7     8    1
    27     7    54    1
    28     7    55    1
    29     8     9    1
    30     8    56    1
    31     8    57    1
    32     9    10    1
    33     9    58    1
    34     9    59    1
    35    10    11    1
    36    10    60    1
    37    10    61    1
    38    11    12    1
    39    11    62    1
    40    11    63    1
    41    12    13    1
    42    12    23    1
    43    13    14    1
    44    13    64    1
    45    13    65    1
    46    14    15    1
    47    14    66    1
    48    14    67    1
    49    15    16    1
    50    15    68    1
    51    15    69    1
    52    16    17    1
    53    16    70    1
    54    16    71    1
    55    17    18    1
    56    17    72    1
    57    17    73    1
    58    18    19    1
    59    18    74    1
    60    18    75    1
    61    19    20    1
    62    19    76    1
    63    19    77    1
    64    20    21    1
    65    20    78    1
    66    20    79    1
    67    21    22    1
    68    21    80    1
    69    21    81    1
    70    22    82    1
    71    22    83    1
    72    22    84    1
    73    23    24    2
    74    23    25    1
    75    25    26    1
    76    25    85    1
    77    25    86    1
    78    26    27    1
    79    27    28    1
    80    27    87    1
    81    27    88    1
    82    28    29    2
    83    28    30    1
    84    30    31    1
    85    30    37    1
    86    31    32    1
    87    31    89    1
    88    31    90    1
    89    32    33    1
    90    32    91    1
    91    32    92    1
    92    33    34    1
    93    33    93    1
    94    33    94    1
    95    34    35    1
    96    34    95    1
    97    34    96    1
    98    35    36    1
    99    35    97    1
   100    35    98    1
   101    36    99    1
   102    36   100    1
   103    36   101    1
   104    37    38    1
   105    37   102    1
   106    37   103    1
   107    38    39    1
   108    38   104    1
   109    38   105    1
   110    39    40    1
   111    39   106    1
   112    39   107    1
   113    40    41    1
   114    40   108    1
   115    40   109    1
   116    41    42    1
   117    41   110    1
   118    41   111    1
   119    42   112    1
   120    42   113    1
   121    42   114    1
   122   115   116    1
   123   115   156    1
   124   115   157    1
   125   115   158    1
   126   116   117    1
   127   116   159    1
   128   116   160    1
   129   117   118    1
   130   117   161    1
   131   117   162    1
   132   118   119    1
   133   118   163    1
   134   118   164    1
   135   119   120    1
   136   119   165    1
   137   119   166    1
   138   120   121    1
   139   120   167    1
   140   120   168    1
   141   121   122    1
   142   121   169    1
   143   121   170    1
   144   122   123    1
   145   122   171    1
   146   122   172    1
   147   123   124    1
   148   123   173    1
   149   123   174    1
   150   124   125    1
   151   124   175    1
   152   124   176    1
   153   125   126    1
   154   125   136    1
   155   126   127    1
   156   126   177    1
   157   126   178    1
   158   127   128    1
   159   127   179    1
   160   127   180    1
   161   128   129    1
   162   128   181    1
   163   128   182    1
   164   129   130    1
   165   129   183    1
   166   129   184    1
   167   130   131    1
   168   130   185    1
   169   130   186    1
   170   131   132    1
   171   131   187    1
   172   131   188    1
   173   132   133    1
   174   132   189    1
   175   132   190    1
   176   133   134    1
   177   133   191    1
   178   133   192    1
   179   134   135    1
   180   134   193    1
   181   134   194    1
   182   135   195    1
   183   135   196    1
   184   135   197    1
   185   136   137    2
   186   136   138    1
   187   138   139    1
   188   138   198    1
   189   138   199    1
   190   139   140    1
   191   140   141    1
   192   140   200    1
   193   140   201    1
   194   141   142    2
   195   141   143    1
   196   143   144    1
   197   143   150    1
   198   144   145    1
   199   144   202    1
   200   144   203    1
   201   145   146    1
   202   145   204    1
   203   145   205    1
   204   146   147    1
   205   146   206    1
   206   146   207    1
   207   147   148    1
   208   147   208    1
   209   147   209    1
   210   148   149    1
   211   148   210    1
   212   148   211    1
   213   149   212    1
   214   149   213    1
   215   149   214    1
   216   150   151    1
   217   150   215    1
   218   150   216    1
   219   151   152    1
   220   151   217    1
   221   151   218    1
   222   152   153    1
   223   152   219    1
   224   152   220    1
   225   153   154    1
   226   153   221    1
   227   153   222    1
   228   154   155    1
   229   154   223    1
   230   154   224    1
   231   155   225    1
   232   155   226    1
   233   155   227    1
   234   228   229    1
   235   228   269    1
   236   228   270    1
   237   228   271    1
   238   229   230    1
   239   229   272    1
   240   229   273    1
   241   230   231    1
   242   230   274    1
   243   230   275    1
   244   231   232    1
   245   231   276    1
   246   231   277    1
   247   232   233    1
   248   232   278    1
   249   232   279    1
   250   233   234    1
   251   233   280    1
   252   233   281    1
   253   234   235    1
   254   234   282    1
   255   234   283    1
   256   235   236    1
   257   235   284    1
   258   235   285    1
   259   236   237    1
   260   236   286    1
   261   236   287    1
   262   237   238    1
   263   237   288    1
   264   237   289    1
   265   238   239    1
   266   238   249    1
   267   239   240    1
   268   239   290    1
   269   239   291    1
   270   240   241    1
   271   240   292    1
   272   240   293    1
   273   241   242    1
   274   241   294    1
   275   241   295    1
   276   242   243    1
   277   242   296    1
   278   242   297    1
   279   243   244    1
   280   243   298    1
   281   243   299    1
   282   244   245    1
   283   244   300    1
   284   244   301    1
   285   245   246    1
   286   245   302    1
   287   245   303    1
   288   246   247    1
   289   246   304    1
   290   246   305    1
   291   247   248    1
   292   247   306    1
   293   247   307    1
   294   248   308    1
   295   248   309    1
   296   248   310    1
   297   249   250    2
   298   249   251    1
   299   251   252    1
   300   251   311    1
   301   251   312    1
   302   252   253    1
   303   253   254    1
   304   253   313    1
   305   253   314    1
   306   254   255    2
   307   254   256    1
   308   256   257    1
   309   256   263    1
   310   257   258    1
   311   257   315    1
   312   257   316    1
   313   258   259    1
   314   258   317    1
   315   258   318    1
   316   259   260    1
   317   259   319    1
   318   259   320    1
   319   260   261    1
   320   260   321    1
   321   260   322    1
   322   261   262    1
   323   261   323    1
   324   261   324    1
   325   262   325    1
   326   262   326    1
   327   262   327    1
   328   263   264    1
   329   263   328    1
   330   263   329    1
   331   264   265    1
   332   264   330    1
   333   264   331    1
   334   265   266    1
   335   265   332    1
   336   265   333    1
   337   266   267    1
   338   266   334    1
   339   266   335    1
   340   267   268    1
   341   267   336    1
   342   267   337    1
   343   268   338    1
   344   268   339    1
   345   268   340    1
@<TRIPOS>SUBSTRUCTURE
     1 RES1      340 GROUP             0 ****  ****    0  
