@<TRIPOS>MOLECULE
cn9_YICLED_0_nunpairedes_0_charge_3 Charge: 3 Unpaired_Electrons: 7 XTB_Unpaired_Electrons: 0 XTB_Charge: 3
   430   435     1     0     0
SMALL
NoCharges
****
Generated from Architector

@<TRIPOS>ATOM
     1 Gd1       0.1278    0.0842   -0.1985   Gd        1 RES1   0.0000
     2 C1        3.2403   -9.9001   -1.4238   C.3       1 RES1   0.0000
     3 C2        3.3703   -9.2077   -0.0740   C.3       1 RES1   0.0000
     4 C3        4.1168   -7.8772   -0.1538   C.3       1 RES1   0.0000
     5 C4        4.1031   -7.1419    1.1900   C.3       1 RES1   0.0000
     6 C5        2.7416   -6.5169    1.5435   C.3       1 RES1   0.0000
     7 C6        2.1722   -6.9830    2.8834   C.3       1 RES1   0.0000
     8 C7        0.9253   -6.1939    3.3048   C.3       1 RES1   0.0000
     9 C8       -0.3650   -6.5763    2.5704   C.3       1 RES1   0.0000
    10 C9       -0.7460   -5.6437    1.4226   C.3       1 RES1   0.0000
    11 C10      -1.2299   -4.2451    1.8340   C.3       1 RES1   0.0000
    12 N1       -2.1845   -3.6887    0.8550   N.am      1 RES1   0.0000
    13 C11      -3.5180   -4.2513    1.0592   C.3       1 RES1   0.0000
    14 C12      -4.2693   -3.6154    2.2445   C.3       1 RES1   0.0000
    15 C13      -5.2261   -2.4741    1.8814   C.3       1 RES1   0.0000
    16 C14      -6.6849   -2.8839    1.6282   C.3       1 RES1   0.0000
    17 C15      -6.9112   -4.0528    0.6671   C.3       1 RES1   0.0000
    18 C16      -8.3988   -4.2722    0.3586   C.3       1 RES1   0.0000
    19 C17      -8.9385   -3.2797   -0.6710   C.3       1 RES1   0.0000
    20 C18     -10.3914   -3.5654   -1.0523   C.3       1 RES1   0.0000
    21 C19     -10.9460   -2.5523   -2.0588   C.3       1 RES1   0.0000
    22 C20     -11.2115   -1.1786   -1.4489   C.3       1 RES1   0.0000
    23 C21      -1.7631   -2.7403    0.0181   C.2       1 RES1   0.0000
    24 O1       -0.6406   -2.1998    0.1816   O.2       1 RES1   0.0000
    25 C22      -2.4974   -2.2589   -1.2729   C.3       1 RES1   0.0000
    26 C23      -3.8539   -2.8327   -1.6553   C.3       1 RES1   0.0000
    27 O2       -2.4939   -0.8329   -1.1176   O.3       1 RES1   0.0000
    28 C24      -3.0774    0.0099   -2.1101   C.3       1 RES1   0.0000
    29 C25      -3.8284    1.0912   -1.3336   C.3       1 RES1   0.0000
    30 C26      -1.9385    0.5702   -2.9948   C.2       1 RES1   0.0000
    31 O3       -0.7746    0.5281   -2.5345   O.2       1 RES1   0.0000
    32 N2       -2.2050    1.0089   -4.2334   N.am      1 RES1   0.0000
    33 C27      -1.1399    0.8633   -5.2448   C.3       1 RES1   0.0000
    34 C28      -0.5145    2.1385   -5.8361   C.3       1 RES1   0.0000
    35 C29      -0.8881    2.4463   -7.3054   C.3       1 RES1   0.0000
    36 C30       0.3084    2.4192   -8.2731   C.3       1 RES1   0.0000
    37 C31       0.6415    1.0280   -8.8339   C.3       1 RES1   0.0000
    38 C32       2.1255    0.8710   -9.1827   C.3       1 RES1   0.0000
    39 C33       2.4141   -0.4834   -9.8319   C.3       1 RES1   0.0000
    40 C34       3.9000   -0.8085  -10.0103   C.3       1 RES1   0.0000
    41 C35       4.6262   -1.2020   -8.7239   C.3       1 RES1   0.0000
    42 C36       6.0300   -1.7271   -8.9970   C.3       1 RES1   0.0000
    43 C37      -3.5534    1.1929   -4.7782   C.3       1 RES1   0.0000
    44 C38      -3.8951    2.6037   -5.3031   C.3       1 RES1   0.0000
    45 C39      -4.6835    3.4867   -4.3204   C.3       1 RES1   0.0000
    46 C40      -3.7859    4.2208   -3.3214   C.3       1 RES1   0.0000
    47 C41      -4.5419    4.9775   -2.2135   C.3       1 RES1   0.0000
    48 C42      -3.6976    6.1454   -1.6815   C.3       1 RES1   0.0000
    49 C43      -3.9389    6.5517   -0.2193   C.3       1 RES1   0.0000
    50 C44      -4.7869    7.8058   -0.0223   C.3       1 RES1   0.0000
    51 C45      -4.6785    8.3269    1.4161   C.3       1 RES1   0.0000
    52 C46      -3.3709    9.0638    1.7066   C.3       1 RES1   0.0000
    53 H1        2.8038  -10.8871   -1.2937   H         1 RES1   0.0000
    54 H2        4.2113  -10.0212   -1.8979   H         1 RES1   0.0000
    55 H3        2.6014   -9.3263   -2.0924   H         1 RES1   0.0000
    56 H4        3.9058   -9.8615    0.6152   H         1 RES1   0.0000
    57 H5        2.3735   -9.0430    0.3401   H         1 RES1   0.0000
    58 H6        3.6866   -7.2562   -0.9467   H         1 RES1   0.0000
    59 H7        5.1528   -8.0703   -0.4396   H         1 RES1   0.0000
    60 H8        4.8727   -6.3683    1.1798   H         1 RES1   0.0000
    61 H9        4.3844   -7.8593    1.9608   H         1 RES1   0.0000
    62 H10       2.0222   -6.7589    0.7583   H         1 RES1   0.0000
    63 H11       2.8264   -5.4270    1.5958   H         1 RES1   0.0000
    64 H12       2.9367   -6.8610    3.6551   H         1 RES1   0.0000
    65 H13       1.9449   -8.0477    2.8306   H         1 RES1   0.0000
    66 H14       1.1182   -5.1304    3.1533   H         1 RES1   0.0000
    67 H15       0.7766   -6.3593    4.3716   H         1 RES1   0.0000
    68 H16      -1.1960   -6.6243    3.2768   H         1 RES1   0.0000
    69 H17      -0.2504   -7.5761    2.1499   H         1 RES1   0.0000
    70 H18      -1.5412   -6.1301    0.8623   H         1 RES1   0.0000
    71 H19       0.1117   -5.5414    0.7683   H         1 RES1   0.0000
    72 H20      -0.3911   -3.5527    1.9024   H         1 RES1   0.0000
    73 H21      -1.7320   -4.3045    2.8025   H         1 RES1   0.0000
    74 H22      -3.3699   -5.3117    1.2703   H         1 RES1   0.0000
    75 H23      -4.1310   -4.1737    0.1757   H         1 RES1   0.0000
    76 H24      -3.5539   -3.2405    2.9771   H         1 RES1   0.0000
    77 H25      -4.8427   -4.4010    2.7322   H         1 RES1   0.0000
    78 H26      -4.8236   -1.9217    1.0290   H         1 RES1   0.0000
    79 H27      -5.2474   -1.7783    2.7224   H         1 RES1   0.0000
    80 H28      -7.2043   -2.0030    1.2464   H         1 RES1   0.0000
    81 H29      -7.1511   -3.1327    2.5845   H         1 RES1   0.0000
    82 H30      -6.5003   -4.9691    1.0976   H         1 RES1   0.0000
    83 H31      -6.4012   -3.8751   -0.2826   H         1 RES1   0.0000
    84 H32      -8.9823   -4.1974    1.2784   H         1 RES1   0.0000
    85 H33      -8.5320   -5.2808   -0.0379   H         1 RES1   0.0000
    86 H34      -8.3229   -3.3315   -1.5744   H         1 RES1   0.0000
    87 H35      -8.8666   -2.2653   -0.2752   H         1 RES1   0.0000
    88 H36     -11.0154   -3.5633   -0.1561   H         1 RES1   0.0000
    89 H37     -10.4513   -4.5635   -1.4928   H         1 RES1   0.0000
    90 H38     -11.8824   -2.9370   -2.4674   H         1 RES1   0.0000
    91 H39     -10.2427   -2.4571   -2.8922   H         1 RES1   0.0000
    92 H40     -11.9902   -1.2438   -0.6925   H         1 RES1   0.0000
    93 H41     -11.5416   -0.4821   -2.2173   H         1 RES1   0.0000
    94 H42     -10.3145   -0.7740   -0.9827   H         1 RES1   0.0000
    95 H43      -1.7895   -2.5244   -2.0806   H         1 RES1   0.0000
    96 H44      -4.6263   -2.5978   -0.9279   H         1 RES1   0.0000
    97 H45      -3.7664   -3.9042   -1.7996   H         1 RES1   0.0000
    98 H46      -4.1662   -2.4367   -2.6172   H         1 RES1   0.0000
    99 H47      -3.7639   -0.5446   -2.7532   H         1 RES1   0.0000
   100 H48      -3.1467    1.5106   -0.5981   H         1 RES1   0.0000
   101 H49      -4.6534    0.6271   -0.7936   H         1 RES1   0.0000
   102 H50      -4.2042    1.8747   -1.9817   H         1 RES1   0.0000
   103 H51      -1.5824    0.2727   -6.0539   H         1 RES1   0.0000
   104 H52      -0.3698    0.2603   -4.7571   H         1 RES1   0.0000
   105 H53       0.5679    2.0380   -5.7902   H         1 RES1   0.0000
   106 H54      -0.7531    2.9853   -5.1908   H         1 RES1   0.0000
   107 H55      -1.3460    3.4360   -7.3627   H         1 RES1   0.0000
   108 H56      -1.6245    1.7321   -7.6728   H         1 RES1   0.0000
   109 H57       1.1912    2.8313   -7.7782   H         1 RES1   0.0000
   110 H58       0.0851    3.0710   -9.1177   H         1 RES1   0.0000
   111 H59       0.0358    0.8380   -9.7224   H         1 RES1   0.0000
   112 H60       0.3728    0.2620   -8.1053   H         1 RES1   0.0000
   113 H61       2.7190    0.9763   -8.2709   H         1 RES1   0.0000
   114 H62       2.4203    1.6659   -9.8685   H         1 RES1   0.0000
   115 H63       1.9460   -0.4969  -10.8183   H         1 RES1   0.0000
   116 H64       1.9475   -1.2703   -9.2354   H         1 RES1   0.0000
   117 H65       4.4098    0.0411  -10.4659   H         1 RES1   0.0000
   118 H66       3.9765   -1.6452  -10.7064   H         1 RES1   0.0000
   119 H67       4.0597   -1.9803   -8.2067   H         1 RES1   0.0000
   120 H68       4.6958   -0.3430   -8.0531   H         1 RES1   0.0000
   121 H69       5.9922   -2.5969   -9.6462   H         1 RES1   0.0000
   122 H70       6.5221   -2.0159   -8.0705   H         1 RES1   0.0000
   123 H71       6.6334   -0.9677   -9.4847   H         1 RES1   0.0000
   124 H72      -4.2983    0.9301   -4.0338   H         1 RES1   0.0000
   125 H73      -3.6538    0.4878   -5.6062   H         1 RES1   0.0000
   126 H74      -4.5105    2.4768   -6.1999   H         1 RES1   0.0000
   127 H75      -2.9935    3.1310   -5.6136   H         1 RES1   0.0000
   128 H76      -5.4297    2.8818   -3.7988   H         1 RES1   0.0000
   129 H77      -5.2237    4.2353   -4.9006   H         1 RES1   0.0000
   130 H78      -3.1719    4.9365   -3.8744   H         1 RES1   0.0000
   131 H79      -3.0991    3.5003   -2.8682   H         1 RES1   0.0000
   132 H80      -4.7871    4.2884   -1.3984   H         1 RES1   0.0000
   133 H81      -5.4870    5.3492   -2.6101   H         1 RES1   0.0000
   134 H82      -3.8644    7.0107   -2.3235   H         1 RES1   0.0000
   135 H83      -2.6458    5.8659   -1.7833   H         1 RES1   0.0000
   136 H84      -2.9752    6.7451    0.2534   H         1 RES1   0.0000
   137 H85      -4.4049    5.7355    0.3326   H         1 RES1   0.0000
   138 H86      -5.8329    7.5836   -0.2450   H         1 RES1   0.0000
   139 H87      -4.4562    8.5793   -0.7171   H         1 RES1   0.0000
   140 H88      -4.7846    7.4823    2.1053   H         1 RES1   0.0000
   141 H89      -5.5080    9.0109    1.6060   H         1 RES1   0.0000
   142 H90      -2.5011    8.4120    1.6212   H         1 RES1   0.0000
   143 H91      -3.3851    9.4650    2.7173   H         1 RES1   0.0000
   144 H92      -3.2444    9.8935    1.0141   H         1 RES1   0.0000
   145 C47      -7.3022   -0.6688   -2.6226   C.3       1 RES1   0.0000
   146 C48      -7.3281    0.8167   -2.9548   C.3       1 RES1   0.0000
   147 C49      -8.3066    1.6446   -2.1098   C.3       1 RES1   0.0000
   148 C50      -7.6977    2.3327   -0.8862   C.3       1 RES1   0.0000
   149 C51      -7.4037    1.4543    0.3319   C.3       1 RES1   0.0000
   150 C52      -7.0072    2.3560    1.5046   C.3       1 RES1   0.0000
   151 C53      -6.6714    1.6357    2.8148   C.3       1 RES1   0.0000
   152 C54      -5.1822    1.3486    3.0316   C.3       1 RES1   0.0000
   153 C55      -4.3646    2.5930    3.3899   C.3       1 RES1   0.0000
   154 C56      -2.8673    2.3353    3.7015   C.3       1 RES1   0.0000
   155 N3       -2.2440    1.3206    2.8684   N.am      1 RES1   0.0000
   156 C57      -2.4960   -0.0866    3.2264   C.3       1 RES1   0.0000
   157 C58      -1.2875   -1.0390    3.3578   C.3       1 RES1   0.0000
   158 C59      -0.8100   -1.2509    4.7942   C.3       1 RES1   0.0000
   159 C60       0.1748   -2.4121    4.9887   C.3       1 RES1   0.0000
   160 C61       1.5769   -2.1186    4.4523   C.3       1 RES1   0.0000
   161 C62       2.6535   -3.1494    4.8430   C.3       1 RES1   0.0000
   162 C63       3.9138   -2.9371    3.9985   C.3       1 RES1   0.0000
   163 C64       5.0478   -3.9631    4.0965   C.3       1 RES1   0.0000
   164 C65       6.0489   -3.7033    2.9612   C.3       1 RES1   0.0000
   165 C66       7.2996   -4.5765    3.0075   C.3       1 RES1   0.0000
   166 C67      -1.7393    1.5105    1.6519   C.2       1 RES1   0.0000
   167 O4       -1.6177    0.5238    0.9021   O.2       1 RES1   0.0000
   168 C68      -1.2059    2.8584    1.0997   C.3       1 RES1   0.0000
   169 C69      -2.2741    3.8954    0.7676   C.3       1 RES1   0.0000
   170 O5       -0.4410    2.4561   -0.0553   O.3       1 RES1   0.0000
   171 C70       0.3707    3.4440   -0.7304   C.3       1 RES1   0.0000
   172 C71      -0.3655    3.7539   -2.0289   C.3       1 RES1   0.0000
   173 C72       1.8018    2.8138   -0.8669   C.2       1 RES1   0.0000
   174 O6        1.9188    1.6629   -0.4111   O.2       1 RES1   0.0000
   175 N4        2.8631    3.5218   -1.2995   N.am      1 RES1   0.0000
   176 C73       2.7847    4.3813   -2.4778   C.3       1 RES1   0.0000
   177 C74       2.4642    3.5472   -3.7337   C.3       1 RES1   0.0000
   178 C75       3.5575    2.5235   -4.0665   C.3       1 RES1   0.0000
   179 C76       3.2002    1.5726   -5.2111   C.3       1 RES1   0.0000
   180 C77       2.5388    0.2932   -4.6972   C.3       1 RES1   0.0000
   181 C78       2.1096   -0.5889   -5.8597   C.3       1 RES1   0.0000
   182 C79       1.5610   -1.9426   -5.4326   C.3       1 RES1   0.0000
   183 C80       1.0856   -2.7044   -6.6684   C.3       1 RES1   0.0000
   184 C81       0.6887   -4.1524   -6.3950   C.3       1 RES1   0.0000
   185 C82       1.9010   -5.0524   -6.1820   C.3       1 RES1   0.0000
   186 C83       4.2352    3.0957   -0.9559   C.3       1 RES1   0.0000
   187 C84       5.1484    4.2330   -0.4424   C.3       1 RES1   0.0000
   188 C85       5.7348    4.0049    0.9572   C.3       1 RES1   0.0000
   189 C86       6.7450    2.8672    1.1358   C.3       1 RES1   0.0000
   190 C87       7.0241    2.5993    2.6303   C.3       1 RES1   0.0000
   191 C88       7.3579    1.1366    2.9771   C.3       1 RES1   0.0000
   192 C89       6.9017    0.7257    4.3850   C.3       1 RES1   0.0000
   193 C90       7.5823   -0.5570    4.8702   C.3       1 RES1   0.0000
   194 C91       6.8919   -1.1913    6.0815   C.3       1 RES1   0.0000
   195 C92       7.0200   -0.3529    7.3468   C.3       1 RES1   0.0000
   196 H93      -6.5754   -1.1850   -3.2485   H         1 RES1   0.0000
   197 H94      -8.2764   -1.1068   -2.8101   H         1 RES1   0.0000
   198 H95      -7.0475   -0.8417   -1.5817   H         1 RES1   0.0000
   199 H96      -7.6002    0.9165   -4.0078   H         1 RES1   0.0000
   200 H97      -6.3242    1.2338   -2.8416   H         1 RES1   0.0000
   201 H98      -9.1448    1.0246   -1.7954   H         1 RES1   0.0000
   202 H99      -8.7164    2.4349   -2.7445   H         1 RES1   0.0000
   203 H100     -8.4053    3.0959   -0.5611   H         1 RES1   0.0000
   204 H101     -6.7858    2.8556   -1.1857   H         1 RES1   0.0000
   205 H102     -6.6050    0.7412    0.1141   H         1 RES1   0.0000
   206 H103     -8.2995    0.8857    0.5910   H         1 RES1   0.0000
   207 H104     -7.8423    3.0333    1.6825   H         1 RES1   0.0000
   208 H105     -6.1662    2.9793    1.1928   H         1 RES1   0.0000
   209 H106     -7.2141    0.6898    2.8406   H         1 RES1   0.0000
   210 H107     -7.0305    2.2408    3.6454   H         1 RES1   0.0000
   211 H108     -4.7840    0.8930    2.1244   H         1 RES1   0.0000
   212 H109     -5.1052    0.6297    3.8488   H         1 RES1   0.0000
   213 H110     -4.7940    3.0453    4.2844   H         1 RES1   0.0000
   214 H111     -4.4549    3.3212    2.5828   H         1 RES1   0.0000
   215 H112     -2.7647    1.9996    4.7350   H         1 RES1   0.0000
   216 H113     -2.3071    3.2674    3.5996   H         1 RES1   0.0000
   217 H114     -3.1431   -0.5101    2.4524   H         1 RES1   0.0000
   218 H115     -3.0352   -0.0801    4.1713   H         1 RES1   0.0000
   219 H116     -0.4642   -0.7316    2.7088   H         1 RES1   0.0000
   220 H117     -1.6421   -1.9977    2.9836   H         1 RES1   0.0000
   221 H118     -1.6839   -1.4494    5.4131   H         1 RES1   0.0000
   222 H119     -0.3475   -0.3478    5.1854   H         1 RES1   0.0000
   223 H120     -0.2144   -3.3106    4.5078   H         1 RES1   0.0000
   224 H121      0.2424   -2.6190    6.0577   H         1 RES1   0.0000
   225 H122      1.8918   -1.1334    4.8067   H         1 RES1   0.0000
   226 H123      1.5144   -2.0616    3.3600   H         1 RES1   0.0000
   227 H124      2.8899   -3.0578    5.9021   H         1 RES1   0.0000
   228 H125      2.2740   -4.1562    4.6759   H         1 RES1   0.0000
   229 H126      4.3222   -1.9442    4.2176   H         1 RES1   0.0000
   230 H127      3.5918   -2.9386    2.9541   H         1 RES1   0.0000
   231 H128      4.6540   -4.9771    4.0052   H         1 RES1   0.0000
   232 H129      5.5520   -3.8834    5.0591   H         1 RES1   0.0000
   233 H130      6.3518   -2.6508    2.9890   H         1 RES1   0.0000
   234 H131      5.5447   -3.8745    2.0012   H         1 RES1   0.0000
   235 H132      7.8573   -4.4215    3.9288   H         1 RES1   0.0000
   236 H133      7.9556   -4.3259    2.1737   H         1 RES1   0.0000
   237 H134      7.0400   -5.6306    2.9337   H         1 RES1   0.0000
   238 H135     -0.5203    3.3008    1.8323   H         1 RES1   0.0000
   239 H136     -3.0353    3.5101    0.0964   H         1 RES1   0.0000
   240 H137     -1.8101    4.7608    0.3035   H         1 RES1   0.0000
   241 H138     -2.7595    4.2427    1.6750   H         1 RES1   0.0000
   242 H139      0.4777    4.3211   -0.0819   H         1 RES1   0.0000
   243 H140     -0.3542    2.8608   -2.6489   H         1 RES1   0.0000
   244 H141      0.0421    4.5917   -2.5809   H         1 RES1   0.0000
   245 H142     -1.4003    3.9745   -1.7848   H         1 RES1   0.0000
   246 H143      3.7607    4.8458   -2.6082   H         1 RES1   0.0000
   247 H144      2.0562    5.1804   -2.3204   H         1 RES1   0.0000
   248 H145      2.3332    4.2285   -4.5790   H         1 RES1   0.0000
   249 H146      1.5334    3.0023   -3.5796   H         1 RES1   0.0000
   250 H147      3.7284    1.8762   -3.2057   H         1 RES1   0.0000
   251 H148      4.4834    3.0491   -4.3055   H         1 RES1   0.0000
   252 H149      4.1127    1.2861   -5.7351   H         1 RES1   0.0000
   253 H150      2.5560    2.0779   -5.9319   H         1 RES1   0.0000
   254 H151      1.6810    0.5337   -4.0585   H         1 RES1   0.0000
   255 H152      3.2541   -0.2562   -4.0770   H         1 RES1   0.0000
   256 H153      2.9662   -0.7543   -6.5129   H         1 RES1   0.0000
   257 H154      1.3568   -0.0708   -6.4500   H         1 RES1   0.0000
   258 H155      0.7389   -1.8168   -4.7182   H         1 RES1   0.0000
   259 H156      2.3508   -2.4980   -4.9234   H         1 RES1   0.0000
   260 H157      1.8928   -2.7012   -7.4032   H         1 RES1   0.0000
   261 H158      0.2366   -2.1731   -7.1089   H         1 RES1   0.0000
   262 H159      0.1250   -4.5261   -7.2523   H         1 RES1   0.0000
   263 H160      0.0313   -4.1846   -5.5200   H         1 RES1   0.0000
   264 H161      2.5153   -5.0702   -7.0788   H         1 RES1   0.0000
   265 H162      1.5844   -6.0684   -5.9669   H         1 RES1   0.0000
   266 H163      2.5155   -4.7022   -5.3549   H         1 RES1   0.0000
   267 H164      4.7194    2.6458   -1.8193   H         1 RES1   0.0000
   268 H165      4.1393    2.3331   -0.1967   H         1 RES1   0.0000
   269 H166      4.5795    5.1637   -0.3963   H         1 RES1   0.0000
   270 H167      5.9707    4.3865   -1.1424   H         1 RES1   0.0000
   271 H168      4.8980    3.8255    1.6251   H         1 RES1   0.0000
   272 H169      6.2037    4.9387    1.2696   H         1 RES1   0.0000
   273 H170      7.6732    3.1267    0.6343   H         1 RES1   0.0000
   274 H171      6.3716    1.9563    0.6661   H         1 RES1   0.0000
   275 H172      6.1450    2.9059    3.1997   H         1 RES1   0.0000
   276 H173      7.8400    3.2397    2.9645   H         1 RES1   0.0000
   277 H174      8.4327    0.9754    2.8962   H         1 RES1   0.0000
   278 H175      6.8772    0.4709    2.2530   H         1 RES1   0.0000
   279 H176      5.8175    0.5653    4.3770   H         1 RES1   0.0000
   280 H177      7.1031    1.5267    5.0953   H         1 RES1   0.0000
   281 H178      8.6207   -0.3384    5.1242   H         1 RES1   0.0000
   282 H179      7.5897   -1.2841    4.0560   H         1 RES1   0.0000
   283 H180      7.3445   -2.1675    6.2630   H         1 RES1   0.0000
   284 H181      5.8322   -1.3603    5.8617   H         1 RES1   0.0000
   285 H182      8.0671   -0.1863    7.5860   H         1 RES1   0.0000
   286 H183      6.5536   -0.8555    8.1909   H         1 RES1   0.0000
   287 H184      6.5394    0.6144    7.2253   H         1 RES1   0.0000
   288 C93      -1.7650  -10.2230    1.7270   C.3       1 RES1   0.0000
   289 C94      -1.8989   -9.4634    0.4118   C.3       1 RES1   0.0000
   290 C95      -3.1685   -8.6037    0.3683   C.3       1 RES1   0.0000
   291 C96      -3.6651   -8.2901   -1.0508   C.3       1 RES1   0.0000
   292 C97      -3.0884   -7.0226   -1.6937   C.3       1 RES1   0.0000
   293 C98      -1.5652   -7.0146   -1.8587   C.3       1 RES1   0.0000
   294 C99      -1.0848   -5.8560   -2.7361   C.3       1 RES1   0.0000
   295 C100      0.4417   -5.7528   -2.8312   C.3       1 RES1   0.0000
   296 C101      1.1020   -5.0146   -1.6582   C.3       1 RES1   0.0000
   297 C102      1.8029   -3.7253   -2.0934   C.3       1 RES1   0.0000
   298 N5        2.6527   -3.1818   -1.0322   N.am      1 RES1   0.0000
   299 C103      3.8299   -3.9833   -0.7285   C.3       1 RES1   0.0000
   300 C104      4.7316   -4.1525   -1.9644   C.3       1 RES1   0.0000
   301 C105      4.9265   -2.8601   -2.7765   C.3       1 RES1   0.0000
   302 C106      6.3865   -2.5031   -3.0804   C.3       1 RES1   0.0000
   303 C107      7.3388   -2.6183   -1.8860   C.3       1 RES1   0.0000
   304 C108      8.5952   -1.7578   -2.0423   C.3       1 RES1   0.0000
   305 C109      8.4403   -0.3360   -1.5011   C.3       1 RES1   0.0000
   306 C110      9.7578    0.4277   -1.6602   C.3       1 RES1   0.0000
   307 C111      9.8183    1.7669   -0.9180   C.3       1 RES1   0.0000
   308 C112      9.0559    2.8850   -1.6237   C.3       1 RES1   0.0000
   309 C113      2.4042   -1.9570   -0.5809   C.2       1 RES1   0.0000
   310 O7        1.5430   -1.2325   -1.1225   O.2       1 RES1   0.0000
   311 C114      3.1628   -1.4192    0.6530   C.3       1 RES1   0.0000
   312 C115      4.5929   -0.9889    0.2988   C.3       1 RES1   0.0000
   313 O8        2.3422   -0.3701    1.1954   O.3       1 RES1   0.0000
   314 C116      2.8570    0.3499    2.3350   C.3       1 RES1   0.0000
   315 C117      3.8323    1.4659    1.9797   C.3       1 RES1   0.0000
   316 C118      1.6433    1.0859    2.9381   C.2       1 RES1   0.0000
   317 O9        0.6094    1.0790    2.2377   O.2       1 RES1   0.0000
   318 N6        1.6904    1.7500    4.0990   N.am      1 RES1   0.0000
   319 C119      0.4029    2.2309    4.6448   C.3       1 RES1   0.0000
   320 C120      0.3761    3.0384    5.9467   C.3       1 RES1   0.0000
   321 C121      0.6345    2.3095    7.2827   C.3       1 RES1   0.0000
   322 C122     -0.6493    1.9069    8.0363   C.3       1 RES1   0.0000
   323 C123     -0.8019    0.3892    8.1659   C.3       1 RES1   0.0000
   324 C124     -2.2577   -0.0605    8.2767   C.3       1 RES1   0.0000
   325 C125     -2.3389   -1.5829    8.4176   C.3       1 RES1   0.0000
   326 C126     -3.7208   -2.1528    8.1019   C.3       1 RES1   0.0000
   327 C127     -4.0771   -2.1052    6.6170   C.3       1 RES1   0.0000
   328 C128     -5.3599   -2.8709    6.3248   C.3       1 RES1   0.0000
   329 C129      2.8800    2.0289    4.8819   C.3       1 RES1   0.0000
   330 C130      3.3752    3.5017    4.9375   C.3       1 RES1   0.0000
   331 C131      3.2649    4.4683    3.7474   C.3       1 RES1   0.0000
   332 C132      1.8742    4.9018    3.2753   C.3       1 RES1   0.0000
   333 C133      1.9500    5.8800    2.0927   C.3       1 RES1   0.0000
   334 C134      0.5707    6.4713    1.7742   C.3       1 RES1   0.0000
   335 C135      0.3921    7.0360    0.3616   C.3       1 RES1   0.0000
   336 C136      1.1215    8.3499    0.0961   C.3       1 RES1   0.0000
   337 C137      1.0321    8.7743   -1.3730   C.3       1 RES1   0.0000
   338 C138     -0.3790    9.1648   -1.8063   C.3       1 RES1   0.0000
   339 H185     -0.8449  -10.7996    1.7406   H         1 RES1   0.0000
   340 H186     -2.5928  -10.9148    1.8478   H         1 RES1   0.0000
   341 H187     -1.7635   -9.5408    2.5741   H         1 RES1   0.0000
   342 H188     -1.9357  -10.1831   -0.4089   H         1 RES1   0.0000
   343 H189     -1.0094   -8.8475    0.2583   H         1 RES1   0.0000
   344 H190     -3.0167   -7.6721    0.9247   H         1 RES1   0.0000
   345 H191     -3.9542   -9.1527    0.8916   H         1 RES1   0.0000
   346 H192     -4.7528   -8.1729   -1.0221   H         1 RES1   0.0000
   347 H193     -3.4593   -9.1447   -1.7009   H         1 RES1   0.0000
   348 H194     -3.3950   -6.1505   -1.1020   H         1 RES1   0.0000
   349 H195     -3.5591   -6.9256   -2.6768   H         1 RES1   0.0000
   350 H196     -1.2446   -7.9548   -2.3108   H         1 RES1   0.0000
   351 H197     -1.0862   -6.9450   -0.8818   H         1 RES1   0.0000
   352 H198     -1.4803   -4.9122   -2.3446   H         1 RES1   0.0000
   353 H199     -1.4896   -5.9970   -3.7414   H         1 RES1   0.0000
   354 H200      0.6952   -5.2271   -3.7461   H         1 RES1   0.0000
   355 H201      0.8588   -6.7565   -2.9106   H         1 RES1   0.0000
   356 H202      1.8252   -5.6661   -1.1724   H         1 RES1   0.0000
   357 H203      0.3539   -4.7381   -0.9188   H         1 RES1   0.0000
   358 H204      1.0578   -2.9698   -2.3478   H         1 RES1   0.0000
   359 H205      2.4192   -3.9036   -2.9721   H         1 RES1   0.0000
   360 H206      3.5230   -4.9745   -0.3943   H         1 RES1   0.0000
   361 H207      4.3765   -3.5334    0.0945   H         1 RES1   0.0000
   362 H208      4.3119   -4.9329   -2.5969   H         1 RES1   0.0000
   363 H209      5.6879   -4.5290   -1.6091   H         1 RES1   0.0000
   364 H210      4.4610   -2.0238   -2.2493   H         1 RES1   0.0000
   365 H211      4.4026   -2.9517   -3.7308   H         1 RES1   0.0000
   366 H212      6.4098   -1.4777   -3.4565   H         1 RES1   0.0000
   367 H213      6.7540   -3.1465   -3.8800   H         1 RES1   0.0000
   368 H214      7.6454   -3.6571   -1.7653   H         1 RES1   0.0000
   369 H215      6.8331   -2.3221   -0.9661   H         1 RES1   0.0000
   370 H216      8.8752   -1.7160   -3.0955   H         1 RES1   0.0000
   371 H217      9.4208   -2.2302   -1.5083   H         1 RES1   0.0000
   372 H218      8.1728   -0.3797   -0.4394   H         1 RES1   0.0000
   373 H219      7.6370    0.1857   -2.0293   H         1 RES1   0.0000
   374 H220      9.9448    0.5939   -2.7243   H         1 RES1   0.0000
   375 H221     10.5640   -0.2055   -1.2795   H         1 RES1   0.0000
   376 H222     10.8657    2.0649   -0.8364   H         1 RES1   0.0000
   377 H223      9.4389    1.6312    0.0996   H         1 RES1   0.0000
   378 H224      9.4752    3.0527   -2.6131   H         1 RES1   0.0000
   379 H225      9.1404    3.8167   -1.0656   H         1 RES1   0.0000
   380 H226      8.0013    2.6350   -1.7330   H         1 RES1   0.0000
   381 H227      3.2040   -2.2301    1.3978   H         1 RES1   0.0000
   382 H228      4.5802   -0.1357   -0.3805   H         1 RES1   0.0000
   383 H229      5.1390   -1.7860   -0.1958   H         1 RES1   0.0000
   384 H230      5.1479   -0.7575    1.2074   H         1 RES1   0.0000
   385 H231      3.3134   -0.3676    3.0263   H         1 RES1   0.0000
   386 H232      3.2734    2.3051    1.5690   H         1 RES1   0.0000
   387 H233      4.5610    1.1256    1.2608   H         1 RES1   0.0000
   388 H234      4.3873    1.7877    2.8520   H         1 RES1   0.0000
   389 H235     -0.2335    1.3597    4.7768   H         1 RES1   0.0000
   390 H236     -0.0663    2.8454    3.8763   H         1 RES1   0.0000
   391 H237     -0.6375    3.4368    5.9926   H         1 RES1   0.0000
   392 H238      1.0262    3.9001    5.8534   H         1 RES1   0.0000
   393 H239      1.2264    2.9735    7.9135   H         1 RES1   0.0000
   394 H240      1.2362    1.4093    7.1360   H         1 RES1   0.0000
   395 H241     -1.5248    2.3117    7.5233   H         1 RES1   0.0000
   396 H242     -0.6491    2.3437    9.0337   H         1 RES1   0.0000
   397 H243     -0.2491    0.0312    9.0372   H         1 RES1   0.0000
   398 H244     -0.3634   -0.0957    7.2893   H         1 RES1   0.0000
   399 H245     -2.7943    0.2635    7.3778   H         1 RES1   0.0000
   400 H246     -2.7297    0.4181    9.1377   H         1 RES1   0.0000
   401 H247     -2.0668   -1.8514    9.4406   H         1 RES1   0.0000
   402 H248     -1.6019   -2.0435    7.7503   H         1 RES1   0.0000
   403 H249     -4.4795   -1.6181    8.6739   H         1 RES1   0.0000
   404 H250     -3.7423   -3.1941    8.4204   H         1 RES1   0.0000
   405 H251     -3.2635   -2.5514    6.0389   H         1 RES1   0.0000
   406 H252     -4.1915   -1.0681    6.2902   H         1 RES1   0.0000
   407 H253     -5.2346   -3.9142    6.6028   H         1 RES1   0.0000
   408 H254     -5.6189   -2.8233    5.2674   H         1 RES1   0.0000
   409 H255     -6.1823   -2.4615    6.9037   H         1 RES1   0.0000
   410 H256      3.6837    1.3731    4.5525   H         1 RES1   0.0000
   411 H257      2.6727    1.7575    5.9169   H         1 RES1   0.0000
   412 H258      4.4385    3.4169    5.1656   H         1 RES1   0.0000
   413 H259      2.9275    3.9984    5.7976   H         1 RES1   0.0000
   414 H260      3.8065    4.0729    2.8915   H         1 RES1   0.0000
   415 H261      3.8011    5.3647    4.0755   H         1 RES1   0.0000
   416 H262      1.3360    5.3871    4.0907   H         1 RES1   0.0000
   417 H263      1.2998    4.0296    2.9589   H         1 RES1   0.0000
   418 H264      2.3470    5.3495    1.2211   H         1 RES1   0.0000
   419 H265      2.6431    6.6857    2.3292   H         1 RES1   0.0000
   420 H266      0.3502    7.2577    2.4963   H         1 RES1   0.0000
   421 H267     -0.1803    5.6897    1.9256   H         1 RES1   0.0000
   422 H268     -0.6733    7.2012    0.2012   H         1 RES1   0.0000
   423 H269      0.7199    6.3097   -0.3877   H         1 RES1   0.0000
   424 H270      2.1734    8.2428    0.3690   H         1 RES1   0.0000
   425 H271      0.6918    9.1353    0.7175   H         1 RES1   0.0000
   426 H272      1.3991    7.9635   -2.0125   H         1 RES1   0.0000
   427 H273      1.6991    9.6256   -1.5242   H         1 RES1   0.0000
   428 H274     -1.0782    8.3356   -1.7074   H         1 RES1   0.0000
   429 H275     -0.3735    9.4777   -2.8474   H         1 RES1   0.0000
   430 H276     -0.7412    9.9934   -1.2037   H         1 RES1   0.0000
@<TRIPOS>BOND
     1     1    24    1
     2     1    27    1
     3     1    31    1
     4     1   167    1
     5     1   170    1
     6     1   174    1
     7     1   310    1
     8     1   313    1
     9     1   317    1
    10     2     3    1
    11     2    53    1
    12     2    54    1
    13     2    55    1
    14     3     4    1
    15     3    56    1
    16     3    57    1
    17     4     5    1
    18     4    58    1
    19     4    59    1
    20     5     6    1
    21     5    60    1
    22     5    61    1
    23     6     7    1
    24     6    62    1
    25     6    63    1
    26     7     8    1
    27     7    64    1
    28     7    65    1
    29     8     9    1
    30     8    66    1
    31     8    67    1
    32     9    10    1
    33     9    68    1
    34     9    69    1
    35    10    11    1
    36    10    70    1
    37    10    71    1
    38    11    12    1
    39    11    72    1
    40    11    73    1
    41    12    13    1
    42    12    23    1
    43    13    14    1
    44    13    74    1
    45    13    75    1
    46    14    15    1
    47    14    76    1
    48    14    77    1
    49    15    16    1
    50    15    78    1
    51    15    79    1
    52    16    17    1
    53    16    80    1
    54    16    81    1
    55    17    18    1
    56    17    82    1
    57    17    83    1
    58    18    19    1
    59    18    84    1
    60    18    85    1
    61    19    20    1
    62    19    86    1
    63    19    87    1
    64    20    21    1
    65    20    88    1
    66    20    89    1
    67    21    22    1
    68    21    90    1
    69    21    91    1
    70    22    92    1
    71    22    93    1
    72    22    94    1
    73    23    24    2
    74    23    25    1
    75    25    26    1
    76    25    27    1
    77    25    95    1
    78    26    96    1
    79    26    97    1
    80    26    98    1
    81    27    28    1
    82    28    29    1
    83    28    30    1
    84    28    99    1
    85    29   100    1
    86    29   101    1
    87    29   102    1
    88    30    31    2
    89    30    32    1
    90    32    33    1
    91    32    43    1
    92    33    34    1
    93    33   103    1
    94    33   104    1
    95    34    35    1
    96    34   105    1
    97    34   106    1
    98    35    36    1
    99    35   107    1
   100    35   108    1
   101    36    37    1
   102    36   109    1
   103    36   110    1
   104    37    38    1
   105    37   111    1
   106    37   112    1
   107    38    39    1
   108    38   113    1
   109    38   114    1
   110    39    40    1
   111    39   115    1
   112    39   116    1
   113    40    41    1
   114    40   117    1
   115    40   118    1
   116    41    42    1
   117    41   119    1
   118    41   120    1
   119    42   121    1
   120    42   122    1
   121    42   123    1
   122    43    44    1
   123    43   124    1
   124    43   125    1
   125    44    45    1
   126    44   126    1
   127    44   127    1
   128    45    46    1
   129    45   128    1
   130    45   129    1
   131    46    47    1
   132    46   130    1
   133    46   131    1
   134    47    48    1
   135    47   132    1
   136    47   133    1
   137    48    49    1
   138    48   134    1
   139    48   135    1
   140    49    50    1
   141    49   136    1
   142    49   137    1
   143    50    51    1
   144    50   138    1
   145    50   139    1
   146    51    52    1
   147    51   140    1
   148    51   141    1
   149    52   142    1
   150    52   143    1
   151    52   144    1
   152   145   146    1
   153   145   196    1
   154   145   197    1
   155   145   198    1
   156   146   147    1
   157   146   199    1
   158   146   200    1
   159   147   148    1
   160   147   201    1
   161   147   202    1
   162   148   149    1
   163   148   203    1
   164   148   204    1
   165   149   150    1
   166   149   205    1
   167   149   206    1
   168   150   151    1
   169   150   207    1
   170   150   208    1
   171   151   152    1
   172   151   209    1
   173   151   210    1
   174   152   153    1
   175   152   211    1
   176   152   212    1
   177   153   154    1
   178   153   213    1
   179   153   214    1
   180   154   155    1
   181   154   215    1
   182   154   216    1
   183   155   156    1
   184   155   166    1
   185   156   157    1
   186   156   217    1
   187   156   218    1
   188   157   158    1
   189   157   219    1
   190   157   220    1
   191   158   159    1
   192   158   221    1
   193   158   222    1
   194   159   160    1
   195   159   223    1
   196   159   224    1
   197   160   161    1
   198   160   225    1
   199   160   226    1
   200   161   162    1
   201   161   227    1
   202   161   228    1
   203   162   163    1
   204   162   229    1
   205   162   230    1
   206   163   164    1
   207   163   231    1
   208   163   232    1
   209   164   165    1
   210   164   233    1
   211   164   234    1
   212   165   235    1
   213   165   236    1
   214   165   237    1
   215   166   167    2
   216   166   168    1
   217   168   169    1
   218   168   170    1
   219   168   238    1
   220   169   239    1
   221   169   240    1
   222   169   241    1
   223   170   171    1
   224   171   172    1
   225   171   173    1
   226   171   242    1
   227   172   243    1
   228   172   244    1
   229   172   245    1
   230   173   174    2
   231   173   175    1
   232   175   176    1
   233   175   186    1
   234   176   177    1
   235   176   246    1
   236   176   247    1
   237   177   178    1
   238   177   248    1
   239   177   249    1
   240   178   179    1
   241   178   250    1
   242   178   251    1
   243   179   180    1
   244   179   252    1
   245   179   253    1
   246   180   181    1
   247   180   254    1
   248   180   255    1
   249   181   182    1
   250   181   256    1
   251   181   257    1
   252   182   183    1
   253   182   258    1
   254   182   259    1
   255   183   184    1
   256   183   260    1
   257   183   261    1
   258   184   185    1
   259   184   262    1
   260   184   263    1
   261   185   264    1
   262   185   265    1
   263   185   266    1
   264   186   187    1
   265   186   267    1
   266   186   268    1
   267   187   188    1
   268   187   269    1
   269   187   270    1
   270   188   189    1
   271   188   271    1
   272   188   272    1
   273   189   190    1
   274   189   273    1
   275   189   274    1
   276   190   191    1
   277   190   275    1
   278   190   276    1
   279   191   192    1
   280   191   277    1
   281   191   278    1
   282   192   193    1
   283   192   279    1
   284   192   280    1
   285   193   194    1
   286   193   281    1
   287   193   282    1
   288   194   195    1
   289   194   283    1
   290   194   284    1
   291   195   285    1
   292   195   286    1
   293   195   287    1
   294   288   289    1
   295   288   339    1
   296   288   340    1
   297   288   341    1
   298   289   290    1
   299   289   342    1
   300   289   343    1
   301   290   291    1
   302   290   344    1
   303   290   345    1
   304   291   292    1
   305   291   346    1
   306   291   347    1
   307   292   293    1
   308   292   348    1
   309   292   349    1
   310   293   294    1
   311   293   350    1
   312   293   351    1
   313   294   295    1
   314   294   352    1
   315   294   353    1
   316   295   296    1
   317   295   354    1
   318   295   355    1
   319   296   297    1
   320   296   356    1
   321   296   357    1
   322   297   298    1
   323   297   358    1
   324   297   359    1
   325   298   299    1
   326   298   309    1
   327   299   300    1
   328   299   360    1
   329   299   361    1
   330   300   301    1
   331   300   362    1
   332   300   363    1
   333   301   302    1
   334   301   364    1
   335   301   365    1
   336   302   303    1
   337   302   366    1
   338   302   367    1
   339   303   304    1
   340   303   368    1
   341   303   369    1
   342   304   305    1
   343   304   370    1
   344   304   371    1
   345   305   306    1
   346   305   372    1
   347   305   373    1
   348   306   307    1
   349   306   374    1
   350   306   375    1
   351   307   308    1
   352   307   376    1
   353   307   377    1
   354   308   378    1
   355   308   379    1
   356   308   380    1
   357   309   310    2
   358   309   311    1
   359   311   312    1
   360   311   313    1
   361   311   381    1
   362   312   382    1
   363   312   383    1
   364   312   384    1
   365   313   314    1
   366   314   315    1
   367   314   316    1
   368   314   385    1
   369   315   386    1
   370   315   387    1
   371   315   388    1
   372   316   317    2
   373   316   318    1
   374   318   319    1
   375   318   329    1
   376   319   320    1
   377   319   389    1
   378   319   390    1
   379   320   321    1
   380   320   391    1
   381   320   392    1
   382   321   322    1
   383   321   393    1
   384   321   394    1
   385   322   323    1
   386   322   395    1
   387   322   396    1
   388   323   324    1
   389   323   397    1
   390   323   398    1
   391   324   325    1
   392   324   399    1
   393   324   400    1
   394   325   326    1
   395   325   401    1
   396   325   402    1
   397   326   327    1
   398   326   403    1
   399   326   404    1
   400   327   328    1
   401   327   405    1
   402   327   406    1
   403   328   407    1
   404   328   408    1
   405   328   409    1
   406   329   330    1
   407   329   410    1
   408   329   411    1
   409   330   331    1
   410   330   412    1
   411   330   413    1
   412   331   332    1
   413   331   414    1
   414   331   415    1
   415   332   333    1
   416   332   416    1
   417   332   417    1
   418   333   334    1
   419   333   418    1
   420   333   419    1
   421   334   335    1
   422   334   420    1
   423   334   421    1
   424   335   336    1
   425   335   422    1
   426   335   423    1
   427   336   337    1
   428   336   424    1
   429   336   425    1
   430   337   338    1
   431   337   426    1
   432   337   427    1
   433   338   428    1
   434   338   429    1
   435   338   430    1
@<TRIPOS>SUBSTRUCTURE
     1 RES1      430 GROUP             0 ****  ****    0  
