@<TRIPOS>MOLECULE
am_c3_9H2O_c0_0_nunpairedes_0_charge_3 Charge: 3 Unpaired_Electrons: 7 XTB_Unpaired_Electrons: 0 XTB_Charge: 3
   224   227     1     0     0
SMALL
NoCharges
****
Generated from Architector

@<TRIPOS>ATOM
     1 Gd1      -0.0435   -0.0689    0.0066   Gd        1 RES1   0.0000
     2 C1       -6.9892    2.9504   -0.9304   C.3       1 RES1   0.0000
     3 C2       -6.5918    2.6308   -2.3685   C.3       1 RES1   0.0000
     4 C3       -5.0848    2.7248   -2.6448   C.3       1 RES1   0.0000
     5 C4       -4.7625    2.5281   -4.1377   C.3       1 RES1   0.0000
     6 C5       -3.4597    1.7824   -4.4671   C.3       1 RES1   0.0000
     7 C6       -2.0765    2.4128   -4.2134   C.3       1 RES1   0.0000
     8 N1       -1.8676    3.1371   -2.9651   N.am      1 RES1   0.0000
     9 C7       -2.1330    4.5621   -3.0380   C.3       1 RES1   0.0000
    10 C8       -1.2679    2.5450   -1.9282   C.2       1 RES1   0.0000
    11 O1       -1.0332    1.3282   -1.9060   O.2       1 RES1   0.0000
    12 C9       -0.9032    3.4021   -0.7157   C.3       1 RES1   0.0000
    13 C10       0.5568    3.1834   -0.3305   C.2       1 RES1   0.0000
    14 O2        0.9724    2.0193   -0.1688   O.2       1 RES1   0.0000
    15 N2        1.3700    4.2171   -0.1363   N.am      1 RES1   0.0000
    16 C11       1.0278    5.6236   -0.1461   C.3       1 RES1   0.0000
    17 C12       2.7698    3.9305    0.1816   C.3       1 RES1   0.0000
    18 C13       3.5588    3.4258   -1.0309   C.3       1 RES1   0.0000
    19 C14       3.4158    4.3332   -2.2536   C.3       1 RES1   0.0000
    20 C15       4.2177    3.8105   -3.4473   C.3       1 RES1   0.0000
    21 C16       3.9503    4.5784   -4.7449   C.3       1 RES1   0.0000
    22 C17       2.5330    4.3908   -5.2763   C.3       1 RES1   0.0000
    23 H1       -8.0470    2.7368   -0.7915   H         1 RES1   0.0000
    24 H2       -6.8128    3.9996   -0.7111   H         1 RES1   0.0000
    25 H3       -6.4319    2.3447   -0.2216   H         1 RES1   0.0000
    26 H4       -7.1128    3.3227   -3.0290   H         1 RES1   0.0000
    27 H5       -6.9437    1.6263   -2.6177   H         1 RES1   0.0000
    28 H6       -4.5634    1.9752   -2.0456   H         1 RES1   0.0000
    29 H7       -4.7323    3.7019   -2.3176   H         1 RES1   0.0000
    30 H8       -4.7807    3.4899   -4.6510   H         1 RES1   0.0000
    31 H9       -5.5647    1.9245   -4.5774   H         1 RES1   0.0000
    32 H10      -3.4779    1.5781   -5.5399   H         1 RES1   0.0000
    33 H11      -3.4937    0.8176   -3.9708   H         1 RES1   0.0000
    34 H12      -1.8551    3.1149   -5.0165   H         1 RES1   0.0000
    35 H13      -1.3370    1.6072   -4.2561   H         1 RES1   0.0000
    36 H14      -2.7390    4.7577   -3.9183   H         1 RES1   0.0000
    37 H15      -1.2047    5.1309   -3.1354   H         1 RES1   0.0000
    38 H16      -2.6937    4.9077   -2.1726   H         1 RES1   0.0000
    39 H17      -1.4874    2.9926    0.1167   H         1 RES1   0.0000
    40 H18      -1.1542    4.4423   -0.8704   H         1 RES1   0.0000
    41 H19      -0.0363    5.7967   -0.2685   H         1 RES1   0.0000
    42 H20       1.5571    6.1347   -0.9514   H         1 RES1   0.0000
    43 H21       1.3345    6.0619    0.8057   H         1 RES1   0.0000
    44 H22       2.8020    3.1689    0.9655   H         1 RES1   0.0000
    45 H23       3.2253    4.8451    0.5575   H         1 RES1   0.0000
    46 H24       3.2247    2.4176   -1.2907   H         1 RES1   0.0000
    47 H25       4.6108    3.3673   -0.7459   H         1 RES1   0.0000
    48 H26       3.7546    5.3429   -2.0117   H         1 RES1   0.0000
    49 H27       2.3618    4.3813   -2.5349   H         1 RES1   0.0000
    50 H28       3.9654    2.7602   -3.6031   H         1 RES1   0.0000
    51 H29       5.2834    3.8676   -3.2144   H         1 RES1   0.0000
    52 H30       4.6551    4.2295   -5.5019   H         1 RES1   0.0000
    53 H31       4.1420    5.6398   -4.5837   H         1 RES1   0.0000
    54 H32       2.3148    3.3362   -5.4345   H         1 RES1   0.0000
    55 H33       2.4227    4.9021   -6.2275   H         1 RES1   0.0000
    56 H34       1.7941    4.8009   -4.5912   H         1 RES1   0.0000
    57 C18      -0.4146   -7.8374    0.4725   C.3       1 RES1   0.0000
    58 C19      -1.5831   -7.3347    1.3109   C.3       1 RES1   0.0000
    59 C20      -1.5078   -5.8229    1.5370   C.3       1 RES1   0.0000
    60 C21      -2.7969   -5.2626    2.1485   C.3       1 RES1   0.0000
    61 C22      -2.9438   -3.7380    2.0115   C.3       1 RES1   0.0000
    62 C23      -2.4416   -2.9213    3.2024   C.3       1 RES1   0.0000
    63 N3       -1.0061   -3.0117    3.4266   N.am      1 RES1   0.0000
    64 C24      -0.5753   -3.9668    4.4267   C.3       1 RES1   0.0000
    65 C25      -0.2217   -2.1460    2.7867   C.2       1 RES1   0.0000
    66 O3       -0.6875   -1.3700    1.9347   O.2       1 RES1   0.0000
    67 C26       1.2499   -2.1225    3.2032   C.3       1 RES1   0.0000
    68 C27       1.9500   -0.8264    2.8032   C.2       1 RES1   0.0000
    69 O4        1.5704   -0.1175    1.8573   O.2       1 RES1   0.0000
    70 N4        2.9931   -0.4517    3.5512   N.am      1 RES1   0.0000
    71 C28       3.6911   -1.2865    4.5039   C.3       1 RES1   0.0000
    72 C29       3.3603    0.9602    3.5370   C.3       1 RES1   0.0000
    73 C30       2.2254    1.8262    4.1056   C.3       1 RES1   0.0000
    74 C31       1.6563    1.2763    5.4171   C.3       1 RES1   0.0000
    75 C32       0.5120    2.1234    5.9799   C.3       1 RES1   0.0000
    76 C33      -0.1461    1.4889    7.2101   C.3       1 RES1   0.0000
    77 C34      -0.9315    0.2221    6.8843   C.3       1 RES1   0.0000
    78 H35      -0.4826   -8.9121    0.3315   H         1 RES1   0.0000
    79 H36       0.5353   -7.6152    0.9566   H         1 RES1   0.0000
    80 H37      -0.4329   -7.3705   -0.5117   H         1 RES1   0.0000
    81 H38      -1.6004   -7.8554    2.2687   H         1 RES1   0.0000
    82 H39      -2.5102   -7.5737    0.7883   H         1 RES1   0.0000
    83 H40      -1.3371   -5.3421    0.5703   H         1 RES1   0.0000
    84 H41      -0.6439   -5.5895    2.1625   H         1 RES1   0.0000
    85 H42      -2.8853   -5.5567    3.1966   H         1 RES1   0.0000
    86 H43      -3.6374   -5.7421    1.6409   H         1 RES1   0.0000
    87 H44      -4.0057   -3.5012    1.9058   H         1 RES1   0.0000
    88 H45      -2.4250   -3.3888    1.1130   H         1 RES1   0.0000
    89 H46      -2.9437   -3.2332    4.1173   H         1 RES1   0.0000
    90 H47      -2.6775   -1.8721    3.0049   H         1 RES1   0.0000
    91 H48      -1.2641   -4.8087    4.4151   H         1 RES1   0.0000
    92 H49      -0.5996   -3.5177    5.4236   H         1 RES1   0.0000
    93 H50       0.4229   -4.3548    4.2362   H         1 RES1   0.0000
    94 H51       1.7444   -2.9636    2.7104   H         1 RES1   0.0000
    95 H52       1.3218   -2.2396    4.2879   H         1 RES1   0.0000
    96 H53       3.5412   -2.3449    4.3057   H         1 RES1   0.0000
    97 H54       3.3813   -1.0715    5.5287   H         1 RES1   0.0000
    98 H55       4.7573   -1.0700    4.4212   H         1 RES1   0.0000
    99 H56       3.5703    1.2815    2.5140   H         1 RES1   0.0000
   100 H57       4.2605    1.0837    4.1352   H         1 RES1   0.0000
   101 H58       1.4267    1.9021    3.3624   H         1 RES1   0.0000
   102 H59       2.6186    2.8282    4.2762   H         1 RES1   0.0000
   103 H60       2.4474    1.2237    6.1678   H         1 RES1   0.0000
   104 H61       1.2791    0.2654    5.2487   H         1 RES1   0.0000
   105 H62      -0.2547    2.2644    5.2112   H         1 RES1   0.0000
   106 H63       0.8929    3.1092    6.2521   H         1 RES1   0.0000
   107 H64      -0.8300    2.2158    7.6515   H         1 RES1   0.0000
   108 H65       0.6181    1.2620    7.9544   H         1 RES1   0.0000
   109 H66      -1.6750    0.4179    6.1126   H         1 RES1   0.0000
   110 H67      -1.4529   -0.1323    7.7683   H         1 RES1   0.0000
   111 H68      -0.2767   -0.5782    6.5446   H         1 RES1   0.0000
   112 C35       3.8497   -2.3356   -7.2861   C.3       1 RES1   0.0000
   113 C36       3.7645   -3.5818   -6.4129   C.3       1 RES1   0.0000
   114 C37       4.6940   -3.5899   -5.1943   C.3       1 RES1   0.0000
   115 C38       4.3712   -2.5341   -4.1289   C.3       1 RES1   0.0000
   116 C39       5.0577   -1.2004   -4.4102   C.3       1 RES1   0.0000
   117 C40       4.7732   -0.1424   -3.3405   C.3       1 RES1   0.0000
   118 N5        3.3521    0.0141   -3.0782   N.am      1 RES1   0.0000
   119 C41       2.5578    0.5094   -4.1940   C.3       1 RES1   0.0000
   120 C42       2.6825   -0.3054   -1.9687   C.2       1 RES1   0.0000
   121 O5        1.4460   -0.1853   -1.9219   O.2       1 RES1   0.0000
   122 C43       3.4093   -0.7694   -0.6998   C.3       1 RES1   0.0000
   123 C44       2.7346   -2.0567   -0.2234   C.2       1 RES1   0.0000
   124 O6        1.5071   -2.0294   -0.0199   O.2       1 RES1   0.0000
   125 N6        3.4280   -3.1815   -0.0315   N.am      1 RES1   0.0000
   126 C45       4.8640   -3.3578   -0.0522   C.3       1 RES1   0.0000
   127 C46       2.6704   -4.3881    0.3053   C.3       1 RES1   0.0000
   128 C47       1.9668   -4.9877   -0.9089   C.3       1 RES1   0.0000
   129 C48       2.9186   -5.5926   -1.9412   C.3       1 RES1   0.0000
   130 C49       2.1601   -6.3241   -3.0527   C.3       1 RES1   0.0000
   131 C50       1.4005   -5.3688   -3.9684   C.3       1 RES1   0.0000
   132 C51       0.5958   -6.1134   -5.0248   C.3       1 RES1   0.0000
   133 H69       3.3951   -2.5267   -8.2551   H         1 RES1   0.0000
   134 H70       4.8868   -2.0588   -7.4531   H         1 RES1   0.0000
   135 H71       3.3191   -1.4991   -6.8341   H         1 RES1   0.0000
   136 H72       4.0196   -4.4503   -7.0207   H         1 RES1   0.0000
   137 H73       2.7278   -3.7038   -6.0912   H         1 RES1   0.0000
   138 H74       5.7258   -3.4605   -5.5260   H         1 RES1   0.0000
   139 H75       4.6297   -4.5805   -4.7365   H         1 RES1   0.0000
   140 H76       4.7096   -2.8931   -3.1532   H         1 RES1   0.0000
   141 H77       3.2862   -2.4044   -4.0747   H         1 RES1   0.0000
   142 H78       4.7522   -0.8376   -5.3860   H         1 RES1   0.0000
   143 H79       6.1383   -1.3486   -4.4483   H         1 RES1   0.0000
   144 H80       5.1652    0.8200   -3.6825   H         1 RES1   0.0000
   145 H81       5.3032   -0.4039   -2.4283   H         1 RES1   0.0000
   146 H82       3.2164    0.8532   -4.9862   H         1 RES1   0.0000
   147 H83       1.9157    1.3264   -3.8616   H         1 RES1   0.0000
   148 H84       1.9139   -0.2766   -4.5859   H         1 RES1   0.0000
   149 H85       3.1705   -0.0024    0.0521   H         1 RES1   0.0000
   150 H86       4.4809   -0.8566   -0.8237   H         1 RES1   0.0000
   151 H87       5.3957   -2.4441   -0.2941   H         1 RES1   0.0000
   152 H88       5.1439   -4.1225   -0.7781   H         1 RES1   0.0000
   153 H89       5.1921   -3.6967    0.9340   H         1 RES1   0.0000
   154 H90       1.9042   -4.1282    1.0390   H         1 RES1   0.0000
   155 H91       3.3488   -5.1234    0.7365   H         1 RES1   0.0000
   156 H92       1.3458   -4.2171   -1.3661   H         1 RES1   0.0000
   157 H93       1.3031   -5.7746   -0.5515   H         1 RES1   0.0000
   158 H94       3.5822   -6.3033   -1.4414   H         1 RES1   0.0000
   159 H95       3.5336   -4.8129   -2.3962   H         1 RES1   0.0000
   160 H96       1.4611   -7.0317   -2.6014   H         1 RES1   0.0000
   161 H97       2.8689   -6.8982   -3.6526   H         1 RES1   0.0000
   162 H98       2.1109   -4.7028   -4.4547   H         1 RES1   0.0000
   163 H99       0.7297   -4.7516   -3.3741   H         1 RES1   0.0000
   164 H100      1.2576   -6.7008   -5.6551   H         1 RES1   0.0000
   165 H101      0.0462   -5.4183   -5.6584   H         1 RES1   0.0000
   166 H102     -0.1124   -6.7965   -4.5588   H         1 RES1   0.0000
   167 C52      -4.4035    6.2920   -0.5889   C.3       1 RES1   0.0000
   168 C53      -4.7102    5.5558    0.7094   C.3       1 RES1   0.0000
   169 C54      -4.0486    4.1782    0.7898   C.3       1 RES1   0.0000
   170 C55      -4.5842    3.3587    1.9650   C.3       1 RES1   0.0000
   171 C56      -3.8224    2.0374    2.1771   C.3       1 RES1   0.0000
   172 C57      -4.6087    0.7583    1.8550   C.3       1 RES1   0.0000
   173 N7       -4.5943    0.2966    0.4640   N.am      1 RES1   0.0000
   174 C58      -5.8146   -0.3157   -0.0376   C.3       1 RES1   0.0000
   175 C59      -3.4353    0.1148   -0.1728   C.2       1 RES1   0.0000
   176 O7       -2.3489    0.4501    0.3264   O.2       1 RES1   0.0000
   177 C60      -3.4665   -0.4229   -1.5942   C.3       1 RES1   0.0000
   178 C61      -2.3707   -1.4506   -1.8757   C.2       1 RES1   0.0000
   179 O8       -1.4282   -1.6258   -1.0892   O.2       1 RES1   0.0000
   180 N8       -2.4815   -2.1437   -3.0072   N.am      1 RES1   0.0000
   181 C62      -3.4467   -1.9367   -4.0666   C.3       1 RES1   0.0000
   182 C63      -1.5235   -3.2148   -3.2562   C.3       1 RES1   0.0000
   183 C64      -1.8665   -4.4439   -2.4109   C.3       1 RES1   0.0000
   184 C65      -3.3416   -4.8318   -2.5135   C.3       1 RES1   0.0000
   185 C66      -3.6998   -5.9179   -1.5028   C.3       1 RES1   0.0000
   186 C67      -5.2016   -6.1846   -1.3930   C.3       1 RES1   0.0000
   187 C68      -5.9786   -4.9834   -0.8623   C.3       1 RES1   0.0000
   188 H103     -4.8760    7.2691   -0.5800   H         1 RES1   0.0000
   189 H104     -4.7897    5.7447   -1.4471   H         1 RES1   0.0000
   190 H105     -3.3314    6.4487   -0.7102   H         1 RES1   0.0000
   191 H106     -5.7910    5.4502    0.8147   H         1 RES1   0.0000
   192 H107     -4.3588    6.1617    1.5449   H         1 RES1   0.0000
   193 H108     -2.9713    4.3140    0.9180   H         1 RES1   0.0000
   194 H109     -4.2116    3.6209   -0.1342   H         1 RES1   0.0000
   195 H110     -5.6422    3.1523    1.8049   H         1 RES1   0.0000
   196 H111     -4.5162    3.9763    2.8643   H         1 RES1   0.0000
   197 H112     -3.5516    1.9681    3.2325   H         1 RES1   0.0000
   198 H113     -2.9072    2.0544    1.5905   H         1 RES1   0.0000
   199 H114     -5.6474    0.9302    2.1290   H         1 RES1   0.0000
   200 H115     -4.2215   -0.0562    2.4759   H         1 RES1   0.0000
   201 H116     -6.6239   -0.1405    0.6632   H         1 RES1   0.0000
   202 H117     -5.6804   -1.3959   -0.1362   H         1 RES1   0.0000
   203 H118     -6.1148    0.1117   -0.9946   H         1 RES1   0.0000
   204 H119     -3.2077    0.4326   -2.2245   H         1 RES1   0.0000
   205 H120     -4.4369   -0.8195   -1.8742   H         1 RES1   0.0000
   206 H121     -4.2538   -1.2669   -3.7889   H         1 RES1   0.0000
   207 H122     -3.8929   -2.8889   -4.3513   H         1 RES1   0.0000
   208 H123     -2.9358   -1.5252   -4.9405   H         1 RES1   0.0000
   209 H124     -0.5253   -2.8535   -2.9951   H         1 RES1   0.0000
   210 H125     -1.5554   -3.4611   -4.3169   H         1 RES1   0.0000
   211 H126     -1.6275   -4.2298   -1.3664   H         1 RES1   0.0000
   212 H127     -1.2518   -5.2847   -2.7290   H         1 RES1   0.0000
   213 H128     -3.5710   -5.1796   -3.5231   H         1 RES1   0.0000
   214 H129     -3.9591   -3.9597   -2.2943   H         1 RES1   0.0000
   215 H130     -3.3374   -5.5972   -0.5271   H         1 RES1   0.0000
   216 H131     -3.1865   -6.8435   -1.7670   H         1 RES1   0.0000
   217 H132     -5.3476   -7.0253   -0.7121   H         1 RES1   0.0000
   218 H133     -5.5985   -6.4797   -2.3647   H         1 RES1   0.0000
   219 H134     -5.5187   -4.6056    0.0504   H         1 RES1   0.0000
   220 H135     -6.9990   -5.2715   -0.6302   H         1 RES1   0.0000
   221 H136     -6.0186   -4.1804   -1.5959   H         1 RES1   0.0000
   222 O9       -0.7314    1.5704    2.1621   O.3       1 RES1   0.0000
   223 H137     -0.7558    2.3213    2.7711   H         1 RES1   0.0000
   224 H138     -1.0673    0.8149    2.6636   H         1 RES1   0.0000
@<TRIPOS>BOND
     1     1    11    1
     2     1    14    1
     3     1    66    1
     4     1    69    1
     5     1   121    1
     6     1   124    1
     7     1   176    1
     8     1   179    1
     9     1   222    1
    10     2     3    1
    11     2    23    1
    12     2    24    1
    13     2    25    1
    14     3     4    1
    15     3    26    1
    16     3    27    1
    17     4     5    1
    18     4    28    1
    19     4    29    1
    20     5     6    1
    21     5    30    1
    22     5    31    1
    23     6     7    1
    24     6    32    1
    25     6    33    1
    26     7     8    1
    27     7    34    1
    28     7    35    1
    29     8     9    1
    30     8    10    1
    31     9    36    1
    32     9    37    1
    33     9    38    1
    34    10    11    2
    35    10    12    1
    36    12    13    1
    37    12    39    1
    38    12    40    1
    39    13    14    2
    40    13    15    1
    41    15    16    1
    42    15    17    1
    43    16    41    1
    44    16    42    1
    45    16    43    1
    46    17    18    1
    47    17    44    1
    48    17    45    1
    49    18    19    1
    50    18    46    1
    51    18    47    1
    52    19    20    1
    53    19    48    1
    54    19    49    1
    55    20    21    1
    56    20    50    1
    57    20    51    1
    58    21    22    1
    59    21    52    1
    60    21    53    1
    61    22    54    1
    62    22    55    1
    63    22    56    1
    64    57    58    1
    65    57    78    1
    66    57    79    1
    67    57    80    1
    68    58    59    1
    69    58    81    1
    70    58    82    1
    71    59    60    1
    72    59    83    1
    73    59    84    1
    74    60    61    1
    75    60    85    1
    76    60    86    1
    77    61    62    1
    78    61    87    1
    79    61    88    1
    80    62    63    1
    81    62    89    1
    82    62    90    1
    83    63    64    1
    84    63    65    1
    85    64    91    1
    86    64    92    1
    87    64    93    1
    88    65    66    2
    89    65    67    1
    90    67    68    1
    91    67    94    1
    92    67    95    1
    93    68    69    2
    94    68    70    1
    95    70    71    1
    96    70    72    1
    97    71    96    1
    98    71    97    1
    99    71    98    1
   100    72    73    1
   101    72    99    1
   102    72   100    1
   103    73    74    1
   104    73   101    1
   105    73   102    1
   106    74    75    1
   107    74   103    1
   108    74   104    1
   109    75    76    1
   110    75   105    1
   111    75   106    1
   112    76    77    1
   113    76   107    1
   114    76   108    1
   115    77   109    1
   116    77   110    1
   117    77   111    1
   118   112   113    1
   119   112   133    1
   120   112   134    1
   121   112   135    1
   122   113   114    1
   123   113   136    1
   124   113   137    1
   125   114   115    1
   126   114   138    1
   127   114   139    1
   128   115   116    1
   129   115   140    1
   130   115   141    1
   131   116   117    1
   132   116   142    1
   133   116   143    1
   134   117   118    1
   135   117   144    1
   136   117   145    1
   137   118   119    1
   138   118   120    1
   139   119   146    1
   140   119   147    1
   141   119   148    1
   142   120   121    2
   143   120   122    1
   144   122   123    1
   145   122   149    1
   146   122   150    1
   147   123   124    2
   148   123   125    1
   149   125   126    1
   150   125   127    1
   151   126   151    1
   152   126   152    1
   153   126   153    1
   154   127   128    1
   155   127   154    1
   156   127   155    1
   157   128   129    1
   158   128   156    1
   159   128   157    1
   160   129   130    1
   161   129   158    1
   162   129   159    1
   163   130   131    1
   164   130   160    1
   165   130   161    1
   166   131   132    1
   167   131   162    1
   168   131   163    1
   169   132   164    1
   170   132   165    1
   171   132   166    1
   172   167   168    1
   173   167   188    1
   174   167   189    1
   175   167   190    1
   176   168   169    1
   177   168   191    1
   178   168   192    1
   179   169   170    1
   180   169   193    1
   181   169   194    1
   182   170   171    1
   183   170   195    1
   184   170   196    1
   185   171   172    1
   186   171   197    1
   187   171   198    1
   188   172   173    1
   189   172   199    1
   190   172   200    1
   191   173   174    1
   192   173   175    1
   193   174   201    1
   194   174   202    1
   195   174   203    1
   196   175   176    2
   197   175   177    1
   198   177   178    1
   199   177   204    1
   200   177   205    1
   201   178   179    2
   202   178   180    1
   203   180   181    1
   204   180   182    1
   205   181   206    1
   206   181   207    1
   207   181   208    1
   208   182   183    1
   209   182   209    1
   210   182   210    1
   211   183   184    1
   212   183   211    1
   213   183   212    1
   214   184   185    1
   215   184   213    1
   216   184   214    1
   217   185   186    1
   218   185   215    1
   219   185   216    1
   220   186   187    1
   221   186   217    1
   222   186   218    1
   223   187   219    1
   224   187   220    1
   225   187   221    1
   226   222   223    1
   227   222   224    1
@<TRIPOS>SUBSTRUCTURE
     1 RES1      224 GROUP             0 ****  ****    0  
