@<TRIPOS>MOLECULE
tri_tri_mer_capped_0_nunpairedes_0_charge_3 Charge: 3 Unpaired_Electrons: 7 XTB_Unpaired_Electrons: 0 XTB_Charge: 3
   448   453     1     0     0
SMALL
NoCharges
****
Generated from Architector

@<TRIPOS>ATOM
     1 Gd1       0.2950   -0.1551    0.3879   Gd        1 RES1   0.0000
     2 C1       -3.8891   -3.9644    5.5283   C.3       1 RES1   0.0000
     3 C2       -4.0516   -4.0336    7.0449   C.3       1 RES1   0.0000
     4 C3       -3.5114   -2.7960    7.7640   C.3       1 RES1   0.0000
     5 C4       -1.9853   -2.7794    7.7708   C.3       1 RES1   0.0000
     6 C5       -1.3661   -1.6109    8.5327   C.3       1 RES1   0.0000
     7 C6       -1.8223   -0.2182    8.0910   C.3       1 RES1   0.0000
     8 C7       -1.7446    0.0582    6.5882   C.3       1 RES1   0.0000
     9 C8       -0.3204   -0.1422    6.0607   C.3       1 RES1   0.0000
    10 N1       -0.0923    0.5019    4.7758   N.am      1 RES1   0.0000
    11 C9        0.0160    1.9552    4.8102   C.3       1 RES1   0.0000
    12 C10       1.4049    2.4549    5.2215   C.3       1 RES1   0.0000
    13 C11       2.5595    1.7655    4.4965   C.3       1 RES1   0.0000
    14 C12       3.0774    0.4715    5.1531   C.3       1 RES1   0.0000
    15 C13       3.9046    0.7332    6.4256   C.3       1 RES1   0.0000
    16 C14       3.1242    0.6423    7.7376   C.3       1 RES1   0.0000
    17 C15       4.0341    0.5216    8.9601   C.3       1 RES1   0.0000
    18 C16       4.9407    1.7231    9.1838   C.3       1 RES1   0.0000
    19 C17       3.8914   -0.2881    4.0900   C.3       1 RES1   0.0000
    20 C18       4.3068   -1.7304    4.4470   C.3       1 RES1   0.0000
    21 C19       5.6385   -1.8580    5.2177   C.3       1 RES1   0.0000
    22 C20       6.5646   -2.9721    4.7109   C.3       1 RES1   0.0000
    23 C21       5.9710   -4.3783    4.7526   C.3       1 RES1   0.0000
    24 C22       6.9415   -5.4219    4.2128   C.3       1 RES1   0.0000
    25 C23       0.1260   -0.1102    3.6192   C.2       1 RES1   0.0000
    26 O1        0.3082    0.5139    2.5525   O.2       1 RES1   0.0000
    27 C24       0.2001   -1.6433    3.5901   C.3       1 RES1   0.0000
    28 O2        0.2617   -2.1140    2.2451   O.3       1 RES1   0.0000
    29 C25       1.3044   -3.0276    1.9375   C.3       1 RES1   0.0000
    30 C26       2.4399   -2.2533    1.2552   C.2       1 RES1   0.0000
    31 O3        2.2795   -1.0189    1.1427   O.2       1 RES1   0.0000
    32 N2        3.5873   -2.8319    0.9304   N.am      1 RES1   0.0000
    33 C27       4.7537   -1.9559    0.7762   C.3       1 RES1   0.0000
    34 C28       5.0625   -1.5631   -0.6676   C.3       1 RES1   0.0000
    35 C29       4.4142   -0.2567   -1.1593   C.3       1 RES1   0.0000
    36 C30       4.0933   -0.2747   -2.6679   C.3       1 RES1   0.0000
    37 C31       4.5410    0.9881   -3.4029   C.3       1 RES1   0.0000
    38 C32       4.5595    0.9168   -4.9362   C.3       1 RES1   0.0000
    39 C33       3.2199    0.9605   -5.6826   C.3       1 RES1   0.0000
    40 C34       2.6580   -0.3869   -6.1054   C.3       1 RES1   0.0000
    41 C35       3.8349   -4.2557    0.7161   C.3       1 RES1   0.0000
    42 C36       2.6425   -5.0380    0.1633   C.3       1 RES1   0.0000
    43 C37       3.0485   -6.1621   -0.7926   C.3       1 RES1   0.0000
    44 C38       1.8312   -6.6862   -1.5738   C.3       1 RES1   0.0000
    45 C39       0.9094   -7.5931   -0.7345   C.3       1 RES1   0.0000
    46 C40      -0.5679   -7.1796   -0.7731   C.3       1 RES1   0.0000
    47 C41      -0.8467   -5.9140    0.0372   C.3       1 RES1   0.0000
    48 C42      -2.3234   -5.5464    0.0251   C.3       1 RES1   0.0000
    49 C43       2.3128   -7.3642   -2.8627   C.3       1 RES1   0.0000
    50 C44       1.1647   -7.7214   -3.8084   C.3       1 RES1   0.0000
    51 C45       1.6051   -7.9456   -5.2578   C.3       1 RES1   0.0000
    52 C46       2.0016   -6.6431   -5.9580   C.3       1 RES1   0.0000
    53 C47       2.0567   -6.7522   -7.4840   C.3       1 RES1   0.0000
    54 C48       3.2585   -7.5607   -7.9627   C.3       1 RES1   0.0000
    55 H1       -4.2726   -4.8714    5.0645   H         1 RES1   0.0000
    56 H2       -4.4448   -3.1162    5.1281   H         1 RES1   0.0000
    57 H3       -2.8398   -3.8611    5.2515   H         1 RES1   0.0000
    58 H4       -5.1115   -4.1520    7.2686   H         1 RES1   0.0000
    59 H5       -3.5414   -4.9211    7.4224   H         1 RES1   0.0000
    60 H6       -3.9089   -1.9013    7.2802   H         1 RES1   0.0000
    61 H7       -3.8725   -2.7974    8.7925   H         1 RES1   0.0000
    62 H8       -1.6412   -3.7032    8.2401   H         1 RES1   0.0000
    63 H9       -1.6146   -2.7804    6.7439   H         1 RES1   0.0000
    64 H10      -1.5988   -1.7275    9.5908   H         1 RES1   0.0000
    65 H11      -0.2802   -1.6814    8.4532   H         1 RES1   0.0000
    66 H12      -2.8464   -0.0558    8.4225   H         1 RES1   0.0000
    67 H13      -1.2012    0.5154    8.6047   H         1 RES1   0.0000
    68 H14      -2.4403   -0.5821    6.0530   H         1 RES1   0.0000
    69 H15      -2.0690    1.0849    6.4147   H         1 RES1   0.0000
    70 H16       0.3776    0.2977    6.7766   H         1 RES1   0.0000
    71 H17      -0.0982   -1.2046    5.9840   H         1 RES1   0.0000
    72 H18      -0.2274    2.3164    3.8095   H         1 RES1   0.0000
    73 H19      -0.7189    2.3431    5.5133   H         1 RES1   0.0000
    74 H20       1.4170    3.5152    4.9761   H         1 RES1   0.0000
    75 H21       1.5420    2.3871    6.2981   H         1 RES1   0.0000
    76 H22       2.2587    1.5612    3.4633   H         1 RES1   0.0000
    77 H23       3.3919    2.4656    4.4338   H         1 RES1   0.0000
    78 H24       2.2279   -0.1656    5.4209   H         1 RES1   0.0000
    79 H25       4.7006   -0.0037    6.4748   H         1 RES1   0.0000
    80 H26       4.3775    1.7113    6.3566   H         1 RES1   0.0000
    81 H27       2.4897    1.5200    7.8638   H         1 RES1   0.0000
    82 H28       2.4741   -0.2370    7.7183   H         1 RES1   0.0000
    83 H29       3.4048    0.3897    9.8413   H         1 RES1   0.0000
    84 H30       4.6512   -0.3722    8.8650   H         1 RES1   0.0000
    85 H31       4.3729    2.6488    9.1829   H         1 RES1   0.0000
    86 H32       5.4241    1.6357   10.1514   H         1 RES1   0.0000
    87 H33       5.7158    1.7905    8.4261   H         1 RES1   0.0000
    88 H34       3.2649   -0.3297    3.1926   H         1 RES1   0.0000
    89 H35       4.7766    0.2983    3.8269   H         1 RES1   0.0000
    90 H36       3.5079   -2.2040    5.0296   H         1 RES1   0.0000
    91 H37       4.4017   -2.2952    3.5121   H         1 RES1   0.0000
    92 H38       6.1969   -0.9216    5.1232   H         1 RES1   0.0000
    93 H39       5.4363   -2.0275    6.2787   H         1 RES1   0.0000
    94 H40       6.8718   -2.7389    3.6870   H         1 RES1   0.0000
    95 H41       7.4619   -2.9531    5.3318   H         1 RES1   0.0000
    96 H42       5.7109   -4.6325    5.7801   H         1 RES1   0.0000
    97 H43       5.0500   -4.4052    4.1634   H         1 RES1   0.0000
    98 H44       7.8146   -5.5072    4.8515   H         1 RES1   0.0000
    99 H45       6.4616   -6.3953    4.1711   H         1 RES1   0.0000
   100 H46       7.2823   -5.1595    3.2137   H         1 RES1   0.0000
   101 H47       1.0926   -1.9455    4.1556   H         1 RES1   0.0000
   102 H48      -0.7038   -2.0749    4.0351   H         1 RES1   0.0000
   103 H49       1.7025   -3.5121    2.8379   H         1 RES1   0.0000
   104 H50       0.8388   -3.7929    1.3145   H         1 RES1   0.0000
   105 H51       4.5955   -1.0678    1.3892   H         1 RES1   0.0000
   106 H52       5.6033   -2.5014    1.1889   H         1 RES1   0.0000
   107 H53       6.1446   -1.4737   -0.7676   H         1 RES1   0.0000
   108 H54       4.7558   -2.3889   -1.3048   H         1 RES1   0.0000
   109 H55       3.4989   -0.0631   -0.5954   H         1 RES1   0.0000
   110 H56       5.1179    0.5486   -0.9497   H         1 RES1   0.0000
   111 H57       4.6080   -1.1197   -3.1127   H         1 RES1   0.0000
   112 H58       3.0222   -0.4310   -2.7954   H         1 RES1   0.0000
   113 H59       3.9477    1.8445   -3.0786   H         1 RES1   0.0000
   114 H60       5.5664    1.1904   -3.0946   H         1 RES1   0.0000
   115 H61       5.1464    1.7756   -5.2671   H         1 RES1   0.0000
   116 H62       5.1061    0.0260   -5.2440   H         1 RES1   0.0000
   117 H63       2.4809    1.5068   -5.0951   H         1 RES1   0.0000
   118 H64       3.3544    1.5375   -6.5945   H         1 RES1   0.0000
   119 H65       2.4232   -1.0078   -5.2477   H         1 RES1   0.0000
   120 H66       3.3875   -0.9012   -6.7216   H         1 RES1   0.0000
   121 H67       1.7596   -0.2563   -6.7070   H         1 RES1   0.0000
   122 H68       4.6413   -4.3064   -0.0195   H         1 RES1   0.0000
   123 H69       4.2203   -4.7247    1.6260   H         1 RES1   0.0000
   124 H70       2.0676   -5.4825    0.9743   H         1 RES1   0.0000
   125 H71       2.0029   -4.3448   -0.3898   H         1 RES1   0.0000
   126 H72       3.7805   -5.7819   -1.5090   H         1 RES1   0.0000
   127 H73       3.5179   -6.9756   -0.2397   H         1 RES1   0.0000
   128 H74       1.2344   -5.8153   -1.8702   H         1 RES1   0.0000
   129 H75       0.9941   -8.6178   -1.0964   H         1 RES1   0.0000
   130 H76       1.2264   -7.5963    0.3108   H         1 RES1   0.0000
   131 H77      -0.8924   -7.0277   -1.8050   H         1 RES1   0.0000
   132 H78      -1.1696   -7.9937   -0.3623   H         1 RES1   0.0000
   133 H79      -0.5249   -6.0840    1.0689   H         1 RES1   0.0000
   134 H80      -0.2752   -5.0741   -0.3745   H         1 RES1   0.0000
   135 H81      -2.9214   -6.3685    0.4085   H         1 RES1   0.0000
   136 H82      -2.4970   -4.6737    0.6508   H         1 RES1   0.0000
   137 H83      -2.6502   -5.3279   -0.9897   H         1 RES1   0.0000
   138 H84       2.9952   -6.6829   -3.3753   H         1 RES1   0.0000
   139 H85       2.8786   -8.2600   -2.6042   H         1 RES1   0.0000
   140 H86       0.6758   -8.6223   -3.4395   H         1 RES1   0.0000
   141 H87       0.4183   -6.9199   -3.7949   H         1 RES1   0.0000
   142 H88       2.4357   -8.6523   -5.2788   H         1 RES1   0.0000
   143 H89       0.7694   -8.3961   -5.7970   H         1 RES1   0.0000
   144 H90       1.2734   -5.8692   -5.6918   H         1 RES1   0.0000
   145 H91       2.9864   -6.3291   -5.6034   H         1 RES1   0.0000
   146 H92       1.1351   -7.2064   -7.8563   H         1 RES1   0.0000
   147 H93       2.1200   -5.7454   -7.9094   H         1 RES1   0.0000
   148 H94       3.2330   -8.5676   -7.5530   H         1 RES1   0.0000
   149 H95       3.2658   -7.6344   -9.0490   H         1 RES1   0.0000
   150 H96       4.1867   -7.0836   -7.6461   H         1 RES1   0.0000
   151 C49      -5.2691   -0.9531   -3.8197   C.3       1 RES1   0.0000
   152 C50      -5.5109   -1.9703   -4.9265   C.3       1 RES1   0.0000
   153 C51      -4.3571   -2.9586   -5.0940   C.3       1 RES1   0.0000
   154 C52      -3.0724   -2.3076   -5.6129   C.3       1 RES1   0.0000
   155 C53      -2.0996   -3.3212   -6.2228   C.3       1 RES1   0.0000
   156 C54      -1.5095   -4.3428   -5.2483   C.3       1 RES1   0.0000
   157 C55      -0.6208   -3.7748   -4.1395   C.3       1 RES1   0.0000
   158 C56       0.5778   -2.9584   -4.6422   C.3       1 RES1   0.0000
   159 N3        1.3795   -2.5552   -3.4862   N.am      1 RES1   0.0000
   160 C57       2.5074   -3.4204   -3.1217   C.3       1 RES1   0.0000
   161 C58       3.5849   -3.3972   -4.2302   C.3       1 RES1   0.0000
   162 C59       5.0000   -3.7933   -3.7589   C.3       1 RES1   0.0000
   163 C60       6.1458   -2.9098   -4.3213   C.3       1 RES1   0.0000
   164 C61       6.7196   -3.4737   -5.6286   C.3       1 RES1   0.0000
   165 C62       5.7269   -3.4884   -6.7902   C.3       1 RES1   0.0000
   166 C63       6.4114   -3.5166   -8.1576   C.3       1 RES1   0.0000
   167 C64       7.4066   -4.6553   -8.3255   C.3       1 RES1   0.0000
   168 C65       7.2859   -2.7004   -3.2930   C.3       1 RES1   0.0000
   169 C66       7.6669   -1.2403   -3.0003   C.3       1 RES1   0.0000
   170 C67       8.3064   -0.5010   -4.1766   C.3       1 RES1   0.0000
   171 C68       9.0512    0.7757   -3.7518   C.3       1 RES1   0.0000
   172 C69       8.1874    2.0185   -3.5306   C.3       1 RES1   0.0000
   173 C70       9.0382    3.2777   -3.4359   C.3       1 RES1   0.0000
   174 C71       0.9244   -1.6094   -2.6565   C.2       1 RES1   0.0000
   175 O4        1.0712   -1.6191   -1.4136   O.2       1 RES1   0.0000
   176 C72       0.2409   -0.3743   -3.2887   C.3       1 RES1   0.0000
   177 O5        0.2711    0.7133   -2.3581   O.3       1 RES1   0.0000
   178 C73       1.0587    1.8643   -2.7059   C.3       1 RES1   0.0000
   179 C74       1.8267    2.3415   -1.4708   C.2       1 RES1   0.0000
   180 O6        1.7938    1.5603   -0.4975   O.2       1 RES1   0.0000
   181 N4        2.5029    3.4996   -1.5017   N.am      1 RES1   0.0000
   182 C75       3.7421    3.6706   -0.6733   C.3       1 RES1   0.0000
   183 C76       3.7914    2.9311    0.6699   C.3       1 RES1   0.0000
   184 C77       5.0818    3.1157    1.5029   C.3       1 RES1   0.0000
   185 C78       5.0173    4.2761    2.5053   C.3       1 RES1   0.0000
   186 C79       5.7458    4.0764    3.8345   C.3       1 RES1   0.0000
   187 C80       5.7737    5.4042    4.6016   C.3       1 RES1   0.0000
   188 C81       5.8828    5.2318    6.1206   C.3       1 RES1   0.0000
   189 C82       4.4867    5.1170    6.7247   C.3       1 RES1   0.0000
   190 C83       2.4299    4.4774   -2.6324   C.3       1 RES1   0.0000
   191 C84       1.1627    5.3468   -2.9714   C.3       1 RES1   0.0000
   192 C85       0.9672    6.8028   -2.4252   C.3       1 RES1   0.0000
   193 C86      -0.3548    7.1433   -1.6723   C.3       1 RES1   0.0000
   194 C87      -1.5707    7.1344   -2.6161   C.3       1 RES1   0.0000
   195 C88      -2.8989    7.0940   -1.8374   C.3       1 RES1   0.0000
   196 C89      -4.0543    6.3048   -2.4791   C.3       1 RES1   0.0000
   197 C90      -4.7884    5.4303   -1.4628   C.3       1 RES1   0.0000
   198 C91      -0.2176    8.4848   -0.9128   C.3       1 RES1   0.0000
   199 C92      -1.2340    8.6807    0.2327   C.3       1 RES1   0.0000
   200 C93      -0.6907    9.3081    1.5328   C.3       1 RES1   0.0000
   201 C94      -0.3115    8.2254    2.5477   C.3       1 RES1   0.0000
   202 C95      -0.2537    8.6644    4.0108   C.3       1 RES1   0.0000
   203 C96       0.7139    9.8165    4.2438   C.3       1 RES1   0.0000
   204 H97      -6.1488   -0.3316   -3.6764   H         1 RES1   0.0000
   205 H98      -5.0545   -1.4702   -2.8872   H         1 RES1   0.0000
   206 H99      -4.4284   -0.3070   -4.0617   H         1 RES1   0.0000
   207 H100     -6.4204   -2.5262   -4.6994   H         1 RES1   0.0000
   208 H101     -5.6796   -1.4485   -5.8678   H         1 RES1   0.0000
   209 H102     -4.1632   -3.4488   -4.1374   H         1 RES1   0.0000
   210 H103     -4.6682   -3.7288   -5.8013   H         1 RES1   0.0000
   211 H104     -3.3416   -1.5896   -6.3916   H         1 RES1   0.0000
   212 H105     -2.5822   -1.7470   -4.8103   H         1 RES1   0.0000
   213 H106     -2.6444   -3.8728   -6.9913   H         1 RES1   0.0000
   214 H107     -1.2917   -2.7903   -6.7300   H         1 RES1   0.0000
   215 H108     -2.3254   -4.8945   -4.7784   H         1 RES1   0.0000
   216 H109     -0.9278   -5.0603   -5.8293   H         1 RES1   0.0000
   217 H110     -1.2064   -3.1544   -3.4568   H         1 RES1   0.0000
   218 H111     -0.2425   -4.6161   -3.5540   H         1 RES1   0.0000
   219 H112      1.1911   -3.5605   -5.3116   H         1 RES1   0.0000
   220 H113      0.2429   -2.0837   -5.1965   H         1 RES1   0.0000
   221 H114      2.8974   -3.0129   -2.1874   H         1 RES1   0.0000
   222 H115      2.1792   -4.4453   -2.9475   H         1 RES1   0.0000
   223 H116      3.2867   -4.0523   -5.0479   H         1 RES1   0.0000
   224 H117      3.6266   -2.3853   -4.6226   H         1 RES1   0.0000
   225 H118      5.0221   -3.7438   -2.6707   H         1 RES1   0.0000
   226 H119      5.2061   -4.8329   -4.0161   H         1 RES1   0.0000
   227 H120      5.7385   -1.9246   -4.5629   H         1 RES1   0.0000
   228 H121      7.5601   -2.8415   -5.9161   H         1 RES1   0.0000
   229 H122      7.1033   -4.4790   -5.4473   H         1 RES1   0.0000
   230 H123      5.0605   -4.3470   -6.7031   H         1 RES1   0.0000
   231 H124      5.1120   -2.5857   -6.7317   H         1 RES1   0.0000
   232 H125      5.6378   -3.5948   -8.9218   H         1 RES1   0.0000
   233 H126      6.9257   -2.5691   -8.3195   H         1 RES1   0.0000
   234 H127      6.9569   -5.6090   -8.0669   H         1 RES1   0.0000
   235 H128      7.7405   -4.7088   -9.3566   H         1 RES1   0.0000
   236 H129      8.2815   -4.5057   -7.7008   H         1 RES1   0.0000
   237 H130      7.0146   -3.1697   -2.3449   H         1 RES1   0.0000
   238 H131      8.1797   -3.2107   -3.6505   H         1 RES1   0.0000
   239 H132      6.7962   -0.6834   -2.6592   H         1 RES1   0.0000
   240 H133      8.3942   -1.2525   -2.1828   H         1 RES1   0.0000
   241 H134      9.0344   -1.1705   -4.6399   H         1 RES1   0.0000
   242 H135      7.5535   -0.2559   -4.9310   H         1 RES1   0.0000
   243 H136      9.6097    0.5697   -2.8363   H         1 RES1   0.0000
   244 H137      9.7771    1.0159   -4.5302   H         1 RES1   0.0000
   245 H138      7.4954    2.1271   -4.3681   H         1 RES1   0.0000
   246 H139      7.6042    1.9214   -2.6112   H         1 RES1   0.0000
   247 H140      9.6316    3.3965   -4.3367   H         1 RES1   0.0000
   248 H141      8.4120    4.1570   -3.3130   H         1 RES1   0.0000
   249 H142      9.7175    3.2266   -2.5917   H         1 RES1   0.0000
   250 H143      0.7466   -0.0920   -4.2153   H         1 RES1   0.0000
   251 H144     -0.8071   -0.6112   -3.5116   H         1 RES1   0.0000
   252 H145      1.8142    1.5969   -3.4478   H         1 RES1   0.0000
   253 H146      0.4194    2.6411   -3.1205   H         1 RES1   0.0000
   254 H147      4.5745    3.3393   -1.3056   H         1 RES1   0.0000
   255 H148      3.8693    4.7375   -0.5063   H         1 RES1   0.0000
   256 H149      2.9356    3.2560    1.2622   H         1 RES1   0.0000
   257 H150      3.6725    1.8696    0.4754   H         1 RES1   0.0000
   258 H151      5.2303    2.1910    2.0624   H         1 RES1   0.0000
   259 H152      5.9450    3.2239    0.8447   H         1 RES1   0.0000
   260 H153      5.4102    5.1759    2.0341   H         1 RES1   0.0000
   261 H154      3.9700    4.4475    2.7562   H         1 RES1   0.0000
   262 H155      5.2178    3.3198    4.4188   H         1 RES1   0.0000
   263 H156      6.7624    3.7189    3.6743   H         1 RES1   0.0000
   264 H157      6.6032    6.0007    4.2251   H         1 RES1   0.0000
   265 H158      4.8490    5.9574    4.4072   H         1 RES1   0.0000
   266 H159      6.4746    4.3481    6.3681   H         1 RES1   0.0000
   267 H160      6.3885    6.0922    6.5606   H         1 RES1   0.0000
   268 H161      3.9328    4.3198    6.2292   H         1 RES1   0.0000
   269 H162      3.9546    6.0549    6.5720   H         1 RES1   0.0000
   270 H163      4.5177    4.9171    7.7935   H         1 RES1   0.0000
   271 H164      3.2625    5.1664   -2.4952   H         1 RES1   0.0000
   272 H165      2.6415    3.9134   -3.5446   H         1 RES1   0.0000
   273 H166      1.2162    5.4490   -4.0596   H         1 RES1   0.0000
   274 H167      0.2635    4.7766   -2.7716   H         1 RES1   0.0000
   275 H168      1.8004    7.0686   -1.7870   H         1 RES1   0.0000
   276 H169      1.0135    7.4878   -3.2720   H         1 RES1   0.0000
   277 H170     -0.5403    6.3911   -0.9097   H         1 RES1   0.0000
   278 H171     -1.5340    8.0204   -3.2500   H         1 RES1   0.0000
   279 H172     -1.4913    6.2728   -3.2860   H         1 RES1   0.0000
   280 H173     -2.7112    6.6657   -0.8503   H         1 RES1   0.0000
   281 H174     -3.2100    8.1233   -1.6742   H         1 RES1   0.0000
   282 H175     -4.7673    6.9983   -2.9215   H         1 RES1   0.0000
   283 H176     -3.6874    5.6693   -3.2878   H         1 RES1   0.0000
   284 H177     -5.2948    6.0376   -0.7187   H         1 RES1   0.0000
   285 H178     -5.5403    4.8177   -1.9550   H         1 RES1   0.0000
   286 H179     -4.0983    4.7635   -0.9423   H         1 RES1   0.0000
   287 H180      0.7786    8.5497   -0.4796   H         1 RES1   0.0000
   288 H181     -0.2970    9.3072   -1.6227   H         1 RES1   0.0000
   289 H182     -2.0449    9.3029   -0.1351   H         1 RES1   0.0000
   290 H183     -1.6626    7.7150    0.5104   H         1 RES1   0.0000
   291 H184      0.1702    9.9443    1.3257   H         1 RES1   0.0000
   292 H185     -1.4591    9.9490    1.9688   H         1 RES1   0.0000
   293 H186     -1.0503    7.4186    2.4837   H         1 RES1   0.0000
   294 H187      0.6667    7.8272    2.2807   H         1 RES1   0.0000
   295 H188     -1.2511    8.9387    4.3617   H         1 RES1   0.0000
   296 H189      0.0671    7.7966    4.5961   H         1 RES1   0.0000
   297 H190      0.3291   10.7334    3.8071   H         1 RES1   0.0000
   298 H191      0.8658    9.9839    5.3071   H         1 RES1   0.0000
   299 H192      1.6782    9.5971    3.7898   H         1 RES1   0.0000
   300 C97      -5.2643   -6.4383   -2.6243   C.3       1 RES1   0.0000
   301 C98      -6.4753   -6.8477   -1.7969   C.3       1 RES1   0.0000
   302 C99      -6.4942   -6.2246   -0.4007   C.3       1 RES1   0.0000
   303 C100     -6.7941   -4.7233   -0.4275   C.3       1 RES1   0.0000
   304 C101     -7.2255   -4.1738    0.9342   C.3       1 RES1   0.0000
   305 C102     -6.1429   -4.2346    2.0113   C.3       1 RES1   0.0000
   306 C103     -4.9392   -3.3289    1.7440   C.3       1 RES1   0.0000
   307 C104     -5.2813   -1.8347    1.6567   C.3       1 RES1   0.0000
   308 N5       -4.0892   -1.0185    1.8766   N.am      1 RES1   0.0000
   309 C105     -3.7378   -0.6257    3.2510   C.3       1 RES1   0.0000
   310 C106     -4.8665   -0.1084    4.1631   C.3       1 RES1   0.0000
   311 C107     -4.9266    1.4150    4.3540   C.3       1 RES1   0.0000
   312 C108     -5.8158    2.1810    3.3575   C.3       1 RES1   0.0000
   313 C109     -7.2821    2.2499    3.8033   C.3       1 RES1   0.0000
   314 C110     -8.0298    0.9253    3.9362   C.3       1 RES1   0.0000
   315 C111     -9.5372    1.1417    4.0786   C.3       1 RES1   0.0000
   316 C112     -9.9005    1.9741    5.2976   C.3       1 RES1   0.0000
   317 C113     -5.2850    3.6201    3.2078   C.3       1 RES1   0.0000
   318 C114     -5.9261    4.4240    2.0639   C.3       1 RES1   0.0000
   319 C115     -6.9714    5.4485    2.5110   C.3       1 RES1   0.0000
   320 C116     -7.5059    6.2808    1.3409   C.3       1 RES1   0.0000
   321 C117     -8.2567    5.4677    0.2836   C.3       1 RES1   0.0000
   322 C118     -8.5521    6.3059   -0.9549   C.3       1 RES1   0.0000
   323 C119     -3.0755   -1.0450    1.0064   C.2       1 RES1   0.0000
   324 O7       -1.8891   -0.8404    1.3193   O.2       1 RES1   0.0000
   325 C120     -3.3935   -1.2291   -0.4784   C.3       1 RES1   0.0000
   326 O8       -2.3791   -0.6190   -1.2713   O.3       1 RES1   0.0000
   327 C121     -2.6394    0.7071   -1.7095   C.3       1 RES1   0.0000
   328 C122     -1.7243    1.6902   -0.9745   C.2       1 RES1   0.0000
   329 O9       -1.2248    1.3162    0.0982   O.2       1 RES1   0.0000
   330 N6       -1.5045    2.9031   -1.4605   N.am      1 RES1   0.0000
   331 C123     -0.9624    3.9702   -0.5591   C.3       1 RES1   0.0000
   332 C124     -0.1874    3.6145    0.7334   C.3       1 RES1   0.0000
   333 C125      0.5070    4.8151    1.4546   C.3       1 RES1   0.0000
   334 C126      1.3683    5.7739    0.6015   C.3       1 RES1   0.0000
   335 C127      2.7196    6.3058    1.1226   C.3       1 RES1   0.0000
   336 C128      3.2568    7.3724    0.1494   C.3       1 RES1   0.0000
   337 C129      4.6462    7.9860    0.4081   C.3       1 RES1   0.0000
   338 C130      5.6249    7.7286   -0.7377   C.3       1 RES1   0.0000
   339 C131     -2.1115    3.3706   -2.7331   C.3       1 RES1   0.0000
   340 C132     -1.7808    2.6745   -4.1077   C.3       1 RES1   0.0000
   341 C133     -1.0868    3.5777   -5.1660   C.3       1 RES1   0.0000
   342 C134     -0.2339    2.8733   -6.2686   C.3       1 RES1   0.0000
   343 C135     -1.1111    2.4250   -7.4556   C.3       1 RES1   0.0000
   344 C136     -0.5004    1.3394   -8.3727   C.3       1 RES1   0.0000
   345 C137     -1.1512   -0.0378   -8.2273   C.3       1 RES1   0.0000
   346 C138     -0.5647   -1.0318   -9.2213   C.3       1 RES1   0.0000
   347 C139      0.8544    3.8909   -6.7014   C.3       1 RES1   0.0000
   348 C140      1.7055    3.5691   -7.9339   C.3       1 RES1   0.0000
   349 C141      2.8575    4.5589   -8.1457   C.3       1 RES1   0.0000
   350 C142      3.9827    4.4366   -7.1158   C.3       1 RES1   0.0000
   351 C143      5.3298    4.9825   -7.5973   C.3       1 RES1   0.0000
   352 C144      5.2861    6.4728   -7.9183   C.3       1 RES1   0.0000
   353 H193     -5.3208   -6.8810   -3.6150   H         1 RES1   0.0000
   354 H194     -4.3480   -6.7811   -2.1488   H         1 RES1   0.0000
   355 H195     -5.2182   -5.3576   -2.7373   H         1 RES1   0.0000
   356 H196     -6.4821   -7.9332   -1.7016   H         1 RES1   0.0000
   357 H197     -7.3858   -6.5679   -2.3268   H         1 RES1   0.0000
   358 H198     -5.5341   -6.4094    0.0856   H         1 RES1   0.0000
   359 H199     -7.2639   -6.7235    0.1910   H         1 RES1   0.0000
   360 H200     -7.6103   -4.5487   -1.1313   H         1 RES1   0.0000
   361 H201     -5.9262   -4.1716   -0.7977   H         1 RES1   0.0000
   362 H202     -8.0833   -4.7553    1.2732   H         1 RES1   0.0000
   363 H203     -7.5713   -3.1436    0.8242   H         1 RES1   0.0000
   364 H204     -5.7839   -5.2614    2.0930   H         1 RES1   0.0000
   365 H205     -6.5824   -3.9743    2.9756   H         1 RES1   0.0000
   366 H206     -4.4517   -3.6385    0.8220   H         1 RES1   0.0000
   367 H207     -4.2253   -3.4733    2.5563   H         1 RES1   0.0000
   368 H208     -6.0099   -1.5924    2.4263   H         1 RES1   0.0000
   369 H209     -5.7373   -1.5940    0.6954   H         1 RES1   0.0000
   370 H210     -2.9561    0.1359    3.1379   H         1 RES1   0.0000
   371 H211     -3.2866   -1.5047    3.7227   H         1 RES1   0.0000
   372 H212     -4.7012   -0.5506    5.1479   H         1 RES1   0.0000
   373 H213     -5.8398   -0.4540    3.8239   H         1 RES1   0.0000
   374 H214     -3.9099    1.8143    4.3038   H         1 RES1   0.0000
   375 H215     -5.2985    1.6163    5.3604   H         1 RES1   0.0000
   376 H216     -5.7655    1.6818    2.3812   H         1 RES1   0.0000
   377 H217     -7.8223    2.8473    3.0687   H         1 RES1   0.0000
   378 H218     -7.3194    2.7732    4.7591   H         1 RES1   0.0000
   379 H219     -7.6766    0.3777    4.8111   H         1 RES1   0.0000
   380 H220     -7.8475    0.3179    3.0441   H         1 RES1   0.0000
   381 H221    -10.0233    0.1690    4.1527   H         1 RES1   0.0000
   382 H222     -9.9168    1.6286    3.1807   H         1 RES1   0.0000
   383 H223     -9.4427    1.5625    6.1909   H         1 RES1   0.0000
   384 H224    -10.9740    1.9815    5.4462   H         1 RES1   0.0000
   385 H225     -9.5719    3.0012    5.1840   H         1 RES1   0.0000
   386 H226     -4.2060    3.5710    3.0339   H         1 RES1   0.0000
   387 H227     -5.4405    4.1406    4.1556   H         1 RES1   0.0000
   388 H228     -6.3700    3.7277    1.3500   H         1 RES1   0.0000
   389 H229     -5.1463    4.9733    1.5309   H         1 RES1   0.0000
   390 H230     -6.5115    6.1211    3.2416   H         1 RES1   0.0000
   391 H231     -7.8017    4.9493    3.0095   H         1 RES1   0.0000
   392 H232     -6.6672    6.7992    0.8653   H         1 RES1   0.0000
   393 H233     -8.1805    7.0439    1.7340   H         1 RES1   0.0000
   394 H234     -9.1946    5.1008    0.7059   H         1 RES1   0.0000
   395 H235     -7.6624    4.6000   -0.0143   H         1 RES1   0.0000
   396 H236     -9.1711    7.1622   -0.7033   H         1 RES1   0.0000
   397 H237     -9.0761    5.7114   -1.6988   H         1 RES1   0.0000
   398 H238     -7.6296    6.6768   -1.3975   H         1 RES1   0.0000
   399 H239     -4.3740   -0.8055   -0.7093   H         1 RES1   0.0000
   400 H240     -3.3994   -2.2908   -0.7472   H         1 RES1   0.0000
   401 H241     -3.6780    0.9949   -1.5124   H         1 RES1   0.0000
   402 H242     -2.4778    0.7419   -2.7883   H         1 RES1   0.0000
   403 H243     -1.8214    4.5974   -0.2820   H         1 RES1   0.0000
   404 H244     -0.2783    4.5474   -1.1687   H         1 RES1   0.0000
   405 H245     -0.8826    3.1691    1.4512   H         1 RES1   0.0000
   406 H246      0.5821    2.8671    0.5320   H         1 RES1   0.0000
   407 H247      1.1104    4.3702    2.2487   H         1 RES1   0.0000
   408 H248     -0.2714    5.4075    1.9377   H         1 RES1   0.0000
   409 H249      0.7614    6.6524    0.4424   H         1 RES1   0.0000
   410 H250      1.5480    5.3060   -0.3584   H         1 RES1   0.0000
   411 H251      3.4428    5.5071    1.2000   H         1 RES1   0.0000
   412 H252      2.6056    6.7618    2.1050   H         1 RES1   0.0000
   413 H253      2.5273    8.1820    0.1297   H         1 RES1   0.0000
   414 H254      3.3050    6.9391   -0.8513   H         1 RES1   0.0000
   415 H255      5.0687    7.6149    1.3399   H         1 RES1   0.0000
   416 H256      4.5379    9.0661    0.5084   H         1 RES1   0.0000
   417 H257      5.8349    6.6680   -0.8681   H         1 RES1   0.0000
   418 H258      6.5661    8.2320   -0.5361   H         1 RES1   0.0000
   419 H259      5.2288    8.1255   -1.6705   H         1 RES1   0.0000
   420 H260     -1.8552    4.4251   -2.8188   H         1 RES1   0.0000
   421 H261     -3.1943    3.3349   -2.6031   H         1 RES1   0.0000
   422 H262     -2.7226    2.3353   -4.5463   H         1 RES1   0.0000
   423 H263     -1.1661    1.7887   -3.9706   H         1 RES1   0.0000
   424 H264     -0.4237    4.2743   -4.6615   H         1 RES1   0.0000
   425 H265     -1.8356    4.1809   -5.6830   H         1 RES1   0.0000
   426 H266      0.2551    1.9864   -5.8416   H         1 RES1   0.0000
   427 H267     -1.3435    3.3173   -8.0427   H         1 RES1   0.0000
   428 H268     -2.0579    2.0391   -7.0684   H         1 RES1   0.0000
   429 H269      0.5670    1.2342   -8.1792   H         1 RES1   0.0000
   430 H270     -0.6028    1.6483   -9.4143   H         1 RES1   0.0000
   431 H271     -2.2254    0.0473   -8.3969   H         1 RES1   0.0000
   432 H272     -1.0057   -0.4065   -7.2068   H         1 RES1   0.0000
   433 H273     -1.0467   -1.9997   -9.1341   H         1 RES1   0.0000
   434 H274      0.5009   -1.1633   -9.0561   H         1 RES1   0.0000
   435 H275     -0.7047   -0.6819  -10.2387   H         1 RES1   0.0000
   436 H276      1.5335    4.0303   -5.8561   H         1 RES1   0.0000
   437 H277      0.3546    4.8443   -6.8874   H         1 RES1   0.0000
   438 H278      1.0720    3.5897   -8.8182   H         1 RES1   0.0000
   439 H279      2.1288    2.5676   -7.8563   H         1 RES1   0.0000
   440 H280      2.4700    5.5765   -8.1468   H         1 RES1   0.0000
   441 H281      3.2771    4.3717   -9.1336   H         1 RES1   0.0000
   442 H282      4.1331    3.3860   -6.8689   H         1 RES1   0.0000
   443 H283      3.7120    4.9588   -6.1961   H         1 RES1   0.0000
   444 H284      5.6559    4.4340   -8.4837   H         1 RES1   0.0000
   445 H285      6.0798    4.8132   -6.8167   H         1 RES1   0.0000
   446 H286      4.6346    6.6673   -8.7679   H         1 RES1   0.0000
   447 H287      6.2811    6.8431   -8.1630   H         1 RES1   0.0000
   448 H288      4.9150    7.0363   -7.0620   H         1 RES1   0.0000
@<TRIPOS>BOND
     1     1    26    1
     2     1    28    1
     3     1    31    1
     4     1   175    1
     5     1   177    1
     6     1   180    1
     7     1   324    1
     8     1   326    1
     9     1   329    1
    10     2     3    1
    11     2    55    1
    12     2    56    1
    13     2    57    1
    14     3     4    1
    15     3    58    1
    16     3    59    1
    17     4     5    1
    18     4    60    1
    19     4    61    1
    20     5     6    1
    21     5    62    1
    22     5    63    1
    23     6     7    1
    24     6    64    1
    25     6    65    1
    26     7     8    1
    27     7    66    1
    28     7    67    1
    29     8     9    1
    30     8    68    1
    31     8    69    1
    32     9    10    1
    33     9    70    1
    34     9    71    1
    35    10    11    1
    36    10    25    1
    37    11    12    1
    38    11    72    1
    39    11    73    1
    40    12    13    1
    41    12    74    1
    42    12    75    1
    43    13    14    1
    44    13    76    1
    45    13    77    1
    46    14    15    1
    47    14    19    1
    48    14    78    1
    49    15    16    1
    50    15    79    1
    51    15    80    1
    52    16    17    1
    53    16    81    1
    54    16    82    1
    55    17    18    1
    56    17    83    1
    57    17    84    1
    58    18    85    1
    59    18    86    1
    60    18    87    1
    61    19    20    1
    62    19    88    1
    63    19    89    1
    64    20    21    1
    65    20    90    1
    66    20    91    1
    67    21    22    1
    68    21    92    1
    69    21    93    1
    70    22    23    1
    71    22    94    1
    72    22    95    1
    73    23    24    1
    74    23    96    1
    75    23    97    1
    76    24    98    1
    77    24    99    1
    78    24   100    1
    79    25    26    2
    80    25    27    1
    81    27    28    1
    82    27   101    1
    83    27   102    1
    84    28    29    1
    85    29    30    1
    86    29   103    1
    87    29   104    1
    88    30    31    2
    89    30    32    1
    90    32    33    1
    91    32    41    1
    92    33    34    1
    93    33   105    1
    94    33   106    1
    95    34    35    1
    96    34   107    1
    97    34   108    1
    98    35    36    1
    99    35   109    1
   100    35   110    1
   101    36    37    1
   102    36   111    1
   103    36   112    1
   104    37    38    1
   105    37   113    1
   106    37   114    1
   107    38    39    1
   108    38   115    1
   109    38   116    1
   110    39    40    1
   111    39   117    1
   112    39   118    1
   113    40   119    1
   114    40   120    1
   115    40   121    1
   116    41    42    1
   117    41   122    1
   118    41   123    1
   119    42    43    1
   120    42   124    1
   121    42   125    1
   122    43    44    1
   123    43   126    1
   124    43   127    1
   125    44    45    1
   126    44    49    1
   127    44   128    1
   128    45    46    1
   129    45   129    1
   130    45   130    1
   131    46    47    1
   132    46   131    1
   133    46   132    1
   134    47    48    1
   135    47   133    1
   136    47   134    1
   137    48   135    1
   138    48   136    1
   139    48   137    1
   140    49    50    1
   141    49   138    1
   142    49   139    1
   143    50    51    1
   144    50   140    1
   145    50   141    1
   146    51    52    1
   147    51   142    1
   148    51   143    1
   149    52    53    1
   150    52   144    1
   151    52   145    1
   152    53    54    1
   153    53   146    1
   154    53   147    1
   155    54   148    1
   156    54   149    1
   157    54   150    1
   158   151   152    1
   159   151   204    1
   160   151   205    1
   161   151   206    1
   162   152   153    1
   163   152   207    1
   164   152   208    1
   165   153   154    1
   166   153   209    1
   167   153   210    1
   168   154   155    1
   169   154   211    1
   170   154   212    1
   171   155   156    1
   172   155   213    1
   173   155   214    1
   174   156   157    1
   175   156   215    1
   176   156   216    1
   177   157   158    1
   178   157   217    1
   179   157   218    1
   180   158   159    1
   181   158   219    1
   182   158   220    1
   183   159   160    1
   184   159   174    1
   185   160   161    1
   186   160   221    1
   187   160   222    1
   188   161   162    1
   189   161   223    1
   190   161   224    1
   191   162   163    1
   192   162   225    1
   193   162   226    1
   194   163   164    1
   195   163   168    1
   196   163   227    1
   197   164   165    1
   198   164   228    1
   199   164   229    1
   200   165   166    1
   201   165   230    1
   202   165   231    1
   203   166   167    1
   204   166   232    1
   205   166   233    1
   206   167   234    1
   207   167   235    1
   208   167   236    1
   209   168   169    1
   210   168   237    1
   211   168   238    1
   212   169   170    1
   213   169   239    1
   214   169   240    1
   215   170   171    1
   216   170   241    1
   217   170   242    1
   218   171   172    1
   219   171   243    1
   220   171   244    1
   221   172   173    1
   222   172   245    1
   223   172   246    1
   224   173   247    1
   225   173   248    1
   226   173   249    1
   227   174   175    2
   228   174   176    1
   229   176   177    1
   230   176   250    1
   231   176   251    1
   232   177   178    1
   233   178   179    1
   234   178   252    1
   235   178   253    1
   236   179   180    2
   237   179   181    1
   238   181   182    1
   239   181   190    1
   240   182   183    1
   241   182   254    1
   242   182   255    1
   243   183   184    1
   244   183   256    1
   245   183   257    1
   246   184   185    1
   247   184   258    1
   248   184   259    1
   249   185   186    1
   250   185   260    1
   251   185   261    1
   252   186   187    1
   253   186   262    1
   254   186   263    1
   255   187   188    1
   256   187   264    1
   257   187   265    1
   258   188   189    1
   259   188   266    1
   260   188   267    1
   261   189   268    1
   262   189   269    1
   263   189   270    1
   264   190   191    1
   265   190   271    1
   266   190   272    1
   267   191   192    1
   268   191   273    1
   269   191   274    1
   270   192   193    1
   271   192   275    1
   272   192   276    1
   273   193   194    1
   274   193   198    1
   275   193   277    1
   276   194   195    1
   277   194   278    1
   278   194   279    1
   279   195   196    1
   280   195   280    1
   281   195   281    1
   282   196   197    1
   283   196   282    1
   284   196   283    1
   285   197   284    1
   286   197   285    1
   287   197   286    1
   288   198   199    1
   289   198   287    1
   290   198   288    1
   291   199   200    1
   292   199   289    1
   293   199   290    1
   294   200   201    1
   295   200   291    1
   296   200   292    1
   297   201   202    1
   298   201   293    1
   299   201   294    1
   300   202   203    1
   301   202   295    1
   302   202   296    1
   303   203   297    1
   304   203   298    1
   305   203   299    1
   306   300   301    1
   307   300   353    1
   308   300   354    1
   309   300   355    1
   310   301   302    1
   311   301   356    1
   312   301   357    1
   313   302   303    1
   314   302   358    1
   315   302   359    1
   316   303   304    1
   317   303   360    1
   318   303   361    1
   319   304   305    1
   320   304   362    1
   321   304   363    1
   322   305   306    1
   323   305   364    1
   324   305   365    1
   325   306   307    1
   326   306   366    1
   327   306   367    1
   328   307   308    1
   329   307   368    1
   330   307   369    1
   331   308   309    1
   332   308   323    1
   333   309   310    1
   334   309   370    1
   335   309   371    1
   336   310   311    1
   337   310   372    1
   338   310   373    1
   339   311   312    1
   340   311   374    1
   341   311   375    1
   342   312   313    1
   343   312   317    1
   344   312   376    1
   345   313   314    1
   346   313   377    1
   347   313   378    1
   348   314   315    1
   349   314   379    1
   350   314   380    1
   351   315   316    1
   352   315   381    1
   353   315   382    1
   354   316   383    1
   355   316   384    1
   356   316   385    1
   357   317   318    1
   358   317   386    1
   359   317   387    1
   360   318   319    1
   361   318   388    1
   362   318   389    1
   363   319   320    1
   364   319   390    1
   365   319   391    1
   366   320   321    1
   367   320   392    1
   368   320   393    1
   369   321   322    1
   370   321   394    1
   371   321   395    1
   372   322   396    1
   373   322   397    1
   374   322   398    1
   375   323   324    2
   376   323   325    1
   377   325   326    1
   378   325   399    1
   379   325   400    1
   380   326   327    1
   381   327   328    1
   382   327   401    1
   383   327   402    1
   384   328   329    2
   385   328   330    1
   386   330   331    1
   387   330   339    1
   388   331   332    1
   389   331   403    1
   390   331   404    1
   391   332   333    1
   392   332   405    1
   393   332   406    1
   394   333   334    1
   395   333   407    1
   396   333   408    1
   397   334   335    1
   398   334   409    1
   399   334   410    1
   400   335   336    1
   401   335   411    1
   402   335   412    1
   403   336   337    1
   404   336   413    1
   405   336   414    1
   406   337   338    1
   407   337   415    1
   408   337   416    1
   409   338   417    1
   410   338   418    1
   411   338   419    1
   412   339   340    1
   413   339   420    1
   414   339   421    1
   415   340   341    1
   416   340   422    1
   417   340   423    1
   418   341   342    1
   419   341   424    1
   420   341   425    1
   421   342   343    1
   422   342   347    1
   423   342   426    1
   424   343   344    1
   425   343   427    1
   426   343   428    1
   427   344   345    1
   428   344   429    1
   429   344   430    1
   430   345   346    1
   431   345   431    1
   432   345   432    1
   433   346   433    1
   434   346   434    1
   435   346   435    1
   436   347   348    1
   437   347   436    1
   438   347   437    1
   439   348   349    1
   440   348   438    1
   441   348   439    1
   442   349   350    1
   443   349   440    1
   444   349   441    1
   445   350   351    1
   446   350   442    1
   447   350   443    1
   448   351   352    1
   449   351   444    1
   450   351   445    1
   451   352   446    1
   452   352   447    1
   453   352   448    1
@<TRIPOS>SUBSTRUCTURE
     1 RES1      448 GROUP             0 ****  ****    0  
