@<TRIPOS>MOLECULE
am_c3_9H2O_c0_0_nunpairedes_0_charge_3 Charge: 3 Unpaired_Electrons: 7 XTB_Unpaired_Electrons: 0 XTB_Charge: 3
   196   201     1     0     0
SMALL
NoCharges
****
Generated from Architector

@<TRIPOS>ATOM
     1 Gd1       0.0419   -0.0950   -0.0264   Gd        1 RES1   0.0000
     2 C1       -0.5470    2.6234   -5.7412   C.3       1 RES1   0.0000
     3 C2        0.0626    3.8438   -5.0630   C.3       1 RES1   0.0000
     4 C3        0.0108    3.8004   -3.5330   C.3       1 RES1   0.0000
     5 C4       -1.4078    3.8636   -2.9786   C.3       1 RES1   0.0000
     6 N1       -1.4730    3.9560   -1.5198   N.am      1 RES1   0.0000
     7 C5       -2.0349    5.1997   -0.9985   C.3       1 RES1   0.0000
     8 C6       -1.1788    6.4563   -1.2012   C.3       1 RES1   0.0000
     9 C7       -0.0901    6.6965   -0.1587   C.3       1 RES1   0.0000
    10 C8        1.0622    5.7047   -0.2020   C.3       1 RES1   0.0000
    11 C9       -1.2890    2.8590   -0.7960   C.2       1 RES1   0.0000
    12 O1       -0.9091    1.7722   -1.2657   O.2       1 RES1   0.0000
    13 C10      -1.5538    2.9408    0.7147   C.3       1 RES1   0.0000
    14 O2       -1.1766    1.7188    1.3559   O.3       1 RES1   0.0000
    15 C11      -2.2400    1.0989    2.0680   C.3       1 RES1   0.0000
    16 C12      -3.0429    0.2066    1.1122   C.2       1 RES1   0.0000
    17 O3       -2.4509   -0.1581    0.0804   O.2       1 RES1   0.0000
    18 N2       -4.2451   -0.2290    1.4726   N.am      1 RES1   0.0000
    19 C13      -4.8559   -1.3173    0.7167   C.3       1 RES1   0.0000
    20 C14      -5.6850   -0.9454   -0.5078   C.3       1 RES1   0.0000
    21 C15      -5.9899   -2.1710   -1.3748   C.3       1 RES1   0.0000
    22 C16      -6.8280   -3.2411   -0.6836   C.3       1 RES1   0.0000
    23 C17      -4.9083    0.2061    2.6964   C.3       1 RES1   0.0000
    24 C18      -5.6168    1.5555    2.5699   C.3       1 RES1   0.0000
    25 C19      -6.7316    1.5510    1.5308   C.3       1 RES1   0.0000
    26 C20      -7.5791    2.8118    1.5914   C.3       1 RES1   0.0000
    27 H1       -0.4087    2.6915   -6.8183   H         1 RES1   0.0000
    28 H2       -1.6152    2.5532   -5.5539   H         1 RES1   0.0000
    29 H3       -0.0757    1.7038   -5.3970   H         1 RES1   0.0000
    30 H4       -0.4430    4.7397   -5.4240   H         1 RES1   0.0000
    31 H5        1.1096    3.9198   -5.3673   H         1 RES1   0.0000
    32 H6        0.5875    4.6429   -3.1472   H         1 RES1   0.0000
    33 H7        0.4615    2.8711   -3.1868   H         1 RES1   0.0000
    34 H8       -1.9380    2.9558   -3.2662   H         1 RES1   0.0000
    35 H9       -1.9281    4.7305   -3.3809   H         1 RES1   0.0000
    36 H10      -2.2620    5.0993    0.0596   H         1 RES1   0.0000
    37 H11      -2.9844    5.3573   -1.5182   H         1 RES1   0.0000
    38 H12      -1.8637    7.3044   -1.1506   H         1 RES1   0.0000
    39 H13      -0.7428    6.4627   -2.1979   H         1 RES1   0.0000
    40 H14      -0.5320    6.6997    0.8385   H         1 RES1   0.0000
    41 H15       0.3161    7.6926   -0.3323   H         1 RES1   0.0000
    42 H16       0.7191    4.6930    0.0037   H         1 RES1   0.0000
    43 H17       1.8085    5.9754    0.5420   H         1 RES1   0.0000
    44 H18       1.5421    5.7235   -1.1785   H         1 RES1   0.0000
    45 H19      -2.6160    3.1475    0.8816   H         1 RES1   0.0000
    46 H20      -0.9571    3.7391    1.1694   H         1 RES1   0.0000
    47 H21      -2.8274    1.8483    2.6048   H         1 RES1   0.0000
    48 H22      -1.7523    0.4394    2.8021   H         1 RES1   0.0000
    49 H23      -5.4681   -1.8975    1.4032   H         1 RES1   0.0000
    50 H24      -4.0344   -1.9366    0.3783   H         1 RES1   0.0000
    51 H25      -5.1355   -0.2193   -1.1098   H         1 RES1   0.0000
    52 H26      -6.6301   -0.5087   -0.1972   H         1 RES1   0.0000
    53 H27      -5.0612   -2.6176   -1.7403   H         1 RES1   0.0000
    54 H28      -6.5472   -1.8209   -2.2444   H         1 RES1   0.0000
    55 H29      -6.3174   -3.6981    0.1625   H         1 RES1   0.0000
    56 H30      -7.0605   -4.0345   -1.3899   H         1 RES1   0.0000
    57 H31      -7.7702   -2.8283   -0.3329   H         1 RES1   0.0000
    58 H32      -4.1928    0.2374    3.5243   H         1 RES1   0.0000
    59 H33      -5.6516   -0.5487    2.9547   H         1 RES1   0.0000
    60 H34      -4.8971    2.3355    2.3198   H         1 RES1   0.0000
    61 H35      -6.0362    1.7897    3.5490   H         1 RES1   0.0000
    62 H36      -7.3740    0.6884    1.7059   H         1 RES1   0.0000
    63 H37      -6.3008    1.4668    0.5338   H         1 RES1   0.0000
    64 H38      -8.0437    2.9175    2.5677   H         1 RES1   0.0000
    65 H39      -8.3673    2.7672    0.8439   H         1 RES1   0.0000
    66 H40      -6.9780    3.6978    1.4000   H         1 RES1   0.0000
    67 C21       2.0515   -3.0911    4.9913   C.3       1 RES1   0.0000
    68 C22       1.4816   -1.9277    5.7929   C.3       1 RES1   0.0000
    69 C23       1.1953   -0.6795    4.9550   C.3       1 RES1   0.0000
    70 C24       2.4849   -0.0644    4.4243   C.3       1 RES1   0.0000
    71 N3        2.3294    1.1675    3.6534   N.am      1 RES1   0.0000
    72 C25       2.9295    2.3659    4.2165   C.3       1 RES1   0.0000
    73 C26       2.1965    2.9327    5.4359   C.3       1 RES1   0.0000
    74 C27       0.8718    3.6351    5.1408   C.3       1 RES1   0.0000
    75 C28      -0.2906    2.7088    4.8030   C.3       1 RES1   0.0000
    76 C29       1.7841    1.1225    2.4494   C.2       1 RES1   0.0000
    77 O4        1.2079    0.1237    1.9884   O.2       1 RES1   0.0000
    78 C30       1.8726    2.3553    1.5340   C.3       1 RES1   0.0000
    79 O5        1.4329    1.9447    0.2412   O.3       1 RES1   0.0000
    80 C31       2.2617    2.3764   -0.8297   C.3       1 RES1   0.0000
    81 C32       2.1499    1.3978   -1.9920   C.2       1 RES1   0.0000
    82 O6        1.4157    0.3977   -1.8721   O.2       1 RES1   0.0000
    83 N4        2.9202    1.6362   -3.0468   N.am      1 RES1   0.0000
    84 C33       3.0850    0.5888   -4.0488   C.3       1 RES1   0.0000
    85 C34       4.5480    0.1495   -4.1068   C.3       1 RES1   0.0000
    86 C35       4.7750   -1.2031   -4.7711   C.3       1 RES1   0.0000
    87 C36       4.5610   -1.1891   -6.2773   C.3       1 RES1   0.0000
    88 C37       3.4810    2.9436   -3.3914   C.3       1 RES1   0.0000
    89 C38       4.6222    3.5433   -2.5621   C.3       1 RES1   0.0000
    90 C39       5.9248    2.7548   -2.5776   C.3       1 RES1   0.0000
    91 C40       7.0411    3.5062   -1.8668   C.3       1 RES1   0.0000
    92 H41       2.1362   -3.9713    5.6248   H         1 RES1   0.0000
    93 H42       3.0448   -2.8672    4.6104   H         1 RES1   0.0000
    94 H43       1.4082   -3.3369    4.1474   H         1 RES1   0.0000
    95 H44       2.1735   -1.6781    6.5973   H         1 RES1   0.0000
    96 H45       0.5516   -2.2514    6.2594   H         1 RES1   0.0000
    97 H46       0.6657    0.0410    5.5765   H         1 RES1   0.0000
    98 H47       0.5623   -0.9432    4.1074   H         1 RES1   0.0000
    99 H48       2.9597   -0.7893    3.7640   H         1 RES1   0.0000
   100 H49       3.1586    0.1558    5.2509   H         1 RES1   0.0000
   101 H50       2.9781    3.1406    3.4554   H         1 RES1   0.0000
   102 H51       3.9544    2.1207    4.5108   H         1 RES1   0.0000
   103 H52       2.8727    3.6690    5.8757   H         1 RES1   0.0000
   104 H53       2.0396    2.1505    6.1762   H         1 RES1   0.0000
   105 H54       1.0126    4.3588    4.3360   H         1 RES1   0.0000
   106 H55       0.5981    4.2001    6.0321   H         1 RES1   0.0000
   107 H56      -0.1041    2.1196    3.9073   H         1 RES1   0.0000
   108 H57      -1.1921    3.2985    4.6463   H         1 RES1   0.0000
   109 H58      -0.4828    2.0284    5.6289   H         1 RES1   0.0000
   110 H59       2.8981    2.7334    1.4767   H         1 RES1   0.0000
   111 H60       1.2181    3.1542    1.9076   H         1 RES1   0.0000
   112 H61       3.3114    2.3718   -0.5152   H         1 RES1   0.0000
   113 H62       1.9688    3.3840   -1.1481   H         1 RES1   0.0000
   114 H63       2.7442    0.9509   -5.0191   H         1 RES1   0.0000
   115 H64       2.4468   -0.2339   -3.7345   H         1 RES1   0.0000
   116 H65       4.9144    0.0945   -3.0827   H         1 RES1   0.0000
   117 H66       5.1409    0.8942   -4.6329   H         1 RES1   0.0000
   118 H67       4.1242   -1.9448   -4.3098   H         1 RES1   0.0000
   119 H68       5.8054   -1.5014   -4.5728   H         1 RES1   0.0000
   120 H69       3.5534   -0.8768   -6.5430   H         1 RES1   0.0000
   121 H70       4.7261   -2.1834   -6.6864   H         1 RES1   0.0000
   122 H71       5.2637   -0.5135   -6.7582   H         1 RES1   0.0000
   123 H72       2.6608    3.6667   -3.3998   H         1 RES1   0.0000
   124 H73       3.8333    2.8499   -4.4191   H         1 RES1   0.0000
   125 H74       4.3257    3.7253   -1.5318   H         1 RES1   0.0000
   126 H75       4.8079    4.5261   -3.0007   H         1 RES1   0.0000
   127 H76       6.2262    2.5830   -3.6088   H         1 RES1   0.0000
   128 H77       5.7831    1.7868   -2.0965   H         1 RES1   0.0000
   129 H78       7.2117    4.4718   -2.3358   H         1 RES1   0.0000
   130 H79       7.9672    2.9389   -1.9163   H         1 RES1   0.0000
   131 H80       6.8002    3.6752   -0.8190   H         1 RES1   0.0000
   132 C41       5.4788   -0.9321    1.4501   C.3       1 RES1   0.0000
   133 C42       5.8953   -1.2899    0.0278   C.3       1 RES1   0.0000
   134 C43       4.7332   -1.6572   -0.8969   C.3       1 RES1   0.0000
   135 C44       4.0401   -2.9489   -0.4830   C.3       1 RES1   0.0000
   136 N5        2.8425   -3.2525   -1.2666   N.am      1 RES1   0.0000
   137 C45       2.7781   -4.5184   -1.9925   C.3       1 RES1   0.0000
   138 C46       2.8353   -4.5366   -3.5310   C.3       1 RES1   0.0000
   139 C47       1.5957   -4.2050   -4.3761   C.3       1 RES1   0.0000
   140 C48       1.4193   -2.7435   -4.7832   C.3       1 RES1   0.0000
   141 C49       1.7585   -2.5522   -0.9551   C.2       1 RES1   0.0000
   142 O7        1.7754   -1.5620   -0.2043   O.2       1 RES1   0.0000
   143 C50       0.4373   -3.0460   -1.5152   C.3       1 RES1   0.0000
   144 O8       -0.6407   -2.2296   -1.0812   O.3       1 RES1   0.0000
   145 C51      -1.6497   -2.9339   -0.3723   C.3       1 RES1   0.0000
   146 C52      -1.5354   -2.6424    1.1283   C.2       1 RES1   0.0000
   147 O9       -0.7312   -1.7555    1.4718   O.2       1 RES1   0.0000
   148 N6       -2.3587   -3.2534    1.9752   N.am      1 RES1   0.0000
   149 C53      -2.5208   -2.6693    3.3051   C.3       1 RES1   0.0000
   150 C54      -2.0470   -3.4844    4.5004   C.3       1 RES1   0.0000
   151 C55      -2.1735   -2.6710    5.7915   C.3       1 RES1   0.0000
   152 C56      -3.6020   -2.3245    6.1912   C.3       1 RES1   0.0000
   153 C57      -3.3216   -4.2669    1.5500   C.3       1 RES1   0.0000
   154 C58      -2.7806   -5.6849    1.3551   C.3       1 RES1   0.0000
   155 C59      -2.4624   -6.4424    2.6386   C.3       1 RES1   0.0000
   156 C60      -2.2159   -7.9175    2.3489   C.3       1 RES1   0.0000
   157 H81       6.3473   -0.6045    2.0181   H         1 RES1   0.0000
   158 H82       5.0560   -1.7889    1.9684   H         1 RES1   0.0000
   159 H83       4.7417   -0.1283    1.4556   H         1 RES1   0.0000
   160 H84       6.6041   -2.1162    0.0673   H         1 RES1   0.0000
   161 H85       6.4193   -0.4356   -0.4057   H         1 RES1   0.0000
   162 H86       5.1156   -1.7694   -1.9104   H         1 RES1   0.0000
   163 H87       3.9918   -0.8563   -0.8825   H         1 RES1   0.0000
   164 H88       3.6982   -2.8475    0.5482   H         1 RES1   0.0000
   165 H89       4.7267   -3.7900   -0.5496   H         1 RES1   0.0000
   166 H90       1.8945   -5.0718   -1.6658   H         1 RES1   0.0000
   167 H91       3.6433   -5.0952   -1.6603   H         1 RES1   0.0000
   168 H92       3.0765   -5.5797   -3.7499   H         1 RES1   0.0000
   169 H93       3.6785   -3.9415   -3.8768   H         1 RES1   0.0000
   170 H94       0.6887   -4.5888   -3.9050   H         1 RES1   0.0000
   171 H95       1.7030   -4.7667   -5.3049   H         1 RES1   0.0000
   172 H96       1.3995   -2.0508   -3.9429   H         1 RES1   0.0000
   173 H97       0.4890   -2.6323   -5.3380   H         1 RES1   0.0000
   174 H98       2.2291   -2.4417   -5.4393   H         1 RES1   0.0000
   175 H99       0.2872   -4.0786   -1.1872   H         1 RES1   0.0000
   176 H100      0.4461   -3.0214   -2.6037   H         1 RES1   0.0000
   177 H101     -1.6380   -3.9994   -0.6118   H         1 RES1   0.0000
   178 H102     -2.5945   -2.5122   -0.7368   H         1 RES1   0.0000
   179 H103     -3.5796   -2.4465    3.4405   H         1 RES1   0.0000
   180 H104     -1.9686   -1.7288    3.2840   H         1 RES1   0.0000
   181 H105     -1.0028   -3.7588    4.3625   H         1 RES1   0.0000
   182 H106     -2.6314   -4.3954    4.6023   H         1 RES1   0.0000
   183 H107     -1.5990   -1.7480    5.6974   H         1 RES1   0.0000
   184 H108     -1.7332   -3.2577    6.5976   H         1 RES1   0.0000
   185 H109     -4.0888   -1.6754    5.4656   H         1 RES1   0.0000
   186 H110     -3.5988   -1.8005    7.1442   H         1 RES1   0.0000
   187 H111     -4.2008   -3.2230    6.3101   H         1 RES1   0.0000
   188 H112     -3.7918   -3.9590    0.6120   H         1 RES1   0.0000
   189 H113     -4.1110   -4.2980    2.3006   H         1 RES1   0.0000
   190 H114     -1.8955   -5.6786    0.7199   H         1 RES1   0.0000
   191 H115     -3.5625   -6.2292    0.8214   H         1 RES1   0.0000
   192 H116     -3.3038   -6.3568    3.3252   H         1 RES1   0.0000
   193 H117     -1.5829   -6.0182    3.1224   H         1 RES1   0.0000
   194 H118     -3.0910   -8.3711    1.8884   H         1 RES1   0.0000
   195 H119     -2.0035   -8.4545    3.2697   H         1 RES1   0.0000
   196 H120     -1.3708   -8.0479    1.6761   H         1 RES1   0.0000
@<TRIPOS>BOND
     1     1    12    1
     2     1    14    1
     3     1    17    1
     4     1    77    1
     5     1    79    1
     6     1    82    1
     7     1   142    1
     8     1   144    1
     9     1   147    1
    10     2     3    1
    11     2    27    1
    12     2    28    1
    13     2    29    1
    14     3     4    1
    15     3    30    1
    16     3    31    1
    17     4     5    1
    18     4    32    1
    19     4    33    1
    20     5     6    1
    21     5    34    1
    22     5    35    1
    23     6     7    1
    24     6    11    1
    25     7     8    1
    26     7    36    1
    27     7    37    1
    28     8     9    1
    29     8    38    1
    30     8    39    1
    31     9    10    1
    32     9    40    1
    33     9    41    1
    34    10    42    1
    35    10    43    1
    36    10    44    1
    37    11    12    2
    38    11    13    1
    39    13    14    1
    40    13    45    1
    41    13    46    1
    42    14    15    1
    43    15    16    1
    44    15    47    1
    45    15    48    1
    46    16    17    2
    47    16    18    1
    48    18    19    1
    49    18    23    1
    50    19    20    1
    51    19    49    1
    52    19    50    1
    53    20    21    1
    54    20    51    1
    55    20    52    1
    56    21    22    1
    57    21    53    1
    58    21    54    1
    59    22    55    1
    60    22    56    1
    61    22    57    1
    62    23    24    1
    63    23    58    1
    64    23    59    1
    65    24    25    1
    66    24    60    1
    67    24    61    1
    68    25    26    1
    69    25    62    1
    70    25    63    1
    71    26    64    1
    72    26    65    1
    73    26    66    1
    74    67    68    1
    75    67    92    1
    76    67    93    1
    77    67    94    1
    78    68    69    1
    79    68    95    1
    80    68    96    1
    81    69    70    1
    82    69    97    1
    83    69    98    1
    84    70    71    1
    85    70    99    1
    86    70   100    1
    87    71    72    1
    88    71    76    1
    89    72    73    1
    90    72   101    1
    91    72   102    1
    92    73    74    1
    93    73   103    1
    94    73   104    1
    95    74    75    1
    96    74   105    1
    97    74   106    1
    98    75   107    1
    99    75   108    1
   100    75   109    1
   101    76    77    2
   102    76    78    1
   103    78    79    1
   104    78   110    1
   105    78   111    1
   106    79    80    1
   107    80    81    1
   108    80   112    1
   109    80   113    1
   110    81    82    2
   111    81    83    1
   112    83    84    1
   113    83    88    1
   114    84    85    1
   115    84   114    1
   116    84   115    1
   117    85    86    1
   118    85   116    1
   119    85   117    1
   120    86    87    1
   121    86   118    1
   122    86   119    1
   123    87   120    1
   124    87   121    1
   125    87   122    1
   126    88    89    1
   127    88   123    1
   128    88   124    1
   129    89    90    1
   130    89   125    1
   131    89   126    1
   132    90    91    1
   133    90   127    1
   134    90   128    1
   135    91   129    1
   136    91   130    1
   137    91   131    1
   138   132   133    1
   139   132   157    1
   140   132   158    1
   141   132   159    1
   142   133   134    1
   143   133   160    1
   144   133   161    1
   145   134   135    1
   146   134   162    1
   147   134   163    1
   148   135   136    1
   149   135   164    1
   150   135   165    1
   151   136   137    1
   152   136   141    1
   153   137   138    1
   154   137   166    1
   155   137   167    1
   156   138   139    1
   157   138   168    1
   158   138   169    1
   159   139   140    1
   160   139   170    1
   161   139   171    1
   162   140   172    1
   163   140   173    1
   164   140   174    1
   165   141   142    2
   166   141   143    1
   167   143   144    1
   168   143   175    1
   169   143   176    1
   170   144   145    1
   171   145   146    1
   172   145   177    1
   173   145   178    1
   174   146   147    2
   175   146   148    1
   176   148   149    1
   177   148   153    1
   178   149   150    1
   179   149   179    1
   180   149   180    1
   181   150   151    1
   182   150   181    1
   183   150   182    1
   184   151   152    1
   185   151   183    1
   186   151   184    1
   187   152   185    1
   188   152   186    1
   189   152   187    1
   190   153   154    1
   191   153   188    1
   192   153   189    1
   193   154   155    1
   194   154   190    1
   195   154   191    1
   196   155   156    1
   197   155   192    1
   198   155   193    1
   199   156   194    1
   200   156   195    1
   201   156   196    1
@<TRIPOS>SUBSTRUCTURE
     1 RES1      196 GROUP             0 ****  ****    0  
