@<TRIPOS>MOLECULE
capped_square_antiprismatic_0_nunpairedes_0_charge_3 Charge: 3 Unpaired_Electrons: 7 XTB_Unpaired_Electrons: 0 XTB_Charge: 3
   358   363     1     0     0
SMALL
NoCharges
****
Generated from Architector

@<TRIPOS>ATOM
     1 Gd1      -0.2006    0.0362    0.1300   Gd        1 RES1   0.0000
     2 C1        0.4984    0.4032   10.8525   C.3       1 RES1   0.0000
     3 C2       -0.7206   -0.4022   10.4263   C.3       1 RES1   0.0000
     4 C3       -0.3765   -1.4563    9.3785   C.3       1 RES1   0.0000
     5 C4       -1.5805   -2.2525    8.8824   C.3       1 RES1   0.0000
     6 C5       -2.6505   -1.4691    8.1230   C.3       1 RES1   0.0000
     7 C6       -2.1984   -0.8544    6.7910   C.3       1 RES1   0.0000
     8 C7       -1.6454    0.5663    6.9342   C.3       1 RES1   0.0000
     9 C8       -1.5070    1.2987    5.5956   C.3       1 RES1   0.0000
    10 N1       -0.4773    0.7987    4.6911   N.am      1 RES1   0.0000
    11 C9        0.9062    0.9907    5.1235   C.3       1 RES1   0.0000
    12 C10       1.5359   -0.2851    5.6842   C.3       1 RES1   0.0000
    13 C11       2.8033    0.0363    6.4760   C.3       1 RES1   0.0000
    14 C12       3.3338   -1.0923    7.3630   C.3       1 RES1   0.0000
    15 C13       3.8864   -2.3014    6.6032   C.3       1 RES1   0.0000
    16 C14       2.8152   -3.3423    6.2962   C.3       1 RES1   0.0000
    17 C15       3.3701   -4.5562    5.5577   C.3       1 RES1   0.0000
    18 C16       2.2473   -5.5146    5.1851   C.3       1 RES1   0.0000
    19 C17      -0.7275    0.3499    3.4703   C.2       1 RES1   0.0000
    20 O1        0.1648    0.0745    2.6407   O.2       1 RES1   0.0000
    21 C18      -2.1778    0.1976    2.9874   C.3       1 RES1   0.0000
    22 C19      -2.6451    1.5651    2.4920   C.3       1 RES1   0.0000
    23 O2       -2.1772   -0.6756    1.8649   O.3       1 RES1   0.0000
    24 C20      -2.6483   -2.0148    2.0720   C.3       1 RES1   0.0000
    25 C21      -3.8817   -2.1642    1.1764   C.3       1 RES1   0.0000
    26 C22      -1.4727   -2.9527    1.7367   C.2       1 RES1   0.0000
    27 O3       -0.5372   -2.4155    1.1037   O.2       1 RES1   0.0000
    28 N2       -1.4175   -4.2223    2.1534   N.am      1 RES1   0.0000
    29 C23      -0.0789   -4.8419    2.2875   C.3       1 RES1   0.0000
    30 C24       0.1222   -6.2625    1.7169   C.3       1 RES1   0.0000
    31 C25       1.4431   -6.4841    0.9365   C.3       1 RES1   0.0000
    32 C26       1.2131   -6.3583   -0.5723   C.3       1 RES1   0.0000
    33 C27       2.4480   -6.4970   -1.4608   C.3       1 RES1   0.0000
    34 C28       2.2328   -5.8267   -2.8294   C.3       1 RES1   0.0000
    35 C29       1.4292   -6.6293   -3.8590   C.3       1 RES1   0.0000
    36 C30       0.8605   -5.7212   -4.9555   C.3       1 RES1   0.0000
    37 C31      -2.4838   -4.9685    2.8308   C.3       1 RES1   0.0000
    38 C32      -3.4396   -5.8177    1.9599   C.3       1 RES1   0.0000
    39 C33      -4.8116   -5.1864    1.6535   C.3       1 RES1   0.0000
    40 C34      -6.0230   -6.1296    1.7301   C.3       1 RES1   0.0000
    41 C35      -6.2266   -7.0321    0.5157   C.3       1 RES1   0.0000
    42 C36      -6.7318   -6.3266   -0.7380   C.3       1 RES1   0.0000
    43 C37      -6.8554   -7.3078   -1.9100   C.3       1 RES1   0.0000
    44 C38      -6.6846   -6.6187   -3.2594   C.3       1 RES1   0.0000
    45 H1        0.2367    1.0992   11.6429   H         1 RES1   0.0000
    46 H2        0.9012    0.9753   10.0208   H         1 RES1   0.0000
    47 H3        1.2814   -0.2502   11.2233   H         1 RES1   0.0000
    48 H4       -1.4814    0.2780   10.0444   H         1 RES1   0.0000
    49 H5       -1.1414   -0.8987   11.2989   H         1 RES1   0.0000
    50 H6        0.3209   -2.1658    9.8241   H         1 RES1   0.0000
    51 H7        0.1406   -0.9893    8.5401   H         1 RES1   0.0000
    52 H8       -2.0627   -2.7124    9.7438   H         1 RES1   0.0000
    53 H9       -1.2311   -3.0671    8.2432   H         1 RES1   0.0000
    54 H10      -3.0670   -0.6827    8.7493   H         1 RES1   0.0000
    55 H11      -3.4666   -2.1628    7.9152   H         1 RES1   0.0000
    56 H12      -3.0711   -0.7919    6.1308   H         1 RES1   0.0000
    57 H13      -1.4716   -1.5182    6.3135   H         1 RES1   0.0000
    58 H14      -0.7023    0.5773    7.4746   H         1 RES1   0.0000
    59 H15      -2.3633    1.1455    7.5203   H         1 RES1   0.0000
    60 H16      -1.2791    2.3527    5.7893   H         1 RES1   0.0000
    61 H17      -2.4687    1.2553    5.0935   H         1 RES1   0.0000
    62 H18       0.9123    1.7835    5.8732   H         1 RES1   0.0000
    63 H19       1.4890    1.3287    4.2659   H         1 RES1   0.0000
    64 H20       1.7694   -0.9452    4.8505   H         1 RES1   0.0000
    65 H21       0.8178   -0.7905    6.3269   H         1 RES1   0.0000
    66 H22       2.6000    0.8905    7.1238   H         1 RES1   0.0000
    67 H23       3.5948    0.3311    5.7873   H         1 RES1   0.0000
    68 H24       2.5497   -1.4225    8.0464   H         1 RES1   0.0000
    69 H25       4.1370   -0.6662    7.9657   H         1 RES1   0.0000
    70 H26       4.6609   -2.7825    7.2030   H         1 RES1   0.0000
    71 H27       4.3603   -1.9721    5.6753   H         1 RES1   0.0000
    72 H28       2.0265   -2.8956    5.6873   H         1 RES1   0.0000
    73 H29       2.3636   -3.6732    7.2330   H         1 RES1   0.0000
    74 H30       4.1013   -5.0665    6.1840   H         1 RES1   0.0000
    75 H31       3.8816   -4.2237    4.6509   H         1 RES1   0.0000
    76 H32       1.8143   -5.9681    6.0718   H         1 RES1   0.0000
    77 H33       2.6037   -6.3069    4.5324   H         1 RES1   0.0000
    78 H34       1.4635   -4.9569    4.6748   H         1 RES1   0.0000
    79 H35      -2.8348   -0.2068    3.7626   H         1 RES1   0.0000
    80 H36      -1.8883    1.9612    1.8065   H         1 RES1   0.0000
    81 H37      -2.7902    2.2667    3.3082   H         1 RES1   0.0000
    82 H38      -3.5762    1.4394    1.9486   H         1 RES1   0.0000
    83 H39      -2.9295   -2.1538    3.1218   H         1 RES1   0.0000
    84 H40      -3.8452   -1.3701    0.4291   H         1 RES1   0.0000
    85 H41      -4.7915   -2.0504    1.7653   H         1 RES1   0.0000
    86 H42      -3.9112   -3.1129    0.6567   H         1 RES1   0.0000
    87 H43       0.1124   -4.8931    3.3682   H         1 RES1   0.0000
    88 H44       0.6454   -4.1515    1.8573   H         1 RES1   0.0000
    89 H45      -0.7100   -6.4924    1.0556   H         1 RES1   0.0000
    90 H46       0.0828   -6.9842    2.5341   H         1 RES1   0.0000
    91 H47       1.8279   -7.4825    1.1474   H         1 RES1   0.0000
    92 H48       2.2087   -5.7729    1.2608   H         1 RES1   0.0000
    93 H49       0.8057   -5.3706   -0.7697   H         1 RES1   0.0000
    94 H50       0.4604   -7.0815   -0.8698   H         1 RES1   0.0000
    95 H51       2.7021   -7.5466   -1.5896   H         1 RES1   0.0000
    96 H52       3.2916   -6.0159   -0.9605   H         1 RES1   0.0000
    97 H53       3.1993   -5.5757   -3.2639   H         1 RES1   0.0000
    98 H54       1.7111   -4.8807   -2.6636   H         1 RES1   0.0000
    99 H55       0.6210   -7.1670   -3.3621   H         1 RES1   0.0000
   100 H56       2.0706   -7.3908   -4.3126   H         1 RES1   0.0000
   101 H57       0.1430   -4.9981   -4.5576   H         1 RES1   0.0000
   102 H58       0.3548   -6.3106   -5.7140   H         1 RES1   0.0000
   103 H59       1.6594   -5.1669   -5.4514   H         1 RES1   0.0000
   104 H60      -3.0780   -4.3022    3.4565   H         1 RES1   0.0000
   105 H61      -1.9688   -5.6620    3.4953   H         1 RES1   0.0000
   106 H62      -3.6306   -6.7368    2.5160   H         1 RES1   0.0000
   107 H63      -2.9436   -6.1088    1.0370   H         1 RES1   0.0000
   108 H64      -4.8220   -4.7482    0.6549   H         1 RES1   0.0000
   109 H65      -4.9834   -4.3898    2.3781   H         1 RES1   0.0000
   110 H66      -6.9160   -5.5125    1.8392   H         1 RES1   0.0000
   111 H67      -5.9404   -6.7376    2.6299   H         1 RES1   0.0000
   112 H68      -6.9458   -7.8058    0.7779   H         1 RES1   0.0000
   113 H69      -5.2953   -7.5320    0.2684   H         1 RES1   0.0000
   114 H70      -6.0510   -5.5219   -1.0271   H         1 RES1   0.0000
   115 H71      -7.7012   -5.8692   -0.5438   H         1 RES1   0.0000
   116 H72      -7.8279   -7.7991   -1.8736   H         1 RES1   0.0000
   117 H73      -6.0967   -8.0873   -1.8116   H         1 RES1   0.0000
   118 H74      -7.4626   -5.8736   -3.4054   H         1 RES1   0.0000
   119 H75      -6.7416   -7.3405   -4.0704   H         1 RES1   0.0000
   120 H76      -5.7139   -6.1262   -3.3149   H         1 RES1   0.0000
   121 C39       7.5123   -5.4953   -1.7258   C.3       1 RES1   0.0000
   122 C40       7.6443   -4.5556   -2.9182   C.3       1 RES1   0.0000
   123 C41       7.0405   -3.1755   -2.6542   C.3       1 RES1   0.0000
   124 C42       7.4016   -2.1334   -3.7192   C.3       1 RES1   0.0000
   125 C43       6.8564   -2.4215   -5.1215   C.3       1 RES1   0.0000
   126 C44       5.3296   -2.4025   -5.2434   C.3       1 RES1   0.0000
   127 C45       4.7227   -1.0285   -4.9644   C.3       1 RES1   0.0000
   128 C46       3.2221   -0.9946   -5.2778   C.3       1 RES1   0.0000
   129 N3        2.5222    0.1419   -4.6968   N.am      1 RES1   0.0000
   130 C47       2.2314    1.2586   -5.5849   C.3       1 RES1   0.0000
   131 C48       3.4699    1.9806   -6.1242   C.3       1 RES1   0.0000
   132 C49       4.3681    2.6136   -5.0559   C.3       1 RES1   0.0000
   133 C50       3.6226    3.5816   -4.1418   C.3       1 RES1   0.0000
   134 C51       4.5316    4.2882   -3.1343   C.3       1 RES1   0.0000
   135 C52       5.0257    3.3708   -2.0051   C.3       1 RES1   0.0000
   136 C53       6.4878    2.9565   -2.1498   C.3       1 RES1   0.0000
   137 C54       6.9746    2.1273   -0.9695   C.3       1 RES1   0.0000
   138 C55       2.1119    0.1971   -3.4308   C.2       1 RES1   0.0000
   139 O4        1.4690    1.1151   -2.9269   O.2       1 RES1   0.0000
   140 C56       2.4962   -0.9268   -2.4570   C.3       1 RES1   0.0000
   141 C57       3.6265   -0.3425   -1.6193   C.3       1 RES1   0.0000
   142 O5        1.3366   -1.1213   -1.6259   O.3       1 RES1   0.0000
   143 C58       0.9098   -2.4791   -1.4846   C.3       1 RES1   0.0000
   144 C59       1.7533   -3.0030   -0.3214   C.3       1 RES1   0.0000
   145 C60      -0.6383   -2.3422   -1.4842   C.2       1 RES1   0.0000
   146 O6       -1.0167   -1.1456   -1.5000   O.2       1 RES1   0.0000
   147 N4       -1.5473   -3.2820   -1.7897   N.am      1 RES1   0.0000
   148 C61      -1.6641   -4.6213   -1.2173   C.3       1 RES1   0.0000
   149 C62      -1.7637   -5.7719   -2.2292   C.3       1 RES1   0.0000
   150 C63      -2.6746   -6.9459   -1.8104   C.3       1 RES1   0.0000
   151 C64      -1.9975   -8.0313   -0.9558   C.3       1 RES1   0.0000
   152 C65      -2.8749   -9.2728   -0.6751   C.3       1 RES1   0.0000
   153 C66      -3.3695   -9.4553    0.7685   C.3       1 RES1   0.0000
   154 C67      -2.2799   -9.6388    1.8272   C.3       1 RES1   0.0000
   155 C68      -2.8779   -9.9143    3.2064   C.3       1 RES1   0.0000
   156 C69      -2.7767   -2.6540   -2.3108   C.3       1 RES1   0.0000
   157 C70      -3.8892   -3.5059   -2.8994   C.3       1 RES1   0.0000
   158 C71      -4.9930   -2.5561   -3.3784   C.3       1 RES1   0.0000
   159 C72      -4.5666   -1.7232   -4.5889   C.3       1 RES1   0.0000
   160 C73      -5.7438   -1.0696   -5.3164   C.3       1 RES1   0.0000
   161 C74      -6.4513    0.0643   -4.5610   C.3       1 RES1   0.0000
   162 C75      -7.5600   -0.3984   -3.6115   C.3       1 RES1   0.0000
   163 C76      -8.3883    0.7601   -3.0595   C.3       1 RES1   0.0000
   164 H77       7.9576   -6.4574   -1.9581   H         1 RES1   0.0000
   165 H78       6.4684   -5.6521   -1.4639   H         1 RES1   0.0000
   166 H79       8.0281   -5.0993   -0.8554   H         1 RES1   0.0000
   167 H80       7.1633   -5.0078   -3.7862   H         1 RES1   0.0000
   168 H81       8.7018   -4.4387   -3.1516   H         1 RES1   0.0000
   169 H82       7.4113   -2.8171   -1.6901   H         1 RES1   0.0000
   170 H83       5.9526   -3.2618   -2.5723   H         1 RES1   0.0000
   171 H84       8.4890   -2.0775   -3.7918   H         1 RES1   0.0000
   172 H85       7.0647   -1.1478   -3.3836   H         1 RES1   0.0000
   173 H86       7.2191   -3.3973   -5.4485   H         1 RES1   0.0000
   174 H87       7.2697   -1.6795   -5.8070   H         1 RES1   0.0000
   175 H88       4.9004   -3.1384   -4.5599   H         1 RES1   0.0000
   176 H89       5.0643   -2.7128   -6.2540   H         1 RES1   0.0000
   177 H90       5.2385   -0.2783   -5.5601   H         1 RES1   0.0000
   178 H91       4.8920   -0.7851   -3.9190   H         1 RES1   0.0000
   179 H92       2.7510   -1.9205   -4.9334   H         1 RES1   0.0000
   180 H93       3.0676   -0.9479   -6.3570   H         1 RES1   0.0000
   181 H94       1.6089    1.9548   -5.0257   H         1 RES1   0.0000
   182 H95       1.6430    0.8826   -6.4253   H         1 RES1   0.0000
   183 H96       3.1095    2.7609   -6.7978   H         1 RES1   0.0000
   184 H97       4.0620    1.2938   -6.7322   H         1 RES1   0.0000
   185 H98       5.1674    3.1505   -5.5702   H         1 RES1   0.0000
   186 H99       4.8319    1.8329   -4.4507   H         1 RES1   0.0000
   187 H100      2.8661    3.0256   -3.5882   H         1 RES1   0.0000
   188 H101      3.1193    4.3353   -4.7540   H         1 RES1   0.0000
   189 H102      3.9626    5.1165   -2.7071   H         1 RES1   0.0000
   190 H103      5.3836    4.7229   -3.6566   H         1 RES1   0.0000
   191 H104      4.3938    2.4821   -1.9637   H         1 RES1   0.0000
   192 H105      4.9145    3.8722   -1.0412   H         1 RES1   0.0000
   193 H106      7.1037    3.8518   -2.2293   H         1 RES1   0.0000
   194 H107      6.6191    2.3866   -3.0694   H         1 RES1   0.0000
   195 H108      6.8693    2.6837   -0.0414   H         1 RES1   0.0000
   196 H109      8.0241    1.8786   -1.0929   H         1 RES1   0.0000
   197 H110      6.4085    1.2019   -0.8874   H         1 RES1   0.0000
   198 H111      2.7869   -1.8700   -2.9162   H         1 RES1   0.0000
   199 H112      4.3831    0.0843   -2.2710   H         1 RES1   0.0000
   200 H113      4.0754   -1.0813   -0.9597   H         1 RES1   0.0000
   201 H114      3.2020    0.4770   -1.0391   H         1 RES1   0.0000
   202 H115      1.1260   -3.0307   -2.4105   H         1 RES1   0.0000
   203 H116      2.7830   -3.0586   -0.6749   H         1 RES1   0.0000
   204 H117      1.4666   -3.9739    0.0472   H         1 RES1   0.0000
   205 H118      1.7080   -2.2833    0.5075   H         1 RES1   0.0000
   206 H119     -2.5658   -4.6025   -0.5917   H         1 RES1   0.0000
   207 H120     -0.8164   -4.7480   -0.5512   H         1 RES1   0.0000
   208 H121     -0.7705   -6.1517   -2.4445   H         1 RES1   0.0000
   209 H122     -2.1453   -5.3641   -3.1590   H         1 RES1   0.0000
   210 H123     -3.0222   -7.4323   -2.7245   H         1 RES1   0.0000
   211 H124     -3.5612   -6.5641   -1.2987   H         1 RES1   0.0000
   212 H125     -1.6719   -7.6153   -0.0030   H         1 RES1   0.0000
   213 H126     -1.1086   -8.3655   -1.4958   H         1 RES1   0.0000
   214 H127     -2.3073  -10.1662   -0.9344   H         1 RES1   0.0000
   215 H128     -3.7464   -9.2500   -1.3333   H         1 RES1   0.0000
   216 H129     -4.0028  -10.3452    0.7774   H         1 RES1   0.0000
   217 H130     -3.9987   -8.6150    1.0614   H         1 RES1   0.0000
   218 H131     -1.6569   -8.7416    1.8822   H         1 RES1   0.0000
   219 H132     -1.6388  -10.4765    1.5472   H         1 RES1   0.0000
   220 H133     -3.5594   -9.1186    3.5087   H         1 RES1   0.0000
   221 H134     -2.0907   -9.9945    3.9527   H         1 RES1   0.0000
   222 H135     -3.4302  -10.8508    3.2109   H         1 RES1   0.0000
   223 H136     -2.4343   -1.9752   -3.0953   H         1 RES1   0.0000
   224 H137     -3.2011   -2.0345   -1.5135   H         1 RES1   0.0000
   225 H138     -4.3024   -4.1873   -2.1582   H         1 RES1   0.0000
   226 H139     -3.5431   -4.0905   -3.7520   H         1 RES1   0.0000
   227 H140     -5.2776   -1.8976   -2.5539   H         1 RES1   0.0000
   228 H141     -5.8603   -3.1511   -3.6670   H         1 RES1   0.0000
   229 H142     -4.0686   -2.3807   -5.3078   H         1 RES1   0.0000
   230 H143     -3.8408   -0.9535   -4.3035   H         1 RES1   0.0000
   231 H144     -6.4678   -1.8455   -5.5695   H         1 RES1   0.0000
   232 H145     -5.3636   -0.6643   -6.2561   H         1 RES1   0.0000
   233 H146     -6.9142    0.7226   -5.2996   H         1 RES1   0.0000
   234 H147     -5.7082    0.6518   -4.0106   H         1 RES1   0.0000
   235 H148     -7.1404   -0.9608   -2.7752   H         1 RES1   0.0000
   236 H149     -8.2284   -1.0678   -4.1544   H         1 RES1   0.0000
   237 H150     -7.7728    1.4690   -2.5052   H         1 RES1   0.0000
   238 H151     -9.1537    0.3826   -2.3852   H         1 RES1   0.0000
   239 H152     -8.8847    1.3019   -3.8605   H         1 RES1   0.0000
   240 C77       7.2048    7.6261   -2.9296   C.3       1 RES1   0.0000
   241 C78       6.7485    8.0369   -1.5331   C.3       1 RES1   0.0000
   242 C79       6.3877    6.8246   -0.6768   C.3       1 RES1   0.0000
   243 C80       5.9888    7.1807    0.7563   C.3       1 RES1   0.0000
   244 C81       4.6847    7.9735    0.8889   C.3       1 RES1   0.0000
   245 C82       3.4336    7.2686    0.3495   C.3       1 RES1   0.0000
   246 C83       3.2579    5.8686    0.9482   C.3       1 RES1   0.0000
   247 C84       1.8041    5.3809    0.8756   C.3       1 RES1   0.0000
   248 N5        1.6876    3.9423    1.0758   N.am      1 RES1   0.0000
   249 C85       2.2418    3.4290    2.3291   C.3       1 RES1   0.0000
   250 C86       3.6664    2.8746    2.2497   C.3       1 RES1   0.0000
   251 C87       3.8251    1.6815    1.3082   C.3       1 RES1   0.0000
   252 C88       3.2982    0.3726    1.9076   C.3       1 RES1   0.0000
   253 C89       4.3591   -0.2952    2.7884   C.3       1 RES1   0.0000
   254 C90       5.4372   -1.0347    1.9804   C.3       1 RES1   0.0000
   255 C91       6.8477   -0.5168    2.2546   C.3       1 RES1   0.0000
   256 C92       7.8720   -1.2457    1.3935   C.3       1 RES1   0.0000
   257 C93       0.9582    3.1020    0.3615   C.2       1 RES1   0.0000
   258 O7        0.8532    1.8995    0.7073   O.2       1 RES1   0.0000
   259 C94       0.1459    3.5378   -0.8638   C.3       1 RES1   0.0000
   260 C95       0.9754    4.2094   -1.9651   C.3       1 RES1   0.0000
   261 O8       -0.4193    2.3109   -1.3122   O.3       1 RES1   0.0000
   262 C96      -1.5744    2.3975   -2.1386   C.3       1 RES1   0.0000
   263 C97      -1.3503    1.5431   -3.3882   C.3       1 RES1   0.0000
   264 C98      -2.6898    1.7398   -1.3156   C.2       1 RES1   0.0000
   265 O9       -2.3332    0.9899   -0.3781   O.2       1 RES1   0.0000
   266 N6       -3.9622    1.9331   -1.6227   N.am      1 RES1   0.0000
   267 C99      -4.4215    2.8724   -2.6291   C.3       1 RES1   0.0000
   268 C100     -4.3469    4.3385   -2.1943   C.3       1 RES1   0.0000
   269 C101     -4.5897    5.2354   -3.4084   C.3       1 RES1   0.0000
   270 C102     -3.3938    5.2823   -4.3654   C.3       1 RES1   0.0000
   271 C103     -3.8072    5.6238   -5.7987   C.3       1 RES1   0.0000
   272 C104     -4.5710    4.5070   -6.5151   C.3       1 RES1   0.0000
   273 C105     -3.7595    3.2341   -6.7467   C.3       1 RES1   0.0000
   274 C106     -4.5391    2.2254   -7.5767   C.3       1 RES1   0.0000
   275 C107     -4.9918    1.2197   -0.8833   C.3       1 RES1   0.0000
   276 C108     -5.6137    2.0691    0.2248   C.3       1 RES1   0.0000
   277 C109     -6.3437    1.1861    1.2380   C.3       1 RES1   0.0000
   278 C110     -6.5402    1.8973    2.5751   C.3       1 RES1   0.0000
   279 C111     -7.1836    1.0034    3.6385   C.3       1 RES1   0.0000
   280 C112     -6.3274   -0.2064    4.0262   C.3       1 RES1   0.0000
   281 C113     -6.8273   -0.8820    5.3050   C.3       1 RES1   0.0000
   282 C114     -6.0892   -2.1849    5.5865   C.3       1 RES1   0.0000
   283 H153      7.4606    8.5032   -3.5191   H         1 RES1   0.0000
   284 H154      6.4162    7.0822   -3.4480   H         1 RES1   0.0000
   285 H155      8.0846    6.9879   -2.8758   H         1 RES1   0.0000
   286 H156      5.8867    8.7009   -1.6235   H         1 RES1   0.0000
   287 H157      7.5504    8.5963   -1.0488   H         1 RES1   0.0000
   288 H158      7.2574    6.1642   -0.6354   H         1 RES1   0.0000
   289 H159      5.5840    6.2722   -1.1682   H         1 RES1   0.0000
   290 H160      6.7857    7.7763    1.2045   H         1 RES1   0.0000
   291 H161      5.9226    6.2589    1.3399   H         1 RES1   0.0000
   292 H162      4.7900    8.9306    0.3763   H         1 RES1   0.0000
   293 H163      4.5273    8.1893    1.9485   H         1 RES1   0.0000
   294 H164      3.4855    7.1972   -0.7377   H         1 RES1   0.0000
   295 H165      2.5629    7.8812    0.5932   H         1 RES1   0.0000
   296 H166      3.5858    5.8965    1.9891   H         1 RES1   0.0000
   297 H167      3.8939    5.1761    0.3967   H         1 RES1   0.0000
   298 H168      1.3714    5.6597   -0.0813   H         1 RES1   0.0000
   299 H169      1.2290    5.8782    1.6642   H         1 RES1   0.0000
   300 H170      1.5685    2.6363    2.6571   H         1 RES1   0.0000
   301 H171      2.2080    4.2410    3.0540   H         1 RES1   0.0000
   302 H172      3.9526    2.5812    3.2614   H         1 RES1   0.0000
   303 H173      4.3496    3.6607    1.9412   H         1 RES1   0.0000
   304 H174      4.8846    1.5534    1.0880   H         1 RES1   0.0000
   305 H175      3.3173    1.9125    0.3701   H         1 RES1   0.0000
   306 H176      3.0027   -0.3261    1.1131   H         1 RES1   0.0000
   307 H177      2.4005    0.5687    2.4942   H         1 RES1   0.0000
   308 H178      3.8818   -0.9851    3.4852   H         1 RES1   0.0000
   309 H179      4.8382    0.4795    3.3891   H         1 RES1   0.0000
   310 H180      5.2444   -0.9188    0.9125   H         1 RES1   0.0000
   311 H181      5.4078   -2.1038    2.1996   H         1 RES1   0.0000
   312 H182      7.0873   -0.6466    3.3124   H         1 RES1   0.0000
   313 H183      6.8895    0.5532    2.0339   H         1 RES1   0.0000
   314 H184      7.8194   -2.3193    1.5631   H         1 RES1   0.0000
   315 H185      8.8767   -0.9081    1.6292   H         1 RES1   0.0000
   316 H186      7.6871   -1.0515    0.3375   H         1 RES1   0.0000
   317 H187     -0.6533    4.2117   -0.5078   H         1 RES1   0.0000
   318 H188      2.0382    4.1938   -1.7375   H         1 RES1   0.0000
   319 H189      0.6561    5.2308   -2.1525   H         1 RES1   0.0000
   320 H190      0.8407    3.6410   -2.8796   H         1 RES1   0.0000
   321 H191     -1.7968    3.4374   -2.3929   H         1 RES1   0.0000
   322 H192     -0.8585    0.6237   -3.0710   H         1 RES1   0.0000
   323 H193     -0.7036    2.0634   -4.0874   H         1 RES1   0.0000
   324 H194     -2.2834    1.2883   -3.8817   H         1 RES1   0.0000
   325 H195     -5.4629    2.6337   -2.8428   H         1 RES1   0.0000
   326 H196     -3.8634    2.7186   -3.5527   H         1 RES1   0.0000
   327 H197     -3.3768    4.5623   -1.7457   H         1 RES1   0.0000
   328 H198     -5.1062    4.5216   -1.4339   H         1 RES1   0.0000
   329 H199     -4.8182    6.2455   -3.0731   H         1 RES1   0.0000
   330 H200     -5.4736    4.8653   -3.9282   H         1 RES1   0.0000
   331 H201     -2.8676    4.3261   -4.3779   H         1 RES1   0.0000
   332 H202     -2.6839    6.0342   -4.0163   H         1 RES1   0.0000
   333 H203     -2.9150    5.8627   -6.3806   H         1 RES1   0.0000
   334 H204     -4.4318    6.5179   -5.7771   H         1 RES1   0.0000
   335 H205     -4.8927    4.8850   -7.4862   H         1 RES1   0.0000
   336 H206     -5.4754    4.2542   -5.9600   H         1 RES1   0.0000
   337 H207     -3.4972    2.7711   -5.7923   H         1 RES1   0.0000
   338 H208     -2.8294    3.4883   -7.2558   H         1 RES1   0.0000
   339 H209     -5.4702    1.9641   -7.0832   H         1 RES1   0.0000
   340 H210     -3.9644    1.3164   -7.7285   H         1 RES1   0.0000
   341 H211     -4.7794    2.6416   -8.5481   H         1 RES1   0.0000
   342 H212     -4.5124    0.3387   -0.4541   H         1 RES1   0.0000
   343 H213     -5.7594    0.8888   -1.5847   H         1 RES1   0.0000
   344 H214     -6.3068    2.7944   -0.2009   H         1 RES1   0.0000
   345 H215     -4.8203    2.6353    0.7186   H         1 RES1   0.0000
   346 H216     -5.7762    0.2674    1.4003   H         1 RES1   0.0000
   347 H217     -7.3152    0.9045    0.8311   H         1 RES1   0.0000
   348 H218     -7.1791    2.7650    2.4145   H         1 RES1   0.0000
   349 H219     -5.5772    2.2628    2.9477   H         1 RES1   0.0000
   350 H220     -8.1514    0.6488    3.2808   H         1 RES1   0.0000
   351 H221     -7.3668    1.6052    4.5313   H         1 RES1   0.0000
   352 H222     -5.2896    0.1184    4.1684   H         1 RES1   0.0000
   353 H223     -6.3369   -0.9432    3.2166   H         1 RES1   0.0000
   354 H224     -7.8957   -1.0820    5.2078   H         1 RES1   0.0000
   355 H225     -6.6936   -0.2004    6.1471   H         1 RES1   0.0000
   356 H226     -6.2739   -2.9088    4.7956   H         1 RES1   0.0000
   357 H227     -6.4224   -2.6074    6.5278   H         1 RES1   0.0000
   358 H228     -5.0165   -2.0151    5.6633   H         1 RES1   0.0000
@<TRIPOS>BOND
     1     1    20    1
     2     1    23    1
     3     1    27    1
     4     1   139    1
     5     1   142    1
     6     1   146    1
     7     1   258    1
     8     1   261    1
     9     1   265    1
    10     2     3    1
    11     2    45    1
    12     2    46    1
    13     2    47    1
    14     3     4    1
    15     3    48    1
    16     3    49    1
    17     4     5    1
    18     4    50    1
    19     4    51    1
    20     5     6    1
    21     5    52    1
    22     5    53    1
    23     6     7    1
    24     6    54    1
    25     6    55    1
    26     7     8    1
    27     7    56    1
    28     7    57    1
    29     8     9    1
    30     8    58    1
    31     8    59    1
    32     9    10    1
    33     9    60    1
    34     9    61    1
    35    10    11    1
    36    10    19    1
    37    11    12    1
    38    11    62    1
    39    11    63    1
    40    12    13    1
    41    12    64    1
    42    12    65    1
    43    13    14    1
    44    13    66    1
    45    13    67    1
    46    14    15    1
    47    14    68    1
    48    14    69    1
    49    15    16    1
    50    15    70    1
    51    15    71    1
    52    16    17    1
    53    16    72    1
    54    16    73    1
    55    17    18    1
    56    17    74    1
    57    17    75    1
    58    18    76    1
    59    18    77    1
    60    18    78    1
    61    19    20    2
    62    19    21    1
    63    21    22    1
    64    21    23    1
    65    21    79    1
    66    22    80    1
    67    22    81    1
    68    22    82    1
    69    23    24    1
    70    24    25    1
    71    24    26    1
    72    24    83    1
    73    25    84    1
    74    25    85    1
    75    25    86    1
    76    26    27    2
    77    26    28    1
    78    28    29    1
    79    28    37    1
    80    29    30    1
    81    29    87    1
    82    29    88    1
    83    30    31    1
    84    30    89    1
    85    30    90    1
    86    31    32    1
    87    31    91    1
    88    31    92    1
    89    32    33    1
    90    32    93    1
    91    32    94    1
    92    33    34    1
    93    33    95    1
    94    33    96    1
    95    34    35    1
    96    34    97    1
    97    34    98    1
    98    35    36    1
    99    35    99    1
   100    35   100    1
   101    36   101    1
   102    36   102    1
   103    36   103    1
   104    37    38    1
   105    37   104    1
   106    37   105    1
   107    38    39    1
   108    38   106    1
   109    38   107    1
   110    39    40    1
   111    39   108    1
   112    39   109    1
   113    40    41    1
   114    40   110    1
   115    40   111    1
   116    41    42    1
   117    41   112    1
   118    41   113    1
   119    42    43    1
   120    42   114    1
   121    42   115    1
   122    43    44    1
   123    43   116    1
   124    43   117    1
   125    44   118    1
   126    44   119    1
   127    44   120    1
   128   121   122    1
   129   121   164    1
   130   121   165    1
   131   121   166    1
   132   122   123    1
   133   122   167    1
   134   122   168    1
   135   123   124    1
   136   123   169    1
   137   123   170    1
   138   124   125    1
   139   124   171    1
   140   124   172    1
   141   125   126    1
   142   125   173    1
   143   125   174    1
   144   126   127    1
   145   126   175    1
   146   126   176    1
   147   127   128    1
   148   127   177    1
   149   127   178    1
   150   128   129    1
   151   128   179    1
   152   128   180    1
   153   129   130    1
   154   129   138    1
   155   130   131    1
   156   130   181    1
   157   130   182    1
   158   131   132    1
   159   131   183    1
   160   131   184    1
   161   132   133    1
   162   132   185    1
   163   132   186    1
   164   133   134    1
   165   133   187    1
   166   133   188    1
   167   134   135    1
   168   134   189    1
   169   134   190    1
   170   135   136    1
   171   135   191    1
   172   135   192    1
   173   136   137    1
   174   136   193    1
   175   136   194    1
   176   137   195    1
   177   137   196    1
   178   137   197    1
   179   138   139    2
   180   138   140    1
   181   140   141    1
   182   140   142    1
   183   140   198    1
   184   141   199    1
   185   141   200    1
   186   141   201    1
   187   142   143    1
   188   143   144    1
   189   143   145    1
   190   143   202    1
   191   144   203    1
   192   144   204    1
   193   144   205    1
   194   145   146    2
   195   145   147    1
   196   147   148    1
   197   147   156    1
   198   148   149    1
   199   148   206    1
   200   148   207    1
   201   149   150    1
   202   149   208    1
   203   149   209    1
   204   150   151    1
   205   150   210    1
   206   150   211    1
   207   151   152    1
   208   151   212    1
   209   151   213    1
   210   152   153    1
   211   152   214    1
   212   152   215    1
   213   153   154    1
   214   153   216    1
   215   153   217    1
   216   154   155    1
   217   154   218    1
   218   154   219    1
   219   155   220    1
   220   155   221    1
   221   155   222    1
   222   156   157    1
   223   156   223    1
   224   156   224    1
   225   157   158    1
   226   157   225    1
   227   157   226    1
   228   158   159    1
   229   158   227    1
   230   158   228    1
   231   159   160    1
   232   159   229    1
   233   159   230    1
   234   160   161    1
   235   160   231    1
   236   160   232    1
   237   161   162    1
   238   161   233    1
   239   161   234    1
   240   162   163    1
   241   162   235    1
   242   162   236    1
   243   163   237    1
   244   163   238    1
   245   163   239    1
   246   240   241    1
   247   240   283    1
   248   240   284    1
   249   240   285    1
   250   241   242    1
   251   241   286    1
   252   241   287    1
   253   242   243    1
   254   242   288    1
   255   242   289    1
   256   243   244    1
   257   243   290    1
   258   243   291    1
   259   244   245    1
   260   244   292    1
   261   244   293    1
   262   245   246    1
   263   245   294    1
   264   245   295    1
   265   246   247    1
   266   246   296    1
   267   246   297    1
   268   247   248    1
   269   247   298    1
   270   247   299    1
   271   248   249    1
   272   248   257    1
   273   249   250    1
   274   249   300    1
   275   249   301    1
   276   250   251    1
   277   250   302    1
   278   250   303    1
   279   251   252    1
   280   251   304    1
   281   251   305    1
   282   252   253    1
   283   252   306    1
   284   252   307    1
   285   253   254    1
   286   253   308    1
   287   253   309    1
   288   254   255    1
   289   254   310    1
   290   254   311    1
   291   255   256    1
   292   255   312    1
   293   255   313    1
   294   256   314    1
   295   256   315    1
   296   256   316    1
   297   257   258    2
   298   257   259    1
   299   259   260    1
   300   259   261    1
   301   259   317    1
   302   260   318    1
   303   260   319    1
   304   260   320    1
   305   261   262    1
   306   262   263    1
   307   262   264    1
   308   262   321    1
   309   263   322    1
   310   263   323    1
   311   263   324    1
   312   264   265    2
   313   264   266    1
   314   266   267    1
   315   266   275    1
   316   267   268    1
   317   267   325    1
   318   267   326    1
   319   268   269    1
   320   268   327    1
   321   268   328    1
   322   269   270    1
   323   269   329    1
   324   269   330    1
   325   270   271    1
   326   270   331    1
   327   270   332    1
   328   271   272    1
   329   271   333    1
   330   271   334    1
   331   272   273    1
   332   272   335    1
   333   272   336    1
   334   273   274    1
   335   273   337    1
   336   273   338    1
   337   274   339    1
   338   274   340    1
   339   274   341    1
   340   275   276    1
   341   275   342    1
   342   275   343    1
   343   276   277    1
   344   276   344    1
   345   276   345    1
   346   277   278    1
   347   277   346    1
   348   277   347    1
   349   278   279    1
   350   278   348    1
   351   278   349    1
   352   279   280    1
   353   279   350    1
   354   279   351    1
   355   280   281    1
   356   280   352    1
   357   280   353    1
   358   281   282    1
   359   281   354    1
   360   281   355    1
   361   282   356    1
   362   282   357    1
   363   282   358    1
@<TRIPOS>SUBSTRUCTURE
     1 RES1      358 GROUP             0 ****  ****    0  
