@<TRIPOS>MOLECULE
tri_tri_mer_capped_0_nunpairedes_0_charge_3 Charge: 3 Unpaired_Electrons: 7 XTB_Unpaired_Electrons: 0 XTB_Charge: 3
    82    94     1     0     0
SMALL
NoCharges
****
Generated from Architector

@<TRIPOS>ATOM
     1 Gd1       0.8391   -0.0359   -0.7071   Gd        1 RES1   0.0000
     2 C1        5.2763    3.2199    0.1327   C.3       1 RES1   0.0000
     3 C2        4.4383    4.1606   -0.7560   C.3       1 RES1   0.0000
     4 C3        4.8924    3.9790   -2.2250   C.3       1 RES1   0.0000
     5 C4        4.5943    5.6263   -0.2627   C.3       1 RES1   0.0000
     6 C5        3.3696    6.5733   -0.2815   C.3       1 RES1   0.0000
     7 C6        2.0590    6.0023   -0.8747   C.3       1 RES1   0.0000
     8 C7        0.8594    6.8731   -0.5449   C.3       1 RES1   0.0000
     9 C8        2.1709    5.8992   -2.4080   C.3       1 RES1   0.0000
    10 C9        1.9682    4.6589   -0.2726   C.ar      1 RES1   0.0000
    11 N1        0.9553    4.2407    0.4560   N.ar      1 RES1   0.0000
    12 C10       0.7422    2.9487    0.5744   C.ar      1 RES1   0.0000
    13 C11      -0.4679    2.4050    1.2514   C.ar      1 RES1   0.0000
    14 C12      -1.1695    2.9835    2.3069   C.ar      1 RES1   0.0000
    15 C13      -2.3962    2.4201    2.6533   C.ar      1 RES1   0.0000
    16 C14      -2.9210    1.3584    1.9216   C.ar      1 RES1   0.0000
    17 C15      -2.1628    0.8216    0.8817   C.ar      1 RES1   0.0000
    18 C16      -2.6354   -0.1071   -0.1887   C.ar      1 RES1   0.0000
    19 C17      -3.9231   -0.6033   -0.3822   C.ar      1 RES1   0.0000
    20 C18      -4.2339   -1.1893   -1.6055   C.ar      1 RES1   0.0000
    21 C19      -3.2850   -1.2809   -2.6228   C.ar      1 RES1   0.0000
    22 C20      -2.0148   -0.8046   -2.3412   C.ar      1 RES1   0.0000
    23 C21      -0.7877   -0.6590   -3.1917   C.ar      1 RES1   0.0000
    24 N2        0.3086   -1.0897   -2.5456   N.ar      1 RES1   0.0000
    25 N3        1.5077   -0.6710   -2.9648   N.ar      1 RES1   0.0000
    26 C22       1.6252    0.0499   -4.0750   C.ar      1 RES1   0.0000
    27 C23       0.4400    0.6611   -4.5971   C.ar      1 RES1   0.0000
    28 N4       -0.7369    0.2436   -4.1500   N.ar      1 RES1   0.0000
    29 C24       0.5231    1.9951   -5.2718   C.3       1 RES1   0.0000
    30 C25      -0.5235    2.8860   -4.5759   C.3       1 RES1   0.0000
    31 C26       0.1664    1.9313   -6.7688   C.3       1 RES1   0.0000
    32 C27       1.9444    2.5673   -5.0851   C.3       1 RES1   0.0000
    33 C28       3.0390    1.5752   -5.4683   C.3       1 RES1   0.0000
    34 C29       3.0018    0.3149   -4.5833   C.3       1 RES1   0.0000
    35 C30       3.3353   -0.9538   -5.4033   C.3       1 RES1   0.0000
    36 C31       3.9387    0.4289   -3.3714   C.3       1 RES1   0.0000
    37 N5       -1.7030   -0.2752   -1.1465   N.ar      1 RES1   0.0000
    38 N6       -0.9322    1.3098    0.6230   N.ar      1 RES1   0.0000
    39 N7        1.4615    2.0641   -0.1684   N.ar      1 RES1   0.0000
    40 N8        2.6570    2.4680   -0.6426   N.ar      1 RES1   0.0000
    41 C32       3.0252    3.7233   -0.5546   C.ar      1 RES1   0.0000
    42 H1        6.3206    3.5129    0.1122   H         1 RES1   0.0000
    43 H2        5.1808    2.1989   -0.2252   H         1 RES1   0.0000
    44 H3        4.9309    3.2417    1.1627   H         1 RES1   0.0000
    45 H4        5.2821    4.9087   -2.6257   H         1 RES1   0.0000
    46 H5        4.0949    3.6265   -2.8699   H         1 RES1   0.0000
    47 H6        5.6859    3.2458   -2.2767   H         1 RES1   0.0000
    48 H7        5.4086    6.0856   -0.8213   H         1 RES1   0.0000
    49 H8        4.9359    5.5809    0.7706   H         1 RES1   0.0000
    50 H9        3.5994    7.4805   -0.8422   H         1 RES1   0.0000
    51 H10       3.1360    6.8735    0.7413   H         1 RES1   0.0000
    52 H11       1.0187    7.8713   -0.9343   H         1 RES1   0.0000
    53 H12       0.6976    6.9328    0.5226   H         1 RES1   0.0000
    54 H13      -0.0396    6.4765   -1.0043   H         1 RES1   0.0000
    55 H14       2.1223    6.9012   -2.8272   H         1 RES1   0.0000
    56 H15       1.3448    5.3205   -2.8189   H         1 RES1   0.0000
    57 H16       3.1031    5.4568   -2.7290   H         1 RES1   0.0000
    58 H17      -0.7767    3.8350    2.8437   H         1 RES1   0.0000
    59 H18      -2.9694    2.8534    3.4627   H         1 RES1   0.0000
    60 H19      -3.9052    0.9924    2.1643   H         1 RES1   0.0000
    61 H20      -4.6750   -0.5313    0.3876   H         1 RES1   0.0000
    62 H21      -5.2393   -1.5362   -1.7823   H         1 RES1   0.0000
    63 H22      -3.5473   -1.7116   -3.5748   H         1 RES1   0.0000
    64 H23      -1.5208    2.4972   -4.7637   H         1 RES1   0.0000
    65 H24      -0.4755    3.8990   -4.9670   H         1 RES1   0.0000
    66 H25      -0.3622    2.8998   -3.4919   H         1 RES1   0.0000
    67 H26      -0.8846    1.6979   -6.9071   H         1 RES1   0.0000
    68 H27       0.7618    1.1965   -7.2998   H         1 RES1   0.0000
    69 H28       0.3584    2.9117   -7.1983   H         1 RES1   0.0000
    70 H29       2.0636    2.8672   -4.0366   H         1 RES1   0.0000
    71 H30       2.0344    3.4631   -5.7023   H         1 RES1   0.0000
    72 H31       4.0119    2.0557   -5.3715   H         1 RES1   0.0000
    73 H32       2.9408    1.3181   -6.5218   H         1 RES1   0.0000
    74 H33       2.6179   -1.1119   -6.2038   H         1 RES1   0.0000
    75 H34       3.3094   -1.8329   -4.7674   H         1 RES1   0.0000
    76 H35       4.3255   -0.8700   -5.8421   H         1 RES1   0.0000
    77 H36       3.5445    1.1638   -2.6580   H         1 RES1   0.0000
    78 H37       4.9258    0.7469   -3.6912   H         1 RES1   0.0000
    79 H38       4.0389   -0.5322   -2.8686   H         1 RES1   0.0000
    80 O1        1.0131   -1.8798    1.1035   O.3       1 RES1   0.0000
    81 H39       0.8349   -2.8300    0.9720   H         1 RES1   0.0000
    82 H40       1.1769   -1.8246    2.0640   H         1 RES1   0.0000
@<TRIPOS>BOND
     1     1    11    1
     2     1    24    1
     3     1    25    1
     4     1    28    1
     5     1    37    1
     6     1    38    1
     7     1    39    1
     8     1    40    1
     9     1    80    1
    10     2     3    1
    11     2    42    1
    12     2    43    1
    13     2    44    1
    14     3     4    1
    15     3     5    1
    16     3    41    1
    17     4    45    1
    18     4    46    1
    19     4    47    1
    20     5     6    1
    21     5    48    1
    22     5    49    1
    23     6     7    1
    24     6    50    1
    25     6    51    1
    26     7     8    1
    27     7     9    1
    28     7    10    1
    29     8    52    1
    30     8    53    1
    31     8    54    1
    32     9    55    1
    33     9    56    1
    34     9    57    1
    35    10    11    1
    36    10    41    2
    37    11    12    2
    38    12    13    1
    39    12    39    1
    40    13    14    1
    41    13    38    2
    42    14    15    2
    43    14    58    1
    44    15    16    1
    45    15    59    1
    46    16    17    2
    47    16    60    1
    48    17    18    1
    49    17    38    1
    50    18    19    1
    51    18    37    2
    52    19    20    2
    53    19    61    1
    54    20    21    1
    55    20    62    1
    56    21    22    2
    57    21    63    1
    58    22    23    1
    59    22    37    1
    60    23    24    1
    61    23    28    2
    62    24    25    2
    63    25    26    1
    64    26    27    2
    65    26    34    1
    66    27    28    1
    67    27    29    1
    68    29    30    1
    69    29    31    1
    70    29    32    1
    71    30    64    1
    72    30    65    1
    73    30    66    1
    74    31    67    1
    75    31    68    1
    76    31    69    1
    77    32    33    1
    78    32    70    1
    79    32    71    1
    80    33    34    1
    81    33    72    1
    82    33    73    1
    83    34    35    1
    84    34    36    1
    85    35    74    1
    86    35    75    1
    87    35    76    1
    88    36    77    1
    89    36    78    1
    90    36    79    1
    91    39    40    2
    92    40    41    1
    93    80    81    1
    94    80    82    1
@<TRIPOS>SUBSTRUCTURE
     1 RES1       82 GROUP             0 ****  ****    0  
