@<TRIPOS>MOLECULE
cn9_YICLED_0_nunpairedes_0_charge_3 Charge: 3 Unpaired_Electrons: 7 XTB_Unpaired_Electrons: 0 XTB_Charge: 3
   268   273     1     0     0
SMALL
NoCharges
****
Generated from Architector

@<TRIPOS>ATOM
     1 Gd1      -0.0116    0.2564   -0.0419   Gd        1 RES1   0.0000
     2 C1        7.8955    1.5638    5.4389   C.3       1 RES1   0.0000
     3 C2        7.8669    0.8148    4.1103   C.3       1 RES1   0.0000
     4 C3        6.8475    1.3987    3.1224   C.3       1 RES1   0.0000
     5 C4        5.4542    0.7556    3.1497   C.3       1 RES1   0.0000
     6 C5        4.5241    1.1854    4.2967   C.3       1 RES1   0.0000
     7 C6        3.0595    1.1964    3.8210   C.3       1 RES1   0.0000
     8 C7        1.9794    1.5084    4.8778   C.3       1 RES1   0.0000
     9 C8        2.5268    2.4192    5.9679   C.3       1 RES1   0.0000
    10 N1        0.7084    2.0083    4.2440   N.am      1 RES1   0.0000
    11 C9       -0.1195    2.9910    4.9518   C.3       1 RES1   0.0000
    12 C10      -0.2083    4.4052    4.3240   C.3       1 RES1   0.0000
    13 C11      -0.1829    4.5445    2.8008   C.3       1 RES1   0.0000
    14 C12      -0.2071    6.0259    2.4201   C.3       1 RES1   0.0000
    15 C13       0.2030    1.4212    3.1539   C.2       1 RES1   0.0000
    16 O1        0.8512    0.7804    2.3009   O.2       1 RES1   0.0000
    17 C14      -1.3300    1.4235    2.9716   C.3       1 RES1   0.0000
    18 O2       -1.7102    0.3762    2.0959   O.3       1 RES1   0.0000
    19 C15      -1.9977   -0.8666    2.7257   C.3       1 RES1   0.0000
    20 C16      -1.0582   -1.9571    2.2184   C.2       1 RES1   0.0000
    21 O3       -0.3598   -1.6850    1.2142   O.2       1 RES1   0.0000
    22 N2       -1.0738   -3.1510    2.7917   N.am      1 RES1   0.0000
    23 C17      -0.2511   -4.1961    2.1841   C.3       1 RES1   0.0000
    24 C18       0.9559   -4.5723    3.0399   C.3       1 RES1   0.0000
    25 C19       1.6788   -5.7926    2.4770   C.3       1 RES1   0.0000
    26 C20       2.8585   -6.1662    3.3610   C.3       1 RES1   0.0000
    27 C21      -1.8118   -3.5569    4.0098   C.3       1 RES1   0.0000
    28 C22      -1.2215   -2.9571    5.2859   C.3       1 RES1   0.0000
    29 C23      -3.3233   -3.3298    3.8891   C.3       1 RES1   0.0000
    30 C24      -4.1563   -4.2516    4.7869   C.3       1 RES1   0.0000
    31 C25      -5.6454   -3.8776    4.7454   C.3       1 RES1   0.0000
    32 C26      -6.1137   -2.8667    5.7973   C.3       1 RES1   0.0000
    33 C27      -5.5338   -1.4606    5.6577   C.3       1 RES1   0.0000
    34 C28      -6.2173   -0.4665    6.5877   C.3       1 RES1   0.0000
    35 H1        8.6635    1.1490    6.0847   H         1 RES1   0.0000
    36 H2        8.1269    2.6158    5.2749   H         1 RES1   0.0000
    37 H3        6.9447    1.4891    5.9618   H         1 RES1   0.0000
    38 H4        8.8599    0.8815    3.6572   H         1 RES1   0.0000
    39 H5        7.6515   -0.2454    4.2820   H         1 RES1   0.0000
    40 H6        6.7445    2.4740    3.2995   H         1 RES1   0.0000
    41 H7        7.2322    1.2668    2.1040   H         1 RES1   0.0000
    42 H8        4.9923    1.0413    2.2073   H         1 RES1   0.0000
    43 H9        5.5511   -0.3311    3.1346   H         1 RES1   0.0000
    44 H10       4.6439    0.5078    5.1436   H         1 RES1   0.0000
    45 H11       4.8325    2.1785    4.6152   H         1 RES1   0.0000
    46 H12       2.9535    1.9312    3.0232   H         1 RES1   0.0000
    47 H13       2.8379    0.2124    3.3982   H         1 RES1   0.0000
    48 H14       1.6984    0.5581    5.3536   H         1 RES1   0.0000
    49 H15       2.7084    3.4237    5.6014   H         1 RES1   0.0000
    50 H16       1.8874    2.4575    6.8443   H         1 RES1   0.0000
    51 H17       3.4673    1.9949    6.3048   H         1 RES1   0.0000
    52 H18      -1.1360    2.6105    5.0527   H         1 RES1   0.0000
    53 H19       0.2756    3.1104    5.9575   H         1 RES1   0.0000
    54 H20      -1.1418    4.8430    4.6889   H         1 RES1   0.0000
    55 H21       0.5983    5.0235    4.7175   H         1 RES1   0.0000
    56 H22       0.7106    4.0686    2.3839   H         1 RES1   0.0000
    57 H23      -1.0529    4.0619    2.3497   H         1 RES1   0.0000
    58 H24       0.7175    6.5220    2.7133   H         1 RES1   0.0000
    59 H25      -0.3435    6.1310    1.3468   H         1 RES1   0.0000
    60 H26      -1.0385    6.5246    2.9169   H         1 RES1   0.0000
    61 H27      -1.8269    1.2813    3.9383   H         1 RES1   0.0000
    62 H28      -1.6694    2.3491    2.4985   H         1 RES1   0.0000
    63 H29      -1.9856   -0.7838    3.8139   H         1 RES1   0.0000
    64 H30      -3.0072   -1.1520    2.4112   H         1 RES1   0.0000
    65 H31      -0.8760   -5.0787    2.0298   H         1 RES1   0.0000
    66 H32       0.0843   -3.8240    1.2117   H         1 RES1   0.0000
    67 H33       1.6381   -3.7215    3.0952   H         1 RES1   0.0000
    68 H34       0.6443   -4.8130    4.0558   H         1 RES1   0.0000
    69 H35       0.9834   -6.6300    2.4298   H         1 RES1   0.0000
    70 H36       2.0096   -5.5839    1.4584   H         1 RES1   0.0000
    71 H37       2.5219   -6.3674    4.3742   H         1 RES1   0.0000
    72 H38       3.3566   -7.0562    2.9921   H         1 RES1   0.0000
    73 H39       3.5766   -5.3518    3.3911   H         1 RES1   0.0000
    74 H40      -1.6549   -4.6356    4.0634   H         1 RES1   0.0000
    75 H41      -1.5409   -1.9347    5.4604   H         1 RES1   0.0000
    76 H42      -1.5610   -3.5524    6.1268   H         1 RES1   0.0000
    77 H43      -0.1358   -2.9822    5.2810   H         1 RES1   0.0000
    78 H44      -3.5736   -2.3071    4.1498   H         1 RES1   0.0000
    79 H45      -3.6133   -3.5087    2.8499   H         1 RES1   0.0000
    80 H46      -4.0367   -5.2783    4.4385   H         1 RES1   0.0000
    81 H47      -3.8059   -4.2124    5.8182   H         1 RES1   0.0000
    82 H48      -5.8933   -3.5012    3.7505   H         1 RES1   0.0000
    83 H49      -6.2248   -4.7881    4.8954   H         1 RES1   0.0000
    84 H50      -7.1998   -2.7948    5.7165   H         1 RES1   0.0000
    85 H51      -5.8907   -3.2506    6.7930   H         1 RES1   0.0000
    86 H52      -4.4672   -1.4746    5.8917   H         1 RES1   0.0000
    87 H53      -5.6578   -1.1239    4.6247   H         1 RES1   0.0000
    88 H54      -6.1031   -0.7701    7.6233   H         1 RES1   0.0000
    89 H55      -5.7875    0.5263    6.4754   H         1 RES1   0.0000
    90 H56      -7.2784   -0.4031    6.3690   H         1 RES1   0.0000
    91 C29       3.7867    3.1696   -6.5179   C.3       1 RES1   0.0000
    92 C30       4.3018    3.4461   -5.1128   C.3       1 RES1   0.0000
    93 C31       4.3486    2.2186   -4.1953   C.3       1 RES1   0.0000
    94 C32       2.9859    1.6839   -3.7257   C.3       1 RES1   0.0000
    95 C33       2.3239    0.6855   -4.6840   C.3       1 RES1   0.0000
    96 C34       1.2500   -0.1765   -3.9916   C.3       1 RES1   0.0000
    97 C35      -0.1408   -0.2325   -4.6577   C.3       1 RES1   0.0000
    98 C36      -0.0225   -0.6401   -6.1190   C.3       1 RES1   0.0000
    99 N3       -1.0451   -1.1103   -3.8266   N.am      1 RES1   0.0000
   100 C37      -1.8491   -2.2121   -4.3767   C.3       1 RES1   0.0000
   101 C38      -1.4342   -3.6685   -4.1049   C.3       1 RES1   0.0000
   102 C39      -1.2984   -4.0899   -2.6459   C.3       1 RES1   0.0000
   103 C40      -0.8795   -5.5521   -2.5169   C.3       1 RES1   0.0000
   104 C41      -1.2770   -0.6558   -2.6002   C.2       1 RES1   0.0000
   105 O4       -0.7564    0.3851   -2.1476   O.2       1 RES1   0.0000
   106 C42      -2.2285   -1.3760   -1.6287   C.3       1 RES1   0.0000
   107 O5       -2.4829   -0.5405   -0.5161   O.3       1 RES1   0.0000
   108 C43      -3.4835    0.4450   -0.7549   C.3       1 RES1   0.0000
   109 C44      -2.9493    1.8216   -0.3725   C.2       1 RES1   0.0000
   110 O6       -1.7495    1.9277   -0.0452   O.2       1 RES1   0.0000
   111 N4       -3.7990    2.8377   -0.3303   N.am      1 RES1   0.0000
   112 C45      -3.3623    4.0719    0.3131   C.3       1 RES1   0.0000
   113 C46      -3.1446    5.2676   -0.6190   C.3       1 RES1   0.0000
   114 C47      -3.2424    6.5667    0.1909   C.3       1 RES1   0.0000
   115 C48      -2.6366    7.7684   -0.5191   C.3       1 RES1   0.0000
   116 C49      -5.2084    2.8420   -0.7616   C.3       1 RES1   0.0000
   117 C50      -5.3669    2.6392   -2.2648   C.3       1 RES1   0.0000
   118 C51      -6.0602    1.9007    0.0945   C.3       1 RES1   0.0000
   119 C52      -7.5182    2.3425    0.2045   C.3       1 RES1   0.0000
   120 C53      -8.3753    1.2003    0.7596   C.3       1 RES1   0.0000
   121 C54      -8.9853    0.2728   -0.2951   C.3       1 RES1   0.0000
   122 C55      -7.9915   -0.5297   -1.1335   C.3       1 RES1   0.0000
   123 C56      -8.7026   -1.5619   -1.9990   C.3       1 RES1   0.0000
   124 H57       3.9409    4.0344   -7.1571   H         1 RES1   0.0000
   125 H58       4.3168    2.3294   -6.9564   H         1 RES1   0.0000
   126 H59       2.7243    2.9504   -6.5151   H         1 RES1   0.0000
   127 H60       5.3166    3.8381   -5.1985   H         1 RES1   0.0000
   128 H61       3.6916    4.2227   -4.6473   H         1 RES1   0.0000
   129 H62       4.8914    1.4152   -4.6990   H         1 RES1   0.0000
   130 H63       4.9233    2.4996   -3.3063   H         1 RES1   0.0000
   131 H64       3.1253    1.1825   -2.7608   H         1 RES1   0.0000
   132 H65       2.3145    2.5262   -3.5605   H         1 RES1   0.0000
   133 H66       1.9066    1.2188   -5.5319   H         1 RES1   0.0000
   134 H67       3.1149    0.0444   -5.0715   H         1 RES1   0.0000
   135 H68       1.6083   -1.1952   -3.9044   H         1 RES1   0.0000
   136 H69       1.1303    0.2112   -2.9779   H         1 RES1   0.0000
   137 H70      -0.5874    0.7686   -4.5964   H         1 RES1   0.0000
   138 H71       0.5818   -1.5312   -6.2354   H         1 RES1   0.0000
   139 H72      -0.9790   -0.7907   -6.6054   H         1 RES1   0.0000
   140 H73       0.4683    0.1590   -6.6705   H         1 RES1   0.0000
   141 H74      -2.8773   -2.1021   -4.0232   H         1 RES1   0.0000
   142 H75      -1.8749   -2.1159   -5.4586   H         1 RES1   0.0000
   143 H76      -2.2167   -4.2860   -4.5527   H         1 RES1   0.0000
   144 H77      -0.5129   -3.9100   -4.6292   H         1 RES1   0.0000
   145 H78      -0.5498   -3.4709   -2.1443   H         1 RES1   0.0000
   146 H79      -2.2635   -3.9663   -2.1502   H         1 RES1   0.0000
   147 H80       0.0541   -5.7338   -3.0468   H         1 RES1   0.0000
   148 H81      -0.7430   -5.8037   -1.4644   H         1 RES1   0.0000
   149 H82      -1.6429   -6.2024   -2.9380   H         1 RES1   0.0000
   150 H83      -3.1692   -1.6775   -2.1060   H         1 RES1   0.0000
   151 H84      -1.7224   -2.2415   -1.1946   H         1 RES1   0.0000
   152 H85      -3.8110    0.4327   -1.7977   H         1 RES1   0.0000
   153 H86      -4.3328    0.2255   -0.1025   H         1 RES1   0.0000
   154 H87      -4.1338    4.3189    1.0467   H         1 RES1   0.0000
   155 H88      -2.4331    3.8573    0.8434   H         1 RES1   0.0000
   156 H89      -2.1670    5.1826   -1.0935   H         1 RES1   0.0000
   157 H90      -3.8962    5.2747   -1.4086   H         1 RES1   0.0000
   158 H91      -4.2913    6.7714    0.4047   H         1 RES1   0.0000
   159 H92      -2.7430    6.4275    1.1509   H         1 RES1   0.0000
   160 H93      -3.0927    7.9157   -1.4938   H         1 RES1   0.0000
   161 H94      -2.8053    8.6625    0.0746   H         1 RES1   0.0000
   162 H95      -1.5650    7.6335   -0.6485   H         1 RES1   0.0000
   163 H96      -5.5554    3.8547   -0.5474   H         1 RES1   0.0000
   164 H97      -5.2290    1.6092   -2.5739   H         1 RES1   0.0000
   165 H98      -6.3709    2.9325   -2.5500   H         1 RES1   0.0000
   166 H99      -4.6747    3.2716   -2.8137   H         1 RES1   0.0000
   167 H100     -6.0621    0.8957   -0.3136   H         1 RES1   0.0000
   168 H101     -5.6310    1.8686    1.1005   H         1 RES1   0.0000
   169 H102     -7.5722    3.2100    0.8639   H         1 RES1   0.0000
   170 H103     -7.8984    2.6470   -0.7694   H         1 RES1   0.0000
   171 H104     -7.7735    0.6144    1.4593   H         1 RES1   0.0000
   172 H105     -9.1969    1.6362    1.3242   H         1 RES1   0.0000
   173 H106     -9.6335   -0.4345    0.2245   H         1 RES1   0.0000
   174 H107     -9.6184    0.8584   -0.9612   H         1 RES1   0.0000
   175 H108     -7.4258    0.1374   -1.7871   H         1 RES1   0.0000
   176 H109     -7.2938   -1.0475   -0.4690   H         1 RES1   0.0000
   177 H110     -9.3887   -1.0714   -2.6819   H         1 RES1   0.0000
   178 H111     -7.9918   -2.1398   -2.5860   H         1 RES1   0.0000
   179 H112     -9.2714   -2.2495   -1.3807   H         1 RES1   0.0000
   180 C57       1.3263    6.5206   -5.1245   C.3       1 RES1   0.0000
   181 C58       0.1797    5.5323   -5.2978   C.3       1 RES1   0.0000
   182 C59      -0.6235    5.2581   -4.0225   C.3       1 RES1   0.0000
   183 C60       0.2111    4.6695   -2.8761   C.3       1 RES1   0.0000
   184 C61       0.7131    5.7284   -1.8933   C.3       1 RES1   0.0000
   185 C62       1.3932    5.1446   -0.6509   C.3       1 RES1   0.0000
   186 C63       2.6694    4.3765   -1.0090   C.3       1 RES1   0.0000
   187 C64       3.8079    5.2900   -1.4405   C.3       1 RES1   0.0000
   188 N5        3.0912    3.4070    0.0365   N.am      1 RES1   0.0000
   189 C65       4.2065    3.7275    0.9214   C.3       1 RES1   0.0000
   190 C66       4.0184    5.0749    1.6547   C.3       1 RES1   0.0000
   191 C67       3.7111    4.9308    3.1433   C.3       1 RES1   0.0000
   192 C68       3.6216    6.3051    3.7990   C.3       1 RES1   0.0000
   193 C69       2.4770    2.2269   -0.0024   C.2       1 RES1   0.0000
   194 O7        1.3254    2.0909   -0.4667   O.2       1 RES1   0.0000
   195 C70       3.2375    0.9357    0.3490   C.3       1 RES1   0.0000
   196 O8        2.4801   -0.1334   -0.2064   O.3       1 RES1   0.0000
   197 C71       3.1723   -1.3807   -0.3458   C.3       1 RES1   0.0000
   198 C72       2.3859   -2.1024   -1.4548   C.2       1 RES1   0.0000
   199 O9        1.1707   -1.8099   -1.4773   O.2       1 RES1   0.0000
   200 N6        2.9845   -2.9177   -2.3242   N.am      1 RES1   0.0000
   201 C73       2.2054   -3.5458   -3.4019   C.3       1 RES1   0.0000
   202 C74       2.8611   -3.3956   -4.7860   C.3       1 RES1   0.0000
   203 C75       2.0151   -3.9354   -5.9456   C.3       1 RES1   0.0000
   204 C76       2.6001   -3.4859   -7.2823   C.3       1 RES1   0.0000
   205 C77       4.3130   -3.5496   -2.1681   C.3       1 RES1   0.0000
   206 C78       5.4935   -2.6250   -2.4486   C.3       1 RES1   0.0000
   207 C79       4.3648   -4.3150   -0.8445   C.3       1 RES1   0.0000
   208 C80       5.3515   -5.4836   -0.9069   C.3       1 RES1   0.0000
   209 C81       5.5510   -6.1858    0.4386   C.3       1 RES1   0.0000
   210 C82       6.6911   -5.5923    1.2642   C.3       1 RES1   0.0000
   211 C83       6.4824   -4.1316    1.6510   C.3       1 RES1   0.0000
   212 C84       7.5718   -3.6392    2.5900   C.3       1 RES1   0.0000
   213 H113      1.7311    6.7988   -6.0942   H         1 RES1   0.0000
   214 H114      0.9840    7.4267   -4.6307   H         1 RES1   0.0000
   215 H115      2.1343    6.0802   -4.5447   H         1 RES1   0.0000
   216 H116     -0.5044    5.9215   -6.0529   H         1 RES1   0.0000
   217 H117      0.5766    4.5872   -5.6764   H         1 RES1   0.0000
   218 H118     -1.1085    6.1797   -3.6977   H         1 RES1   0.0000
   219 H119     -1.4137    4.5490   -4.2771   H         1 RES1   0.0000
   220 H120     -0.3761    3.9350   -2.3105   H         1 RES1   0.0000
   221 H121      1.0510    4.1412   -3.3254   H         1 RES1   0.0000
   222 H122      1.3896    6.4296   -2.3776   H         1 RES1   0.0000
   223 H123     -0.1453    6.3144   -1.5653   H         1 RES1   0.0000
   224 H124      1.6176    5.9635    0.0378   H         1 RES1   0.0000
   225 H125      0.7083    4.4420   -0.1688   H         1 RES1   0.0000
   226 H126      2.4218    3.7208   -1.8481   H         1 RES1   0.0000
   227 H127      4.0389    6.0562   -0.7107   H         1 RES1   0.0000
   228 H128      4.7087    4.7322   -1.6736   H         1 RES1   0.0000
   229 H129      3.5123    5.8001   -2.3494   H         1 RES1   0.0000
   230 H130      4.3062    2.9370    1.6682   H         1 RES1   0.0000
   231 H131      5.1305    3.7809    0.3421   H         1 RES1   0.0000
   232 H132      4.9223    5.6766    1.5414   H         1 RES1   0.0000
   233 H133      3.1956    5.6320    1.2124   H         1 RES1   0.0000
   234 H134      2.7613    4.4042    3.2576   H         1 RES1   0.0000
   235 H135      4.4930    4.3476    3.6332   H         1 RES1   0.0000
   236 H136      3.0485    6.9909    3.1789   H         1 RES1   0.0000
   237 H137      3.1469    6.2481    4.7741   H         1 RES1   0.0000
   238 H138      4.6143    6.7241    3.9278   H         1 RES1   0.0000
   239 H139      4.2200    0.9983   -0.1364   H         1 RES1   0.0000
   240 H140      3.3475    0.7582    1.4206   H         1 RES1   0.0000
   241 H141      4.2249   -1.2241   -0.5824   H         1 RES1   0.0000
   242 H142      3.1022   -1.9508    0.5907   H         1 RES1   0.0000
   243 H143      2.0848   -4.6097   -3.1704   H         1 RES1   0.0000
   244 H144      1.2183   -3.0873   -3.4012   H         1 RES1   0.0000
   245 H145      3.0652   -2.3432   -4.9839   H         1 RES1   0.0000
   246 H146      3.8187   -3.9144   -4.8275   H         1 RES1   0.0000
   247 H147      1.9779   -5.0246   -5.9154   H         1 RES1   0.0000
   248 H148      0.9886   -3.5743   -5.8788   H         1 RES1   0.0000
   249 H149      3.5513   -3.9734   -7.4697   H         1 RES1   0.0000
   250 H150      1.9299   -3.7267   -8.1025   H         1 RES1   0.0000
   251 H151      2.7625   -2.4098   -7.2889   H         1 RES1   0.0000
   252 H152      4.3438   -4.3052   -2.9545   H         1 RES1   0.0000
   253 H153      5.6883   -1.9012   -1.6648   H         1 RES1   0.0000
   254 H154      6.3809   -3.2409   -2.5524   H         1 RES1   0.0000
   255 H155      5.3516   -2.0955   -3.3875   H         1 RES1   0.0000
   256 H156      4.6074   -3.6391   -0.0316   H         1 RES1   0.0000
   257 H157      3.3650   -4.7198   -0.6591   H         1 RES1   0.0000
   258 H158      4.9668   -6.2022   -1.6321   H         1 RES1   0.0000
   259 H159      6.3239   -5.1425   -1.2616   H         1 RES1   0.0000
   260 H160      4.6236   -6.1622    1.0116   H         1 RES1   0.0000
   261 H161      5.7858   -7.2328    0.2469   H         1 RES1   0.0000
   262 H162      6.8066   -6.1825    2.1741   H         1 RES1   0.0000
   263 H163      7.6180   -5.6834    0.6970   H         1 RES1   0.0000
   264 H164      6.4963   -3.5103    0.7545   H         1 RES1   0.0000
   265 H165      5.5052   -4.0269    2.1315   H         1 RES1   0.0000
   266 H166      8.5385   -3.6921    2.0994   H         1 RES1   0.0000
   267 H167      7.3959   -2.6070    2.8828   H         1 RES1   0.0000
   268 H168      7.6080   -4.2515    3.4851   H         1 RES1   0.0000
@<TRIPOS>BOND
     1     1    16    1
     2     1    18    1
     3     1    21    1
     4     1   105    1
     5     1   107    1
     6     1   110    1
     7     1   194    1
     8     1   196    1
     9     1   199    1
    10     2     3    1
    11     2    35    1
    12     2    36    1
    13     2    37    1
    14     3     4    1
    15     3    38    1
    16     3    39    1
    17     4     5    1
    18     4    40    1
    19     4    41    1
    20     5     6    1
    21     5    42    1
    22     5    43    1
    23     6     7    1
    24     6    44    1
    25     6    45    1
    26     7     8    1
    27     7    46    1
    28     7    47    1
    29     8     9    1
    30     8    10    1
    31     8    48    1
    32     9    49    1
    33     9    50    1
    34     9    51    1
    35    10    11    1
    36    10    15    1
    37    11    12    1
    38    11    52    1
    39    11    53    1
    40    12    13    1
    41    12    54    1
    42    12    55    1
    43    13    14    1
    44    13    56    1
    45    13    57    1
    46    14    58    1
    47    14    59    1
    48    14    60    1
    49    15    16    2
    50    15    17    1
    51    17    18    1
    52    17    61    1
    53    17    62    1
    54    18    19    1
    55    19    20    1
    56    19    63    1
    57    19    64    1
    58    20    21    2
    59    20    22    1
    60    22    23    1
    61    22    27    1
    62    23    24    1
    63    23    65    1
    64    23    66    1
    65    24    25    1
    66    24    67    1
    67    24    68    1
    68    25    26    1
    69    25    69    1
    70    25    70    1
    71    26    71    1
    72    26    72    1
    73    26    73    1
    74    27    28    1
    75    27    29    1
    76    27    74    1
    77    28    75    1
    78    28    76    1
    79    28    77    1
    80    29    30    1
    81    29    78    1
    82    29    79    1
    83    30    31    1
    84    30    80    1
    85    30    81    1
    86    31    32    1
    87    31    82    1
    88    31    83    1
    89    32    33    1
    90    32    84    1
    91    32    85    1
    92    33    34    1
    93    33    86    1
    94    33    87    1
    95    34    88    1
    96    34    89    1
    97    34    90    1
    98    91    92    1
    99    91   124    1
   100    91   125    1
   101    91   126    1
   102    92    93    1
   103    92   127    1
   104    92   128    1
   105    93    94    1
   106    93   129    1
   107    93   130    1
   108    94    95    1
   109    94   131    1
   110    94   132    1
   111    95    96    1
   112    95   133    1
   113    95   134    1
   114    96    97    1
   115    96   135    1
   116    96   136    1
   117    97    98    1
   118    97    99    1
   119    97   137    1
   120    98   138    1
   121    98   139    1
   122    98   140    1
   123    99   100    1
   124    99   104    1
   125   100   101    1
   126   100   141    1
   127   100   142    1
   128   101   102    1
   129   101   143    1
   130   101   144    1
   131   102   103    1
   132   102   145    1
   133   102   146    1
   134   103   147    1
   135   103   148    1
   136   103   149    1
   137   104   105    2
   138   104   106    1
   139   106   107    1
   140   106   150    1
   141   106   151    1
   142   107   108    1
   143   108   109    1
   144   108   152    1
   145   108   153    1
   146   109   110    2
   147   109   111    1
   148   111   112    1
   149   111   116    1
   150   112   113    1
   151   112   154    1
   152   112   155    1
   153   113   114    1
   154   113   156    1
   155   113   157    1
   156   114   115    1
   157   114   158    1
   158   114   159    1
   159   115   160    1
   160   115   161    1
   161   115   162    1
   162   116   117    1
   163   116   118    1
   164   116   163    1
   165   117   164    1
   166   117   165    1
   167   117   166    1
   168   118   119    1
   169   118   167    1
   170   118   168    1
   171   119   120    1
   172   119   169    1
   173   119   170    1
   174   120   121    1
   175   120   171    1
   176   120   172    1
   177   121   122    1
   178   121   173    1
   179   121   174    1
   180   122   123    1
   181   122   175    1
   182   122   176    1
   183   123   177    1
   184   123   178    1
   185   123   179    1
   186   180   181    1
   187   180   213    1
   188   180   214    1
   189   180   215    1
   190   181   182    1
   191   181   216    1
   192   181   217    1
   193   182   183    1
   194   182   218    1
   195   182   219    1
   196   183   184    1
   197   183   220    1
   198   183   221    1
   199   184   185    1
   200   184   222    1
   201   184   223    1
   202   185   186    1
   203   185   224    1
   204   185   225    1
   205   186   187    1
   206   186   188    1
   207   186   226    1
   208   187   227    1
   209   187   228    1
   210   187   229    1
   211   188   189    1
   212   188   193    1
   213   189   190    1
   214   189   230    1
   215   189   231    1
   216   190   191    1
   217   190   232    1
   218   190   233    1
   219   191   192    1
   220   191   234    1
   221   191   235    1
   222   192   236    1
   223   192   237    1
   224   192   238    1
   225   193   194    2
   226   193   195    1
   227   195   196    1
   228   195   239    1
   229   195   240    1
   230   196   197    1
   231   197   198    1
   232   197   241    1
   233   197   242    1
   234   198   199    2
   235   198   200    1
   236   200   201    1
   237   200   205    1
   238   201   202    1
   239   201   243    1
   240   201   244    1
   241   202   203    1
   242   202   245    1
   243   202   246    1
   244   203   204    1
   245   203   247    1
   246   203   248    1
   247   204   249    1
   248   204   250    1
   249   204   251    1
   250   205   206    1
   251   205   207    1
   252   205   252    1
   253   206   253    1
   254   206   254    1
   255   206   255    1
   256   207   208    1
   257   207   256    1
   258   207   257    1
   259   208   209    1
   260   208   258    1
   261   208   259    1
   262   209   210    1
   263   209   260    1
   264   209   261    1
   265   210   211    1
   266   210   262    1
   267   210   263    1
   268   211   212    1
   269   211   264    1
   270   211   265    1
   271   212   266    1
   272   212   267    1
   273   212   268    1
@<TRIPOS>SUBSTRUCTURE
     1 RES1      268 GROUP             0 ****  ****    0  
