@<TRIPOS>MOLECULE
am_c3_9H2O_c0_0_nunpairedes_0_charge_3 Charge: 3 Unpaired_Electrons: 7 XTB_Unpaired_Electrons: 0 XTB_Charge: 3
   214   219     1     0     0
SMALL
NoCharges
****
Generated from Architector

@<TRIPOS>ATOM
     1 Gd1      -0.0472    0.1416    0.0666   Gd        1 RES1   0.0000
     2 C1        3.1776   -1.8370   -4.6325   C.3       1 RES1   0.0000
     3 C2        1.9063   -1.2478   -5.2360   C.3       1 RES1   0.0000
     4 C3        1.4302   -2.0454   -6.4519   C.3       1 RES1   0.0000
     5 C4        0.4171   -1.3282   -7.3514   C.3       1 RES1   0.0000
     6 C5       -0.9994   -1.1565   -6.7879   C.3       1 RES1   0.0000
     7 C6       -1.1978    0.1109   -5.9535   C.3       1 RES1   0.0000
     8 C7       -2.6469    0.2292   -5.4931   C.3       1 RES1   0.0000
     9 C8       -2.9742    1.4218   -4.5767   C.3       1 RES1   0.0000
    10 N1       -1.9215    1.7834   -3.6360   N.am      1 RES1   0.0000
    11 C9       -0.9530    2.7465   -4.1327   C.3       1 RES1   0.0000
    12 C10      -1.7587    1.2975   -2.4120   C.2       1 RES1   0.0000
    13 O1       -0.7345    1.5237   -1.7319   O.2       1 RES1   0.0000
    14 C11      -2.8441    0.4419   -1.7422   C.3       1 RES1   0.0000
    15 O2       -2.5973    0.3588   -0.3396   O.3       1 RES1   0.0000
    16 C12      -3.3369    1.2662    0.4813   C.3       1 RES1   0.0000
    17 C13      -2.4131    1.7697    1.5998   C.2       1 RES1   0.0000
    18 O3       -1.2305    1.3739    1.6181   O.2       1 RES1   0.0000
    19 N2       -2.9309    2.5968    2.4986   N.am      1 RES1   0.0000
    20 C14      -4.3513    2.8429    2.6149   C.3       1 RES1   0.0000
    21 C15      -2.0589    3.2058    3.4957   C.3       1 RES1   0.0000
    22 C16      -1.4438    4.5245    3.0275   C.3       1 RES1   0.0000
    23 C17      -2.3525    5.7569    2.9773   C.3       1 RES1   0.0000
    24 C18      -3.2211    5.9512    1.7287   C.3       1 RES1   0.0000
    25 C19      -2.4368    5.8629    0.4220   C.3       1 RES1   0.0000
    26 C20      -3.2792    6.2356   -0.7951   C.3       1 RES1   0.0000
    27 C21      -2.4961    6.1460   -2.1068   C.3       1 RES1   0.0000
    28 C22      -1.4751    7.2676   -2.2696   C.3       1 RES1   0.0000
    29 H1        3.4811   -1.2775   -3.7498   H         1 RES1   0.0000
    30 H2        3.9887   -1.7936   -5.3522   H         1 RES1   0.0000
    31 H3        3.0319   -2.8785   -4.3567   H         1 RES1   0.0000
    32 H4        2.1148   -0.2242   -5.5546   H         1 RES1   0.0000
    33 H5        1.1249   -1.2151   -4.4689   H         1 RES1   0.0000
    34 H6        1.0206   -3.0061   -6.1289   H         1 RES1   0.0000
    35 H7        2.3039   -2.2656   -7.0682   H         1 RES1   0.0000
    36 H8        0.3360   -1.9168   -8.2661   H         1 RES1   0.0000
    37 H9        0.8173   -0.3520   -7.6316   H         1 RES1   0.0000
    38 H10      -1.2616   -2.0335   -6.1924   H         1 RES1   0.0000
    39 H11      -1.6943   -1.1170   -7.6283   H         1 RES1   0.0000
    40 H12      -0.9330    0.9677   -6.5732   H         1 RES1   0.0000
    41 H13      -0.5413    0.0836   -5.0811   H         1 RES1   0.0000
    42 H14      -2.9181   -0.7007   -4.9996   H         1 RES1   0.0000
    43 H15      -3.2973    0.3128   -6.3625   H         1 RES1   0.0000
    44 H16      -3.8941    1.1839   -4.0411   H         1 RES1   0.0000
    45 H17      -3.1581    2.3004   -5.1940   H         1 RES1   0.0000
    46 H18      -0.3619    2.3389   -4.9519   H         1 RES1   0.0000
    47 H19      -0.2954    3.0298   -3.3125   H         1 RES1   0.0000
    48 H20      -1.4795    3.6362   -4.4808   H         1 RES1   0.0000
    49 H21      -2.7669   -0.5814   -2.1169   H         1 RES1   0.0000
    50 H22      -3.8459    0.8212   -1.9417   H         1 RES1   0.0000
    51 H23      -4.1906    0.7326    0.9271   H         1 RES1   0.0000
    52 H24      -3.7178    2.1200   -0.0964   H         1 RES1   0.0000
    53 H25      -4.8023    3.1133    1.6629   H         1 RES1   0.0000
    54 H26      -4.5054    3.6629    3.3080   H         1 RES1   0.0000
    55 H27      -4.8606    1.9645    3.0147   H         1 RES1   0.0000
    56 H28      -1.2422    2.5075    3.6800   H         1 RES1   0.0000
    57 H29      -2.6307    3.3399    4.4131   H         1 RES1   0.0000
    58 H30      -0.9885    4.3495    2.0544   H         1 RES1   0.0000
    59 H31      -0.6386    4.7441    3.7284   H         1 RES1   0.0000
    60 H32      -1.7065    6.6324    3.0489   H         1 RES1   0.0000
    61 H33      -2.9953    5.7666    3.8573   H         1 RES1   0.0000
    62 H34      -3.6640    6.9463    1.7993   H         1 RES1   0.0000
    63 H35      -4.0496    5.2464    1.6997   H         1 RES1   0.0000
    64 H36      -2.0672    4.8422    0.2799   H         1 RES1   0.0000
    65 H37      -1.5801    6.5325    0.4895   H         1 RES1   0.0000
    66 H38      -3.6609    7.2483   -0.6777   H         1 RES1   0.0000
    67 H39      -4.1431    5.5694   -0.8512   H         1 RES1   0.0000
    68 H40      -3.2014    6.1998   -2.9386   H         1 RES1   0.0000
    69 H41      -1.9913    5.1738   -2.1615   H         1 RES1   0.0000
    70 H42      -1.9698    8.2337   -2.2104   H         1 RES1   0.0000
    71 H43      -0.9850    7.2004   -3.2389   H         1 RES1   0.0000
    72 H44      -0.7108    7.2302   -1.4964   H         1 RES1   0.0000
    73 C23       7.4336    4.0530   -1.4670   C.3       1 RES1   0.0000
    74 C24       6.5776    3.2076   -2.4016   C.3       1 RES1   0.0000
    75 C25       5.9545    4.0506   -3.5140   C.3       1 RES1   0.0000
    76 C26       4.9722    3.2507   -4.3713   C.3       1 RES1   0.0000
    77 C27       4.0640    4.1239   -5.2375   C.3       1 RES1   0.0000
    78 C28       3.1594    5.1133   -4.4950   C.3       1 RES1   0.0000
    79 C29       2.2194    4.4827   -3.4575   C.3       1 RES1   0.0000
    80 C30       2.8358    4.4308   -2.0562   C.3       1 RES1   0.0000
    81 N3        1.9468    3.8966   -1.0363   N.am      1 RES1   0.0000
    82 C31       1.1642    4.8236   -0.2341   C.3       1 RES1   0.0000
    83 C32       1.7782    2.6072   -0.7853   C.2       1 RES1   0.0000
    84 O4        1.0511    2.1963    0.1364   O.2       1 RES1   0.0000
    85 C33       2.4753    1.5550   -1.6606   C.3       1 RES1   0.0000
    86 O5        2.3418    0.2615   -1.0790   O.3       1 RES1   0.0000
    87 C34       3.4125   -0.1063   -0.2072   C.3       1 RES1   0.0000
    88 C35       2.8839   -0.4095    1.2041   C.2       1 RES1   0.0000
    89 O6        1.6731   -0.2414    1.4553   O.2       1 RES1   0.0000
    90 N4        3.7249   -0.8663    2.1193   N.am      1 RES1   0.0000
    91 C36       5.1429   -1.1017    1.9565   C.3       1 RES1   0.0000
    92 C37       3.2350   -1.0026    3.4895   C.3       1 RES1   0.0000
    93 C38       3.3538    0.3248    4.2382   C.3       1 RES1   0.0000
    94 C39       2.9937    0.1671    5.7138   C.3       1 RES1   0.0000
    95 C40       1.5152   -0.1167    5.9849   C.3       1 RES1   0.0000
    96 C41       0.6031    1.0659    5.6448   C.3       1 RES1   0.0000
    97 C42      -0.7276    1.0618    6.4095   C.3       1 RES1   0.0000
    98 C43      -1.9085    0.3887    5.7129   C.3       1 RES1   0.0000
    99 C44      -1.6647   -1.0592    5.3057   C.3       1 RES1   0.0000
   100 H45       7.9073    3.4348   -0.7085   H         1 RES1   0.0000
   101 H46       8.2105    4.5584   -2.0318   H         1 RES1   0.0000
   102 H47       6.8294    4.8077   -0.9672   H         1 RES1   0.0000
   103 H48       7.1839    2.4164   -2.8456   H         1 RES1   0.0000
   104 H49       5.7839    2.7204   -1.8172   H         1 RES1   0.0000
   105 H50       5.4601    4.9130   -3.0650   H         1 RES1   0.0000
   106 H51       6.7482    4.4400   -4.1509   H         1 RES1   0.0000
   107 H52       5.5401    2.5881   -5.0274   H         1 RES1   0.0000
   108 H53       4.3565    2.6014   -3.7407   H         1 RES1   0.0000
   109 H54       4.6884    4.6932   -5.9269   H         1 RES1   0.0000
   110 H55       3.4345    3.4638   -5.8390   H         1 RES1   0.0000
   111 H56       3.7601    5.8931   -4.0295   H         1 RES1   0.0000
   112 H57       2.5489    5.6034   -5.2532   H         1 RES1   0.0000
   113 H58       1.3053    5.0729   -3.4094   H         1 RES1   0.0000
   114 H59       1.9511    3.4830   -3.7972   H         1 RES1   0.0000
   115 H60       3.7515    3.8466   -2.0678   H         1 RES1   0.0000
   116 H61       3.1026    5.4434   -1.7544   H         1 RES1   0.0000
   117 H62       1.4278    5.8435   -0.4926   H         1 RES1   0.0000
   118 H63       0.1014    4.6606   -0.4157   H         1 RES1   0.0000
   119 H64       1.3552    4.6545    0.8265   H         1 RES1   0.0000
   120 H65       1.9627    1.5049   -2.6263   H         1 RES1   0.0000
   121 H66       3.5309    1.7863   -1.8310   H         1 RES1   0.0000
   122 H67       3.8917   -0.9996   -0.6305   H         1 RES1   0.0000
   123 H68       4.1523    0.7002   -0.1391   H         1 RES1   0.0000
   124 H69       5.5050   -0.7955    0.9823   H         1 RES1   0.0000
   125 H70       5.6820   -0.5444    2.7173   H         1 RES1   0.0000
   126 H71       5.3590   -2.1631    2.1010   H         1 RES1   0.0000
   127 H72       2.1892   -1.3111    3.4500   H         1 RES1   0.0000
   128 H73       3.8251   -1.7750    3.9832   H         1 RES1   0.0000
   129 H74       4.3831    0.6803    4.1660   H         1 RES1   0.0000
   130 H75       2.7082    1.0642    3.7616   H         1 RES1   0.0000
   131 H76       3.5914   -0.6426    6.1361   H         1 RES1   0.0000
   132 H77       3.2783    1.0817    6.2336   H         1 RES1   0.0000
   133 H78       1.2046   -1.0118    5.4461   H         1 RES1   0.0000
   134 H79       1.4193   -0.3320    7.0498   H         1 RES1   0.0000
   135 H80       1.1377    1.9768    5.9162   H         1 RES1   0.0000
   136 H81       0.4155    1.1032    4.5682   H         1 RES1   0.0000
   137 H82      -0.5790    0.5834    7.3777   H         1 RES1   0.0000
   138 H83      -1.0135    2.0949    6.6106   H         1 RES1   0.0000
   139 H84      -2.7577    0.4260    6.3952   H         1 RES1   0.0000
   140 H85      -2.1838    0.9447    4.8182   H         1 RES1   0.0000
   141 H86      -1.2251   -1.6198    6.1256   H         1 RES1   0.0000
   142 H87      -2.6114   -1.5268    5.0428   H         1 RES1   0.0000
   143 H88      -1.0038   -1.1093    4.4405   H         1 RES1   0.0000
   144 C45       0.6580   -8.5407    0.1441   C.3       1 RES1   0.0000
   145 C46       1.5905   -7.3844    0.4837   C.3       1 RES1   0.0000
   146 C47       1.9514   -7.3642    1.9694   C.3       1 RES1   0.0000
   147 C48       2.8112   -6.1523    2.3358   C.3       1 RES1   0.0000
   148 C49       2.8534   -5.8275    3.8305   C.3       1 RES1   0.0000
   149 C50       1.5144   -5.5980    4.5403   C.3       1 RES1   0.0000
   150 C51       0.6758   -4.4093    4.0472   C.3       1 RES1   0.0000
   151 C52      -0.3115   -4.7755    2.9298   C.3       1 RES1   0.0000
   152 N5       -0.9771   -3.6110    2.3541   N.am      1 RES1   0.0000
   153 C53      -2.3377   -3.3711    2.8035   C.3       1 RES1   0.0000
   154 C54      -0.4077   -2.7812    1.4938   C.2       1 RES1   0.0000
   155 O7       -0.9416   -1.7271    1.0887   O.2       1 RES1   0.0000
   156 C55       0.9693   -3.1726    0.9395   C.3       1 RES1   0.0000
   157 O8        1.3519   -2.3751   -0.1701   O.3       1 RES1   0.0000
   158 C56       1.2105   -3.0036   -1.4403   C.3       1 RES1   0.0000
   159 C57      -0.0886   -2.5316   -2.0941   C.2       1 RES1   0.0000
   160 O9       -0.4672   -1.3736   -1.8091   O.2       1 RES1   0.0000
   161 N6       -0.7626   -3.3226   -2.9126   N.am      1 RES1   0.0000
   162 C58      -0.3621   -4.6234   -3.4074   C.3       1 RES1   0.0000
   163 C59      -2.0278   -2.8499   -3.4708   C.3       1 RES1   0.0000
   164 C60      -3.2409   -3.2331   -2.6149   C.3       1 RES1   0.0000
   165 C61      -4.5608   -3.0599   -3.3784   C.3       1 RES1   0.0000
   166 C62      -5.1902   -1.6634   -3.3882   C.3       1 RES1   0.0000
   167 C63      -5.8838   -1.2692   -2.0780   C.3       1 RES1   0.0000
   168 C64      -6.8723   -0.0931   -2.2493   C.3       1 RES1   0.0000
   169 C65      -6.5884    1.1962   -1.4529   C.3       1 RES1   0.0000
   170 C66      -6.1506    2.3905   -2.3017   C.3       1 RES1   0.0000
   171 H89       0.4385   -8.5656   -0.9211   H         1 RES1   0.0000
   172 H90       1.1221   -9.4821    0.4206   H         1 RES1   0.0000
   173 H91      -0.2813   -8.4513    0.6866   H         1 RES1   0.0000
   174 H92       2.5042   -7.4604   -0.1089   H         1 RES1   0.0000
   175 H93       1.0997   -6.4390    0.2074   H         1 RES1   0.0000
   176 H94       1.0295   -7.3763    2.5521   H         1 RES1   0.0000
   177 H95       2.4917   -8.2780    2.2139   H         1 RES1   0.0000
   178 H96       3.8349   -6.3395    2.0040   H         1 RES1   0.0000
   179 H97       2.4676   -5.2741    1.7852   H         1 RES1   0.0000
   180 H98       3.3563   -6.6495    4.3416   H         1 RES1   0.0000
   181 H99       3.4755   -4.9377    3.9649   H         1 RES1   0.0000
   182 H100      0.9174   -6.5076    4.5119   H         1 RES1   0.0000
   183 H101      1.7573   -5.4146    5.5867   H         1 RES1   0.0000
   184 H102      0.1026   -4.0223    4.8900   H         1 RES1   0.0000
   185 H103      1.3467   -3.6123    3.7270   H         1 RES1   0.0000
   186 H104      0.1880   -5.3396    2.1447   H         1 RES1   0.0000
   187 H105     -1.0905   -5.4142    3.3446   H         1 RES1   0.0000
   188 H106     -2.3889   -3.4330    3.8882   H         1 RES1   0.0000
   189 H107     -2.6558   -2.3854    2.4699   H         1 RES1   0.0000
   190 H108     -2.9960   -4.1295    2.3771   H         1 RES1   0.0000
   191 H109      1.7325   -3.0089    1.7051   H         1 RES1   0.0000
   192 H110      0.9637   -4.2324    0.6655   H         1 RES1   0.0000
   193 H111      2.0487   -2.6501   -2.0558   H         1 RES1   0.0000
   194 H112      1.2720   -4.0912   -1.3336   H         1 RES1   0.0000
   195 H113      0.5337   -5.0038   -2.9342   H         1 RES1   0.0000
   196 H114     -1.1715   -5.3331   -3.2477   H         1 RES1   0.0000
   197 H115     -0.1750   -4.5592   -4.4819   H         1 RES1   0.0000
   198 H116     -1.9386   -1.7700   -3.5838   H         1 RES1   0.0000
   199 H117     -2.1319   -3.3008   -4.4590   H         1 RES1   0.0000
   200 H118     -3.1467   -4.2877   -2.3534   H         1 RES1   0.0000
   201 H119     -3.2575   -2.6687   -1.6801   H         1 RES1   0.0000
   202 H120     -4.4010   -3.3640   -4.4145   H         1 RES1   0.0000
   203 H121     -5.2875   -3.7507   -2.9539   H         1 RES1   0.0000
   204 H122     -4.4469   -0.9173   -3.6644   H         1 RES1   0.0000
   205 H123     -5.9437   -1.6705   -4.1771   H         1 RES1   0.0000
   206 H124     -6.4434   -2.1361   -1.7340   H         1 RES1   0.0000
   207 H125     -5.1472   -1.0461   -1.3026   H         1 RES1   0.0000
   208 H126     -6.9505    0.1628   -3.3045   H         1 RES1   0.0000
   209 H127     -7.8530   -0.4483   -1.9528   H         1 RES1   0.0000
   210 H128     -7.5036    1.4907   -0.9512   H         1 RES1   0.0000
   211 H129     -5.8535    1.0001   -0.6698   H         1 RES1   0.0000
   212 H130     -6.7750    2.4712   -3.1890   H         1 RES1   0.0000
   213 H131     -6.2641    3.3154   -1.7388   H         1 RES1   0.0000
   214 H132     -5.1124    2.3319   -2.6281   H         1 RES1   0.0000
@<TRIPOS>BOND
     1     1    13    1
     2     1    15    1
     3     1    18    1
     4     1    84    1
     5     1    86    1
     6     1    89    1
     7     1   155    1
     8     1   157    1
     9     1   160    1
    10     2     3    1
    11     2    29    1
    12     2    30    1
    13     2    31    1
    14     3     4    1
    15     3    32    1
    16     3    33    1
    17     4     5    1
    18     4    34    1
    19     4    35    1
    20     5     6    1
    21     5    36    1
    22     5    37    1
    23     6     7    1
    24     6    38    1
    25     6    39    1
    26     7     8    1
    27     7    40    1
    28     7    41    1
    29     8     9    1
    30     8    42    1
    31     8    43    1
    32     9    10    1
    33     9    44    1
    34     9    45    1
    35    10    11    1
    36    10    12    1
    37    11    46    1
    38    11    47    1
    39    11    48    1
    40    12    13    2
    41    12    14    1
    42    14    15    1
    43    14    49    1
    44    14    50    1
    45    15    16    1
    46    16    17    1
    47    16    51    1
    48    16    52    1
    49    17    18    2
    50    17    19    1
    51    19    20    1
    52    19    21    1
    53    20    53    1
    54    20    54    1
    55    20    55    1
    56    21    22    1
    57    21    56    1
    58    21    57    1
    59    22    23    1
    60    22    58    1
    61    22    59    1
    62    23    24    1
    63    23    60    1
    64    23    61    1
    65    24    25    1
    66    24    62    1
    67    24    63    1
    68    25    26    1
    69    25    64    1
    70    25    65    1
    71    26    27    1
    72    26    66    1
    73    26    67    1
    74    27    28    1
    75    27    68    1
    76    27    69    1
    77    28    70    1
    78    28    71    1
    79    28    72    1
    80    73    74    1
    81    73   100    1
    82    73   101    1
    83    73   102    1
    84    74    75    1
    85    74   103    1
    86    74   104    1
    87    75    76    1
    88    75   105    1
    89    75   106    1
    90    76    77    1
    91    76   107    1
    92    76   108    1
    93    77    78    1
    94    77   109    1
    95    77   110    1
    96    78    79    1
    97    78   111    1
    98    78   112    1
    99    79    80    1
   100    79   113    1
   101    79   114    1
   102    80    81    1
   103    80   115    1
   104    80   116    1
   105    81    82    1
   106    81    83    1
   107    82   117    1
   108    82   118    1
   109    82   119    1
   110    83    84    2
   111    83    85    1
   112    85    86    1
   113    85   120    1
   114    85   121    1
   115    86    87    1
   116    87    88    1
   117    87   122    1
   118    87   123    1
   119    88    89    2
   120    88    90    1
   121    90    91    1
   122    90    92    1
   123    91   124    1
   124    91   125    1
   125    91   126    1
   126    92    93    1
   127    92   127    1
   128    92   128    1
   129    93    94    1
   130    93   129    1
   131    93   130    1
   132    94    95    1
   133    94   131    1
   134    94   132    1
   135    95    96    1
   136    95   133    1
   137    95   134    1
   138    96    97    1
   139    96   135    1
   140    96   136    1
   141    97    98    1
   142    97   137    1
   143    97   138    1
   144    98    99    1
   145    98   139    1
   146    98   140    1
   147    99   141    1
   148    99   142    1
   149    99   143    1
   150   144   145    1
   151   144   171    1
   152   144   172    1
   153   144   173    1
   154   145   146    1
   155   145   174    1
   156   145   175    1
   157   146   147    1
   158   146   176    1
   159   146   177    1
   160   147   148    1
   161   147   178    1
   162   147   179    1
   163   148   149    1
   164   148   180    1
   165   148   181    1
   166   149   150    1
   167   149   182    1
   168   149   183    1
   169   150   151    1
   170   150   184    1
   171   150   185    1
   172   151   152    1
   173   151   186    1
   174   151   187    1
   175   152   153    1
   176   152   154    1
   177   153   188    1
   178   153   189    1
   179   153   190    1
   180   154   155    2
   181   154   156    1
   182   156   157    1
   183   156   191    1
   184   156   192    1
   185   157   158    1
   186   158   159    1
   187   158   193    1
   188   158   194    1
   189   159   160    2
   190   159   161    1
   191   161   162    1
   192   161   163    1
   193   162   195    1
   194   162   196    1
   195   162   197    1
   196   163   164    1
   197   163   198    1
   198   163   199    1
   199   164   165    1
   200   164   200    1
   201   164   201    1
   202   165   166    1
   203   165   202    1
   204   165   203    1
   205   166   167    1
   206   166   204    1
   207   166   205    1
   208   167   168    1
   209   167   206    1
   210   167   207    1
   211   168   169    1
   212   168   208    1
   213   168   209    1
   214   169   170    1
   215   169   210    1
   216   169   211    1
   217   170   212    1
   218   170   213    1
   219   170   214    1
@<TRIPOS>SUBSTRUCTURE
     1 RES1      214 GROUP             0 ****  ****    0  
