@<TRIPOS>MOLECULE
tri_tri_mer_capped_0_nunpairedes_0_charge_3 Charge: 3 Unpaired_Electrons: 7 XTB_Unpaired_Electrons: 0 XTB_Charge: 3
    98   108     1     0     0
SMALL
NoCharges
****
Generated from Architector

@<TRIPOS>ATOM
     1 Gd1      -0.2249   -0.8248    0.8465   Gd        1 RES1   0.0000
     2 C1       -4.1109   -0.2956   -3.5440   C.3       1 RES1   0.0000
     3 C2       -3.1217   -0.1371   -2.3925   C.3       1 RES1   0.0000
     4 C3       -2.3853   -1.4485   -2.0653   C.3       1 RES1   0.0000
     5 C4       -1.5640   -1.9136   -3.2720   C.3       1 RES1   0.0000
     6 C5       -0.4926   -2.9890   -3.0085   C.3       1 RES1   0.0000
     7 C6        0.6221   -2.5143   -2.1384   C.ar      1 RES1   0.0000
     8 N1        0.3975   -2.6160   -0.8376   N.ar      1 RES1   0.0000
     9 N2        1.2994   -2.1866    0.0560   N.ar      1 RES1   0.0000
    10 C7        2.4279   -1.6273   -0.3867   C.ar      1 RES1   0.0000
    11 C8        3.0666   -0.7109    0.6048   C.ar      1 RES1   0.0000
    12 C9        4.3740   -0.6337    1.0447   C.ar      1 RES1   0.0000
    13 C10       4.6978    0.3996    1.9195   C.ar      1 RES1   0.0000
    14 C11       3.7277    1.3074    2.3281   C.ar      1 RES1   0.0000
    15 C12       2.4208    1.1250    1.8889   C.ar      1 RES1   0.0000
    16 C13       1.2113    1.8110    2.4153   C.ar      1 RES1   0.0000
    17 C14       1.0696    3.0263    3.0755   C.ar      1 RES1   0.0000
    18 C15      -0.1969    3.3751    3.5342   C.ar      1 RES1   0.0000
    19 C16      -1.2789    2.4973    3.4452   C.ar      1 RES1   0.0000
    20 C17      -1.0536    1.2933    2.7993   C.ar      1 RES1   0.0000
    21 C18      -1.7872   -0.0104    2.6251   C.ar      1 RES1   0.0000
    22 N3       -1.0458   -0.9943    3.1532   N.ar      1 RES1   0.0000
    23 N4       -1.0886   -2.1762    2.5768   N.ar      1 RES1   0.0000
    24 C19      -2.0884   -2.5092    1.7482   C.ar      1 RES1   0.0000
    25 C20      -2.0647   -3.9444    1.3282   C.3       1 RES1   0.0000
    26 C21      -2.4608   -4.8231    2.5502   C.3       1 RES1   0.0000
    27 C22      -1.4590   -4.7888    3.6958   C.3       1 RES1   0.0000
    28 C23      -0.0519   -5.2973    3.3696   C.3       1 RES1   0.0000
    29 C24      -0.0094   -6.7106    2.7912   C.3       1 RES1   0.0000
    30 C25      -3.0946   -1.5203    1.5008   C.ar      1 RES1   0.0000
    31 C26      -4.4641   -1.8182    1.0134   C.3       1 RES1   0.0000
    32 C27      -5.4553   -1.0850    1.9347   C.3       1 RES1   0.0000
    33 C28      -5.1712   -1.4959    3.3840   C.3       1 RES1   0.0000
    34 C29      -5.5232   -0.3917    4.3652   C.3       1 RES1   0.0000
    35 C30      -5.2314   -0.8058    5.8007   C.3       1 RES1   0.0000
    36 N5       -2.7298   -0.2310    1.7098   N.ar      1 RES1   0.0000
    37 N6        0.1432    1.0209    2.2568   N.ar      1 RES1   0.0000
    38 N7        2.1108    0.1317    1.0334   N.ar      1 RES1   0.0000
    39 N8        2.6964   -1.4486   -1.6621   N.ar      1 RES1   0.0000
    40 C31       1.7975   -1.8050   -2.5654   C.ar      1 RES1   0.0000
    41 C32       1.9535   -1.1600   -3.8806   C.3       1 RES1   0.0000
    42 C33       2.4859    0.2734   -3.6621   C.3       1 RES1   0.0000
    43 C34       1.5784    1.1804   -2.8221   C.3       1 RES1   0.0000
    44 C35       2.2442    2.5476   -2.6208   C.3       1 RES1   0.0000
    45 C36       3.4516    2.5394   -1.6848   C.3       1 RES1   0.0000
    46 H1       -4.7008    0.6075   -3.6598   H         1 RES1   0.0000
    47 H2       -4.7988   -1.1129   -3.3595   H         1 RES1   0.0000
    48 H3       -3.6018   -0.4759   -4.4858   H         1 RES1   0.0000
    49 H4       -3.6573    0.2226   -1.5061   H         1 RES1   0.0000
    50 H5       -2.3886    0.6187   -2.6786   H         1 RES1   0.0000
    51 H6       -3.1226   -2.2108   -1.8072   H         1 RES1   0.0000
    52 H7       -1.7348   -1.2893   -1.1534   H         1 RES1   0.0000
    53 H8       -1.1123   -1.0411   -3.7450   H         1 RES1   0.0000
    54 H9       -2.2632   -2.3566   -3.9783   H         1 RES1   0.0000
    55 H10      -0.1146   -3.3266   -3.9726   H         1 RES1   0.0000
    56 H11      -0.9679   -3.8306   -2.5044   H         1 RES1   0.0000
    57 H12       5.0982   -1.3798    0.7605   H         1 RES1   0.0000
    58 H13       5.7022    0.4771    2.3024   H         1 RES1   0.0000
    59 H14       3.9886    2.1053    3.0003   H         1 RES1   0.0000
    60 H15       1.8950    3.7052    3.2228   H         1 RES1   0.0000
    61 H16      -0.3425    4.3385    3.9987   H         1 RES1   0.0000
    62 H17      -2.2301    2.7490    3.8785   H         1 RES1   0.0000
    63 H18      -1.0406   -4.2274    1.0395   H         1 RES1   0.0000
    64 H19      -2.7460   -4.1417    0.5012   H         1 RES1   0.0000
    65 H20      -2.5552   -5.8483    2.1928   H         1 RES1   0.0000
    66 H21      -3.4351   -4.5063    2.9234   H         1 RES1   0.0000
    67 H22      -1.8674   -5.3905    4.5126   H         1 RES1   0.0000
    68 H23      -1.3600   -3.7604    4.0724   H         1 RES1   0.0000
    69 H24       0.5188   -5.2952    4.3000   H         1 RES1   0.0000
    70 H25       0.4527   -4.6057    2.6820   H         1 RES1   0.0000
    71 H26      -0.4927   -7.4127    3.4641   H         1 RES1   0.0000
    72 H27       1.0231   -7.0287    2.6665   H         1 RES1   0.0000
    73 H28      -0.4988   -6.7747    1.8220   H         1 RES1   0.0000
    74 H29      -4.6262   -2.8956    1.0532   H         1 RES1   0.0000
    75 H30      -4.6142   -1.4849   -0.0166   H         1 RES1   0.0000
    76 H31      -6.4758   -1.3405    1.6502   H         1 RES1   0.0000
    77 H32      -5.3134   -0.0090    1.8142   H         1 RES1   0.0000
    78 H33      -4.0982   -1.7330    3.4848   H         1 RES1   0.0000
    79 H34      -5.7150   -2.4072    3.6334   H         1 RES1   0.0000
    80 H35      -6.5853   -0.1502    4.2679   H         1 RES1   0.0000
    81 H36      -4.9553    0.5102    4.1034   H         1 RES1   0.0000
    82 H37      -5.8311   -1.6697    6.0807   H         1 RES1   0.0000
    83 H38      -5.4624    0.0086    6.4801   H         1 RES1   0.0000
    84 H39      -4.1790   -1.0636    5.9223   H         1 RES1   0.0000
    85 H40       1.0223   -1.2019   -4.4440   H         1 RES1   0.0000
    86 H41       2.7055   -1.6903   -4.4734   H         1 RES1   0.0000
    87 H42       2.6430    0.7383   -4.6330   H         1 RES1   0.0000
    88 H43       3.4551    0.2009   -3.1748   H         1 RES1   0.0000
    89 H44       1.3546    0.7313   -1.8280   H         1 RES1   0.0000
    90 H45       0.6307    1.3244   -3.3499   H         1 RES1   0.0000
    91 H46       1.5104    3.2554   -2.2317   H         1 RES1   0.0000
    92 H47       2.5646    2.9132   -3.5949   H         1 RES1   0.0000
    93 H48       3.1852    2.1642   -0.6921   H         1 RES1   0.0000
    94 H49       3.8311    3.5544   -1.5722   H         1 RES1   0.0000
    95 H50       4.2648    1.9335   -2.0799   H         1 RES1   0.0000
    96 O1       -1.0670    1.2419   -0.4617   O.3       1 RES1   0.0000
    97 H51      -2.0012    1.4416   -0.6552   H         1 RES1   0.0000
    98 H52      -0.5961    2.0462   -0.7327   H         1 RES1   0.0000
@<TRIPOS>BOND
     1     1     8    1
     2     1     9    1
     3     1    22    1
     4     1    23    1
     5     1    36    1
     6     1    37    1
     7     1    38    1
     8     1    39    1
     9     1    96    1
    10     2     3    1
    11     2    46    1
    12     2    47    1
    13     2    48    1
    14     3     4    1
    15     3    49    1
    16     3    50    1
    17     4     5    1
    18     4    51    1
    19     4    52    1
    20     5     6    1
    21     5    53    1
    22     5    54    1
    23     6     7    1
    24     6    55    1
    25     6    56    1
    26     7     8    1
    27     7    40    2
    28     8     9    2
    29     9    10    1
    30    10    11    1
    31    10    39    2
    32    11    12    1
    33    11    38    2
    34    12    13    2
    35    12    57    1
    36    13    14    1
    37    13    58    1
    38    14    15    2
    39    14    59    1
    40    15    16    1
    41    15    38    1
    42    16    17    1
    43    16    37    2
    44    17    18    2
    45    17    60    1
    46    18    19    1
    47    18    61    1
    48    19    20    2
    49    19    62    1
    50    20    21    1
    51    20    37    1
    52    21    22    1
    53    21    36    2
    54    22    23    2
    55    23    24    1
    56    24    25    1
    57    24    30    2
    58    25    26    1
    59    25    63    1
    60    25    64    1
    61    26    27    1
    62    26    65    1
    63    26    66    1
    64    27    28    1
    65    27    67    1
    66    27    68    1
    67    28    29    1
    68    28    69    1
    69    28    70    1
    70    29    71    1
    71    29    72    1
    72    29    73    1
    73    30    31    1
    74    30    36    1
    75    31    32    1
    76    31    74    1
    77    31    75    1
    78    32    33    1
    79    32    76    1
    80    32    77    1
    81    33    34    1
    82    33    78    1
    83    33    79    1
    84    34    35    1
    85    34    80    1
    86    34    81    1
    87    35    82    1
    88    35    83    1
    89    35    84    1
    90    39    40    1
    91    40    41    1
    92    41    42    1
    93    41    85    1
    94    41    86    1
    95    42    43    1
    96    42    87    1
    97    42    88    1
    98    43    44    1
    99    43    89    1
   100    43    90    1
   101    44    45    1
   102    44    91    1
   103    44    92    1
   104    45    93    1
   105    45    94    1
   106    45    95    1
   107    96    97    1
   108    96    98    1
@<TRIPOS>SUBSTRUCTURE
     1 RES1       98 GROUP             0 ****  ****    0  
