@<TRIPOS>MOLECULE
am_c3_9H2O_c0_0_nunpairedes_0_charge_3 Charge: 3 Unpaired_Electrons: 7 XTB_Unpaired_Electrons: 0 XTB_Charge: 3
   160   171     1     0     0
SMALL
NoCharges
****
Generated from Architector

@<TRIPOS>ATOM
     1 Gd1      -0.0282    0.0027   -0.0116   Gd        1 RES1   0.0000
     2 C1        5.7560   -3.2959    1.4712   C.3       1 RES1   0.0000
     3 C2        4.7850   -4.2909    0.8494   C.3       1 RES1   0.0000
     4 C3        3.9208   -5.0123    1.8833   C.3       1 RES1   0.0000
     5 C4        2.9364   -4.0802    2.5974   C.3       1 RES1   0.0000
     6 N1        1.9317   -3.5259    1.7051   N.am      1 RES1   0.0000
     7 C5        1.0713   -4.5198    1.0434   C.3       1 RES1   0.0000
     8 C6        1.3350   -4.6807   -0.4609   C.3       1 RES1   0.0000
     9 C7        0.4207   -5.7336   -1.0916   C.3       1 RES1   0.0000
    10 C8        0.7241   -5.8964   -2.5758   C.3       1 RES1   0.0000
    11 C9        1.6356   -2.2564    1.4425   C.2       1 RES1   0.0000
    12 O1        0.7530   -2.0217    0.5801   O.2       1 RES1   0.0000
    13 C10       2.1931   -1.0212    2.1359   C.ar      1 RES1   0.0000
    14 C11       2.8692   -0.9007    3.3650   C.ar      1 RES1   0.0000
    15 C12       3.2046    0.3520    3.8296   C.ar      1 RES1   0.0000
    16 C13       2.7968    1.5068    3.1441   C.ar      1 RES1   0.0000
    17 C14       3.0654    2.8305    3.6074   C.ar      1 RES1   0.0000
    18 C15       2.5890    3.9112    2.9391   C.ar      1 RES1   0.0000
    19 C16       1.7671    3.7493    1.7846   C.ar      1 RES1   0.0000
    20 C17       1.1866    4.8281    1.0990   C.ar      1 RES1   0.0000
    21 C18       0.3161    4.6157    0.0530   C.ar      1 RES1   0.0000
    22 C19       0.0308    3.2972   -0.3342   C.ar      1 RES1   0.0000
    23 C20      -0.9734    2.7818   -1.3449   C.2       1 RES1   0.0000
    24 O2       -1.0084    1.5366   -1.4719   O.2       1 RES1   0.0000
    25 N2       -1.8391    3.5076   -2.0534   N.am      1 RES1   0.0000
    26 C21      -2.7179    2.7463   -2.9559   C.3       1 RES1   0.0000
    27 C22      -3.7270    1.7606   -2.3431   C.3       1 RES1   0.0000
    28 C23      -4.8600    2.4017   -1.5403   C.3       1 RES1   0.0000
    29 C24      -5.8198    1.3601   -0.9762   C.3       1 RES1   0.0000
    30 C25      -1.7769    4.9471   -2.2738   C.3       1 RES1   0.0000
    31 C26      -2.5838    5.7573   -1.2483   C.3       1 RES1   0.0000
    32 C27      -4.0569    5.9282   -1.6301   C.3       1 RES1   0.0000
    33 C28      -4.8017    6.7142   -0.5596   C.3       1 RES1   0.0000
    34 N3        0.6342    2.2690    0.2677   N.ar      1 RES1   0.0000
    35 C29       1.4722    2.4547    1.2945   C.ar      1 RES1   0.0000
    36 C30       2.0472    1.3004    1.9627   C.ar      1 RES1   0.0000
    37 N4        1.8167    0.0754    1.4766   N.ar      1 RES1   0.0000
    38 H1        6.4057   -2.8837    0.7052   H         1 RES1   0.0000
    39 H2        6.3805   -3.7927    2.2077   H         1 RES1   0.0000
    40 H3        5.2336   -2.4685    1.9492   H         1 RES1   0.0000
    41 H4        5.3558   -5.0461    0.3086   H         1 RES1   0.0000
    42 H5        4.1450   -3.7727    0.1319   H         1 RES1   0.0000
    43 H6        4.5655   -5.4387    2.6519   H         1 RES1   0.0000
    44 H7        3.3867   -5.8379    1.4126   H         1 RES1   0.0000
    45 H8        3.5099   -3.2932    3.0741   H         1 RES1   0.0000
    46 H9        2.3966   -4.6372    3.3701   H         1 RES1   0.0000
    47 H10       0.0310   -4.2023    1.1865   H         1 RES1   0.0000
    48 H11       1.2053   -5.4767    1.5504   H         1 RES1   0.0000
    49 H12       2.3717   -4.9789   -0.6235   H         1 RES1   0.0000
    50 H13       1.1726   -3.7208   -0.9605   H         1 RES1   0.0000
    51 H14      -0.6245   -5.4399   -0.9617   H         1 RES1   0.0000
    52 H15       0.5676   -6.6927   -0.5911   H         1 RES1   0.0000
    53 H16       0.5893   -4.9559   -3.1060   H         1 RES1   0.0000
    54 H17       0.0649   -6.6369   -3.0160   H         1 RES1   0.0000
    55 H18       1.7473   -6.2291   -2.7218   H         1 RES1   0.0000
    56 H19       3.1154   -1.7448    3.9850   H         1 RES1   0.0000
    57 H20       3.7455    0.4569    4.7565   H         1 RES1   0.0000
    58 H21       3.6601    2.9481    4.5024   H         1 RES1   0.0000
    59 H22       2.7992    4.9186    3.2701   H         1 RES1   0.0000
    60 H23       1.4036    5.8338    1.4196   H         1 RES1   0.0000
    61 H24      -0.1334    5.4641   -0.4269   H         1 RES1   0.0000
    62 H25      -2.0667    2.1775   -3.6327   H         1 RES1   0.0000
    63 H26      -3.2764    3.4698   -3.5451   H         1 RES1   0.0000
    64 H27      -3.2072    1.0222   -1.7264   H         1 RES1   0.0000
    65 H28      -4.1712    1.2391   -3.1973   H         1 RES1   0.0000
    66 H29      -5.4289    3.0652   -2.1950   H         1 RES1   0.0000
    67 H30      -4.4499    2.9908   -0.7174   H         1 RES1   0.0000
    68 H31      -6.2780    0.7946   -1.7820   H         1 RES1   0.0000
    69 H32      -6.6135    1.8518   -0.4217   H         1 RES1   0.0000
    70 H33      -5.3094    0.6663   -0.3082   H         1 RES1   0.0000
    71 H34      -2.1960    5.1313   -3.2643   H         1 RES1   0.0000
    72 H35      -0.7266    5.2503   -2.3111   H         1 RES1   0.0000
    73 H36      -2.1374    6.7486   -1.1626   H         1 RES1   0.0000
    74 H37      -2.5206    5.2796   -0.2675   H         1 RES1   0.0000
    75 H38      -4.5278    4.9534   -1.7511   H         1 RES1   0.0000
    76 H39      -4.1287    6.4630   -2.5786   H         1 RES1   0.0000
    77 H40      -4.7609    6.1954    0.3943   H         1 RES1   0.0000
    78 H41      -5.8434    6.8374   -0.8335   H         1 RES1   0.0000
    79 H42      -4.3724    7.7033   -0.4338   H         1 RES1   0.0000
    80 C31      -1.7953    2.1403    6.8610   C.3       1 RES1   0.0000
    81 C32      -1.6839    2.2289    5.3429   C.3       1 RES1   0.0000
    82 C33      -0.7220    1.2053    4.7281   C.3       1 RES1   0.0000
    83 C34      -1.1826   -0.2618    4.7718   C.3       1 RES1   0.0000
    84 N5       -2.2676   -0.6912    3.8649   N.am      1 RES1   0.0000
    85 C35      -3.3771   -1.3496    4.5487   C.3       1 RES1   0.0000
    86 C36      -4.3846   -0.4011    5.2254   C.3       1 RES1   0.0000
    87 C37      -5.4464    0.2552    4.3383   C.3       1 RES1   0.0000
    88 C38      -4.9468    1.3918    3.4554   C.3       1 RES1   0.0000
    89 C39      -1.9355   -0.7287    2.5718   C.2       1 RES1   0.0000
    90 O3       -0.8071   -0.2912    2.2450   O.2       1 RES1   0.0000
    91 C40      -2.7959   -1.2221    1.4240   C.ar      1 RES1   0.0000
    92 C41      -4.1385   -1.6310    1.4350   C.ar      1 RES1   0.0000
    93 C42      -4.7200   -2.0495    0.2597   C.ar      1 RES1   0.0000
    94 C43      -3.9937   -2.0493   -0.9404   C.ar      1 RES1   0.0000
    95 C44      -4.5634   -2.4483   -2.1839   C.ar      1 RES1   0.0000
    96 C45      -3.8483   -2.3533   -3.3335   C.ar      1 RES1   0.0000
    97 C46      -2.5167   -1.8425   -3.3253   C.ar      1 RES1   0.0000
    98 C47      -1.7543   -1.6808   -4.4925   C.ar      1 RES1   0.0000
    99 C48      -0.5112   -1.0930   -4.4413   C.ar      1 RES1   0.0000
   100 C49       0.0138   -0.7123   -3.1957   C.ar      1 RES1   0.0000
   101 C50       1.3345   -0.0330   -2.8772   C.2       1 RES1   0.0000
   102 O4        1.6098    0.0351   -1.6563   O.2       1 RES1   0.0000
   103 N6        2.1756    0.4712   -3.7821   N.am      1 RES1   0.0000
   104 C51       1.9950    0.6230   -5.2203   C.3       1 RES1   0.0000
   105 C52       0.8882    1.6069   -5.6304   C.3       1 RES1   0.0000
   106 C53       1.2270    3.0880   -5.4248   C.3       1 RES1   0.0000
   107 C54       1.1764    3.5428   -3.9711   C.3       1 RES1   0.0000
   108 C55       3.4793    0.9328   -3.2952   C.3       1 RES1   0.0000
   109 C56       4.6312   -0.0042   -3.6733   C.3       1 RES1   0.0000
   110 C57       4.6300   -1.3589   -2.9592   C.3       1 RES1   0.0000
   111 C58       3.5818   -2.3368   -3.4842   C.3       1 RES1   0.0000
   112 N7       -0.6610   -0.9663   -2.0754   N.ar      1 RES1   0.0000
   113 C59      -1.9011   -1.4644   -2.1104   C.ar      1 RES1   0.0000
   114 C60      -2.6601   -1.5762   -0.8776   C.ar      1 RES1   0.0000
   115 N8       -2.1098   -1.1807    0.2776   N.ar      1 RES1   0.0000
   116 H43      -2.4668    2.9147    7.2196   H         1 RES1   0.0000
   117 H44      -0.8269    2.2916    7.3284   H         1 RES1   0.0000
   118 H45      -2.1850    1.1813    7.1897   H         1 RES1   0.0000
   119 H46      -1.3179    3.2267    5.0882   H         1 RES1   0.0000
   120 H47      -2.6721    2.1222    4.8961   H         1 RES1   0.0000
   121 H48       0.2118    1.2367    5.2981   H         1 RES1   0.0000
   122 H49      -0.4817    1.4864    3.6980   H         1 RES1   0.0000
   123 H50      -1.5004   -0.4771    5.7887   H         1 RES1   0.0000
   124 H51      -0.3137   -0.8902    4.5377   H         1 RES1   0.0000
   125 H52      -2.9096   -1.9529    5.3354   H         1 RES1   0.0000
   126 H53      -3.8823   -2.0495    3.8855   H         1 RES1   0.0000
   127 H54      -3.8588    0.3685    5.7887   H         1 RES1   0.0000
   128 H55      -4.9091   -1.0134    5.9589   H         1 RES1   0.0000
   129 H56      -6.2174    0.6649    4.9929   H         1 RES1   0.0000
   130 H57      -5.9267   -0.5125    3.7305   H         1 RES1   0.0000
   131 H58      -4.5727    2.2072    4.0703   H         1 RES1   0.0000
   132 H59      -5.7711    1.7740    2.8589   H         1 RES1   0.0000
   133 H60      -4.1570    1.0540    2.7863   H         1 RES1   0.0000
   134 H61      -4.7486   -1.5985    2.3185   H         1 RES1   0.0000
   135 H62      -5.7539   -2.3530    0.2526   H         1 RES1   0.0000
   136 H63      -5.5781   -2.8187   -2.1812   H         1 RES1   0.0000
   137 H64      -4.2755   -2.6512   -4.2792   H         1 RES1   0.0000
   138 H65      -2.1618   -1.9980   -5.4383   H         1 RES1   0.0000
   139 H66       0.0242   -0.9539   -5.3607   H         1 RES1   0.0000
   140 H67       1.8567   -0.3554   -5.6909   H         1 RES1   0.0000
   141 H68       2.9373    1.0058   -5.6151   H         1 RES1   0.0000
   142 H69      -0.0430    1.3778   -5.1066   H         1 RES1   0.0000
   143 H70       0.7191    1.4526   -6.6973   H         1 RES1   0.0000
   144 H71       0.4978    3.6726   -5.9876   H         1 RES1   0.0000
   145 H72       2.2054    3.3136   -5.8508   H         1 RES1   0.0000
   146 H73       0.2189    3.2748   -3.5309   H         1 RES1   0.0000
   147 H74       1.2980    4.6219   -3.9189   H         1 RES1   0.0000
   148 H75       1.9645    3.0912   -3.3782   H         1 RES1   0.0000
   149 H76       3.4327    1.0303   -2.2085   H         1 RES1   0.0000
   150 H77       3.6690    1.9173   -3.7304   H         1 RES1   0.0000
   151 H78       5.5456    0.5336   -3.4128   H         1 RES1   0.0000
   152 H79       4.6427   -0.1688   -4.7517   H         1 RES1   0.0000
   153 H80       4.4843   -1.2038   -1.8877   H         1 RES1   0.0000
   154 H81       5.6176   -1.8025   -3.1003   H         1 RES1   0.0000
   155 H82       2.5708   -1.9952   -3.2730   H         1 RES1   0.0000
   156 H83       3.7077   -3.3081   -3.0138   H         1 RES1   0.0000
   157 H84       3.6950   -2.4710   -4.5569   H         1 RES1   0.0000
   158 O5       -2.0448    1.7875    1.1033   O.3       1 RES1   0.0000
   159 H85      -1.9582    1.9961    2.0432   H         1 RES1   0.0000
   160 H86      -2.9838    1.6189    0.9517   H         1 RES1   0.0000
@<TRIPOS>BOND
     1     1    12    1
     2     1    24    1
     3     1    34    1
     4     1    37    1
     5     1    90    1
     6     1   102    1
     7     1   112    1
     8     1   115    1
     9     1   158    1
    10     2     3    1
    11     2    38    1
    12     2    39    1
    13     2    40    1
    14     3     4    1
    15     3    41    1
    16     3    42    1
    17     4     5    1
    18     4    43    1
    19     4    44    1
    20     5     6    1
    21     5    45    1
    22     5    46    1
    23     6     7    1
    24     6    11    1
    25     7     8    1
    26     7    47    1
    27     7    48    1
    28     8     9    1
    29     8    49    1
    30     8    50    1
    31     9    10    1
    32     9    51    1
    33     9    52    1
    34    10    53    1
    35    10    54    1
    36    10    55    1
    37    11    12    2
    38    11    13    1
    39    13    14    1
    40    13    37    2
    41    14    15    2
    42    14    56    1
    43    15    16    1
    44    15    57    1
    45    16    17    1
    46    16    36    2
    47    17    18    2
    48    17    58    1
    49    18    19    1
    50    18    59    1
    51    19    20    1
    52    19    35    2
    53    20    21    2
    54    20    60    1
    55    21    22    1
    56    21    61    1
    57    22    23    1
    58    22    34    2
    59    23    24    2
    60    23    25    1
    61    25    26    1
    62    25    30    1
    63    26    27    1
    64    26    62    1
    65    26    63    1
    66    27    28    1
    67    27    64    1
    68    27    65    1
    69    28    29    1
    70    28    66    1
    71    28    67    1
    72    29    68    1
    73    29    69    1
    74    29    70    1
    75    30    31    1
    76    30    71    1
    77    30    72    1
    78    31    32    1
    79    31    73    1
    80    31    74    1
    81    32    33    1
    82    32    75    1
    83    32    76    1
    84    33    77    1
    85    33    78    1
    86    33    79    1
    87    34    35    1
    88    35    36    1
    89    36    37    1
    90    80    81    1
    91    80   116    1
    92    80   117    1
    93    80   118    1
    94    81    82    1
    95    81   119    1
    96    81   120    1
    97    82    83    1
    98    82   121    1
    99    82   122    1
   100    83    84    1
   101    83   123    1
   102    83   124    1
   103    84    85    1
   104    84    89    1
   105    85    86    1
   106    85   125    1
   107    85   126    1
   108    86    87    1
   109    86   127    1
   110    86   128    1
   111    87    88    1
   112    87   129    1
   113    87   130    1
   114    88   131    1
   115    88   132    1
   116    88   133    1
   117    89    90    2
   118    89    91    1
   119    91    92    1
   120    91   115    2
   121    92    93    2
   122    92   134    1
   123    93    94    1
   124    93   135    1
   125    94    95    1
   126    94   114    2
   127    95    96    2
   128    95   136    1
   129    96    97    1
   130    96   137    1
   131    97    98    1
   132    97   113    2
   133    98    99    2
   134    98   138    1
   135    99   100    1
   136    99   139    1
   137   100   101    1
   138   100   112    2
   139   101   102    2
   140   101   103    1
   141   103   104    1
   142   103   108    1
   143   104   105    1
   144   104   140    1
   145   104   141    1
   146   105   106    1
   147   105   142    1
   148   105   143    1
   149   106   107    1
   150   106   144    1
   151   106   145    1
   152   107   146    1
   153   107   147    1
   154   107   148    1
   155   108   109    1
   156   108   149    1
   157   108   150    1
   158   109   110    1
   159   109   151    1
   160   109   152    1
   161   110   111    1
   162   110   153    1
   163   110   154    1
   164   111   155    1
   165   111   156    1
   166   111   157    1
   167   112   113    1
   168   113   114    1
   169   114   115    1
   170   158   159    1
   171   158   160    1
@<TRIPOS>SUBSTRUCTURE
     1 RES1      160 GROUP             0 ****  ****    0  
