@<TRIPOS>MOLECULE
am_c3_9H2O_c0_0_nunpairedes_0_charge_3 Charge: 3 Unpaired_Electrons: 7 XTB_Unpaired_Electrons: 0 XTB_Charge: 3
   160   171     1     0     0
SMALL
NoCharges
****
Generated from Architector

@<TRIPOS>ATOM
     1 Gd1      -0.0472   -0.0261   -0.0794   Gd        1 RES1   0.0000
     2 C1        2.3673    5.1987   -1.2994   C.3       1 RES1   0.0000
     3 N1        2.0716    4.0818   -0.4085   N.am      1 RES1   0.0000
     4 C2        1.3464    3.0167   -0.7840   C.2       1 RES1   0.0000
     5 O1        1.1543    2.0462   -0.0351   O.2       1 RES1   0.0000
     6 C3        0.7992    3.0408   -2.2018   C.3       1 RES1   0.0000
     7 C4       -0.6298    2.4966   -2.2868   C.2       1 RES1   0.0000
     8 O2       -0.9735    1.5646   -1.5488   O.2       1 RES1   0.0000
     9 N2       -1.4229    3.0414   -3.2289   N.am      1 RES1   0.0000
    10 C5       -1.0898    4.3262   -3.8403   C.3       1 RES1   0.0000
    11 C6       -2.6554    2.4510   -3.6628   C.ar      1 RES1   0.0000
    12 C7       -3.4129    1.6067   -2.8572   C.ar      1 RES1   0.0000
    13 C8       -4.6493    1.1488   -3.2788   C.ar      1 RES1   0.0000
    14 C9       -5.1562    1.5141   -4.5120   C.ar      1 RES1   0.0000
    15 C10      -4.3723    2.2841   -5.3541   C.ar      1 RES1   0.0000
    16 C11      -3.1304    2.7355   -4.9436   C.ar      1 RES1   0.0000
    17 C12       2.6225    4.1671    0.9068   C.ar      1 RES1   0.0000
    18 C13       1.8723    3.8265    2.0248   C.ar      1 RES1   0.0000
    19 C14       2.3980    3.9985    3.2924   C.ar      1 RES1   0.0000
    20 C15       3.6593    4.5465    3.4551   C.ar      1 RES1   0.0000
    21 C16       4.4159    4.8721    2.3419   C.ar      1 RES1   0.0000
    22 C17       3.9100    4.6627    1.0721   C.ar      1 RES1   0.0000
    23 H1        1.4512    5.6462   -1.6914   H         1 RES1   0.0000
    24 H2        3.0111    4.8934   -2.1302   H         1 RES1   0.0000
    25 H3        2.8778    5.9769   -0.7354   H         1 RES1   0.0000
    26 H4        1.4063    2.3306   -2.7766   H         1 RES1   0.0000
    27 H5        0.9115    4.0105   -2.6645   H         1 RES1   0.0000
    28 H6       -0.7468    5.0382   -3.0872   H         1 RES1   0.0000
    29 H7       -1.9941    4.7484   -4.2731   H         1 RES1   0.0000
    30 H8       -0.3315    4.2310   -4.6225   H         1 RES1   0.0000
    31 H9       -3.0409    1.2947   -1.9010   H         1 RES1   0.0000
    32 H10      -5.2286    0.5214   -2.6187   H         1 RES1   0.0000
    33 H11      -6.1394    1.1931   -4.8153   H         1 RES1   0.0000
    34 H12      -4.7301    2.5442   -6.3375   H         1 RES1   0.0000
    35 H13      -2.5470    3.2983   -5.6526   H         1 RES1   0.0000
    36 H14       0.8738    3.4408    1.8968   H         1 RES1   0.0000
    37 H15       1.8052    3.7354    4.1561   H         1 RES1   0.0000
    38 H16       4.0437    4.7298    4.4447   H         1 RES1   0.0000
    39 H17       5.3963    5.3076    2.4535   H         1 RES1   0.0000
    40 H18       4.5213    4.8926    0.2140   H         1 RES1   0.0000
    41 C18       2.3061   -0.1171    5.3472   C.3       1 RES1   0.0000
    42 N3        2.4215    0.0484    3.9025   N.am      1 RES1   0.0000
    43 C19       1.3927   -0.1368    3.0606   C.2       1 RES1   0.0000
    44 O3        1.4903   -0.0417    1.8293   O.2       1 RES1   0.0000
    45 C20       0.0362   -0.4277    3.6958   C.3       1 RES1   0.0000
    46 C21      -0.6660   -1.5380    2.9331   C.2       1 RES1   0.0000
    47 O4       -0.7535   -1.4823    1.7009   O.2       1 RES1   0.0000
    48 N4       -1.2102   -2.5320    3.6511   N.am      1 RES1   0.0000
    49 C22      -1.1058   -2.6390    5.1006   C.3       1 RES1   0.0000
    50 C23      -1.9745   -3.5483    3.0022   C.ar      1 RES1   0.0000
    51 C24      -1.5274   -4.1562    1.8345   C.ar      1 RES1   0.0000
    52 C25      -2.2726   -5.1778    1.2651   C.ar      1 RES1   0.0000
    53 C26      -3.4458   -5.6088    1.8620   C.ar      1 RES1   0.0000
    54 C27      -3.8996   -4.9882    3.0147   C.ar      1 RES1   0.0000
    55 C28      -3.1748   -3.9524    3.5755   C.ar      1 RES1   0.0000
    56 C29       3.7005    0.4672    3.4279   C.ar      1 RES1   0.0000
    57 C30       4.2467   -0.0676    2.2696   C.ar      1 RES1   0.0000
    58 C31       5.5007    0.3389    1.8453   C.ar      1 RES1   0.0000
    59 C32       6.2403    1.2313    2.6027   C.ar      1 RES1   0.0000
    60 C33       5.7008    1.7568    3.7645   C.ar      1 RES1   0.0000
    61 C34       4.4255    1.3990    4.1618   C.ar      1 RES1   0.0000
    62 H19       1.8973   -1.0977    5.5973   H         1 RES1   0.0000
    63 H20       1.6921    0.6632    5.8053   H         1 RES1   0.0000
    64 H21       3.3011   -0.0703    5.7850   H         1 RES1   0.0000
    65 H22      -0.5651    0.4680    3.5108   H         1 RES1   0.0000
    66 H23       0.0850   -0.6076    4.7603   H         1 RES1   0.0000
    67 H24      -0.0622   -2.6085    5.4198   H         1 RES1   0.0000
    68 H25      -1.5055   -3.6056    5.4025   H         1 RES1   0.0000
    69 H26      -1.6682   -1.8559    5.6180   H         1 RES1   0.0000
    70 H27      -0.6025   -3.8390    1.3778   H         1 RES1   0.0000
    71 H28      -1.9197   -5.6506    0.3599   H         1 RES1   0.0000
    72 H29      -3.9985   -6.4290    1.4346   H         1 RES1   0.0000
    73 H30      -4.8136   -5.3119    3.4872   H         1 RES1   0.0000
    74 H31      -3.5519   -3.4620    4.4581   H         1 RES1   0.0000
    75 H32       3.6909   -0.8164    1.7298   H         1 RES1   0.0000
    76 H33       5.9206   -0.0619    0.9336   H         1 RES1   0.0000
    77 H34       7.2375    1.5010    2.2950   H         1 RES1   0.0000
    78 H35       6.2741    2.4395    4.3717   H         1 RES1   0.0000
    79 H36       4.0088    1.8506    5.0469   H         1 RES1   0.0000
    80 C35       2.0175   -4.4472    0.1823   C.3       1 RES1   0.0000
    81 N5        2.9213   -3.4346   -0.3452   N.am      1 RES1   0.0000
    82 C36       2.4067   -2.2175   -0.5278   C.2       1 RES1   0.0000
    83 O5        1.2148   -1.9885   -0.2608   O.2       1 RES1   0.0000
    84 C37       3.2971   -1.0994   -1.0636   C.3       1 RES1   0.0000
    85 C38       2.5766   -0.4027   -2.2136   C.2       1 RES1   0.0000
    86 O6        1.4968    0.1473   -1.9562   O.2       1 RES1   0.0000
    87 N6        3.1680   -0.3684   -3.4186   N.am      1 RES1   0.0000
    88 C39       4.3762   -1.1466   -3.6806   C.3       1 RES1   0.0000
    89 C40       2.6862    0.4537   -4.4881   C.ar      1 RES1   0.0000
    90 C41       1.3383    0.7829   -4.6305   C.ar      1 RES1   0.0000
    91 C42       0.9098    1.5439   -5.7053   C.ar      1 RES1   0.0000
    92 C43       1.8061    1.9801   -6.6638   C.ar      1 RES1   0.0000
    93 C44       3.1491    1.6810   -6.5122   C.ar      1 RES1   0.0000
    94 C45       3.5910    0.9440   -5.4277   C.ar      1 RES1   0.0000
    95 C46       4.2869   -3.8064   -0.5328   C.ar      1 RES1   0.0000
    96 C47       5.3083   -3.0753    0.0649   C.ar      1 RES1   0.0000
    97 C48       6.6226   -3.4629   -0.1132   C.ar      1 RES1   0.0000
    98 C49       6.9259   -4.6018   -0.8347   C.ar      1 RES1   0.0000
    99 C50       5.9043   -5.3556   -1.3819   C.ar      1 RES1   0.0000
   100 C51       4.5871   -4.9541   -1.2553   C.ar      1 RES1   0.0000
   101 H37       1.6389   -4.1226    1.1541   H         1 RES1   0.0000
   102 H38       2.5582   -5.3784    0.3095   H         1 RES1   0.0000
   103 H39       1.1671   -4.6007   -0.4858   H         1 RES1   0.0000
   104 H40       4.3044   -1.4410   -1.2853   H         1 RES1   0.0000
   105 H41       3.3231   -0.3290   -0.2793   H         1 RES1   0.0000
   106 H42       4.2932   -2.1464   -3.2515   H         1 RES1   0.0000
   107 H43       5.2701   -0.6556   -3.2789   H         1 RES1   0.0000
   108 H44       4.4920   -1.2680   -4.7565   H         1 RES1   0.0000
   109 H45       0.6063    0.4392   -3.9200   H         1 RES1   0.0000
   110 H46      -0.1413    1.7695   -5.7939   H         1 RES1   0.0000
   111 H47       1.4641    2.5426   -7.5160   H         1 RES1   0.0000
   112 H48       3.8665    2.0158   -7.2425   H         1 RES1   0.0000
   113 H49       4.6484    0.7693   -5.3271   H         1 RES1   0.0000
   114 H50       5.0740   -2.2278    0.6889   H         1 RES1   0.0000
   115 H51       7.4041   -2.8827    0.3406   H         1 RES1   0.0000
   116 H52       7.9492   -4.9078   -0.9479   H         1 RES1   0.0000
   117 H53       6.1233   -6.2690   -1.9020   H         1 RES1   0.0000
   118 H54       3.8005   -5.5329   -1.7155   H         1 RES1   0.0000
   119 C52      -3.2854   -3.8340   -3.1033   C.3       1 RES1   0.0000
   120 N7       -2.0597   -3.0659   -2.9187   N.am      1 RES1   0.0000
   121 C53      -1.9109   -2.2178   -1.8856   C.2       1 RES1   0.0000
   122 O7       -0.9773   -1.4134   -1.7787   O.2       1 RES1   0.0000
   123 C54      -2.9160   -2.3224   -0.7313   C.3       1 RES1   0.0000
   124 C55      -3.2808   -0.9419   -0.1995   C.2       1 RES1   0.0000
   125 O8       -2.3769   -0.1811    0.1713   O.2       1 RES1   0.0000
   126 N8       -4.5797   -0.6111   -0.1030   N.am      1 RES1   0.0000
   127 C56      -5.6302   -1.5035   -0.5801   C.3       1 RES1   0.0000
   128 C57      -4.9966    0.6057    0.5284   C.ar      1 RES1   0.0000
   129 C58      -4.2426    1.7782    0.4820   C.ar      1 RES1   0.0000
   130 C59      -4.7177    2.9405    1.0684   C.ar      1 RES1   0.0000
   131 C60      -5.9538    2.9649    1.6894   C.ar      1 RES1   0.0000
   132 C61      -6.6936    1.7977    1.7632   C.ar      1 RES1   0.0000
   133 C62      -6.2115    0.6258    1.2080   C.ar      1 RES1   0.0000
   134 C63      -1.0585   -3.2509   -3.9267   C.ar      1 RES1   0.0000
   135 C64      -0.1853   -2.2329   -4.2882   C.ar      1 RES1   0.0000
   136 C65       0.7307   -2.4194   -5.3090   C.ar      1 RES1   0.0000
   137 C66       0.7677   -3.6095   -6.0119   C.ar      1 RES1   0.0000
   138 C67      -0.0778   -4.6404   -5.6373   C.ar      1 RES1   0.0000
   139 C68      -0.9648   -4.4758   -4.5872   C.ar      1 RES1   0.0000
   140 H55      -4.1601   -3.1978   -2.9644   H         1 RES1   0.0000
   141 H56      -3.3392   -4.6902   -2.4253   H         1 RES1   0.0000
   142 H57      -3.3166   -4.1924   -4.1302   H         1 RES1   0.0000
   143 H58      -2.3363   -2.7759    0.0850   H         1 RES1   0.0000
   144 H59      -3.7666   -2.9604   -0.9325   H         1 RES1   0.0000
   145 H60      -5.4044   -1.8610   -1.5862   H         1 RES1   0.0000
   146 H61      -6.5689   -0.9555   -0.6403   H         1 RES1   0.0000
   147 H62      -5.7638   -2.3620    0.0865   H         1 RES1   0.0000
   148 H63      -3.2931    1.8092   -0.0279   H         1 RES1   0.0000
   149 H64      -4.1208    3.8397    1.0156   H         1 RES1   0.0000
   150 H65      -6.3314    3.8820    2.1086   H         1 RES1   0.0000
   151 H66      -7.6552    1.7906    2.2504   H         1 RES1   0.0000
   152 H67      -6.7950   -0.2713    1.3245   H         1 RES1   0.0000
   153 H68      -0.2308   -1.2926   -3.7723   H         1 RES1   0.0000
   154 H69       1.3962   -1.6127   -5.5750   H         1 RES1   0.0000
   155 H70       1.4454   -3.7287   -6.8419   H         1 RES1   0.0000
   156 H71      -0.0562   -5.5791   -6.1689   H         1 RES1   0.0000
   157 H72      -1.5685   -5.3220   -4.3021   H         1 RES1   0.0000
   158 O9       -1.0939    1.6986    1.8276   O.3       1 RES1   0.0000
   159 H73      -2.0334    1.8580    1.6420   H         1 RES1   0.0000
   160 H74      -0.7222    2.5461    2.1149   H         1 RES1   0.0000
@<TRIPOS>BOND
     1     1     5    1
     2     1     8    1
     3     1    44    1
     4     1    47    1
     5     1    83    1
     6     1    86    1
     7     1   122    1
     8     1   125    1
     9     1   158    1
    10     2     3    1
    11     2    23    1
    12     2    24    1
    13     2    25    1
    14     3     4    1
    15     3    17    1
    16     4     5    2
    17     4     6    1
    18     6     7    1
    19     6    26    1
    20     6    27    1
    21     7     8    2
    22     7     9    1
    23     9    10    1
    24     9    11    1
    25    10    28    1
    26    10    29    1
    27    10    30    1
    28    11    12    1
    29    11    16    2
    30    12    13    2
    31    12    31    1
    32    13    14    1
    33    13    32    1
    34    14    15    2
    35    14    33    1
    36    15    16    1
    37    15    34    1
    38    16    35    1
    39    17    18    1
    40    17    22    2
    41    18    19    2
    42    18    36    1
    43    19    20    1
    44    19    37    1
    45    20    21    2
    46    20    38    1
    47    21    22    1
    48    21    39    1
    49    22    40    1
    50    41    42    1
    51    41    62    1
    52    41    63    1
    53    41    64    1
    54    42    43    1
    55    42    56    1
    56    43    44    2
    57    43    45    1
    58    45    46    1
    59    45    65    1
    60    45    66    1
    61    46    47    2
    62    46    48    1
    63    48    49    1
    64    48    50    1
    65    49    67    1
    66    49    68    1
    67    49    69    1
    68    50    51    1
    69    50    55    2
    70    51    52    2
    71    51    70    1
    72    52    53    1
    73    52    71    1
    74    53    54    2
    75    53    72    1
    76    54    55    1
    77    54    73    1
    78    55    74    1
    79    56    57    1
    80    56    61    2
    81    57    58    2
    82    57    75    1
    83    58    59    1
    84    58    76    1
    85    59    60    2
    86    59    77    1
    87    60    61    1
    88    60    78    1
    89    61    79    1
    90    80    81    1
    91    80   101    1
    92    80   102    1
    93    80   103    1
    94    81    82    1
    95    81    95    1
    96    82    83    2
    97    82    84    1
    98    84    85    1
    99    84   104    1
   100    84   105    1
   101    85    86    2
   102    85    87    1
   103    87    88    1
   104    87    89    1
   105    88   106    1
   106    88   107    1
   107    88   108    1
   108    89    90    1
   109    89    94    2
   110    90    91    2
   111    90   109    1
   112    91    92    1
   113    91   110    1
   114    92    93    2
   115    92   111    1
   116    93    94    1
   117    93   112    1
   118    94   113    1
   119    95    96    1
   120    95   100    2
   121    96    97    2
   122    96   114    1
   123    97    98    1
   124    97   115    1
   125    98    99    2
   126    98   116    1
   127    99   100    1
   128    99   117    1
   129   100   118    1
   130   119   120    1
   131   119   140    1
   132   119   141    1
   133   119   142    1
   134   120   121    1
   135   120   134    1
   136   121   122    2
   137   121   123    1
   138   123   124    1
   139   123   143    1
   140   123   144    1
   141   124   125    2
   142   124   126    1
   143   126   127    1
   144   126   128    1
   145   127   145    1
   146   127   146    1
   147   127   147    1
   148   128   129    1
   149   128   133    2
   150   129   130    2
   151   129   148    1
   152   130   131    1
   153   130   149    1
   154   131   132    2
   155   131   150    1
   156   132   133    1
   157   132   151    1
   158   133   152    1
   159   134   135    1
   160   134   139    2
   161   135   136    2
   162   135   153    1
   163   136   137    1
   164   136   154    1
   165   137   138    2
   166   137   155    1
   167   138   139    1
   168   138   156    1
   169   139   157    1
   170   158   159    1
   171   158   160    1
@<TRIPOS>SUBSTRUCTURE
     1 RES1      160 GROUP             0 ****  ****    0  
