@<TRIPOS>MOLECULE
am_c3_9H2O_c0_0_nunpairedes_0_charge_2 Charge: 2 Unpaired_Electrons: 7 XTB_Unpaired_Electrons: 0 XTB_Charge: 2
   118   132     1     0     0
SMALL
NoCharges
****
Generated from Architector

@<TRIPOS>ATOM
     1 Gd1       0.5471    0.3583   -0.2230   Gd        1 RES1   0.0000
     2 C1        5.2808    1.2223   -2.5893   C.3       1 RES1   0.0000
     3 C2        4.6857   -0.1732   -2.7211   C.3       1 RES1   0.0000
     4 C3        3.9764   -0.6312   -1.4439   C.3       1 RES1   0.0000
     5 C4        3.4736   -2.0755   -1.5905   C.3       1 RES1   0.0000
     6 C5        2.4954   -2.5263   -0.4852   C.3       1 RES1   0.0000
     7 C6        1.3661   -3.4496   -0.9697   C.3       1 RES1   0.0000
     8 N1        0.2015   -2.9103   -1.7167   N.ar      1 RES1   0.0000
     9 C7       -0.8646   -3.7703   -1.9800   C.ar      1 RES1   0.0000
    10 C8       -0.6616   -5.1462   -1.4631   C.ar      1 RES1   0.0000
    11 C9       -1.2013   -5.4102   -0.2047   C.ar      1 RES1   0.0000
    12 C10      -0.8932   -6.5806    0.4634   C.ar      1 RES1   0.0000
    13 C11      -0.0296   -7.4997   -0.1115   C.ar      1 RES1   0.0000
    14 C12       0.4669   -7.2685   -1.3872   C.ar      1 RES1   0.0000
    15 C13       0.1527   -6.1001   -2.0657   C.ar      1 RES1   0.0000
    16 C14      -2.0542   -3.3372   -2.5148   C.ar      1 RES1   0.0000
    17 C15      -2.9897   -4.3437   -3.0585   C.ar      1 RES1   0.0000
    18 C16      -3.1345   -4.3301   -4.4453   C.ar      1 RES1   0.0000
    19 C17      -3.7803   -5.3707   -5.0824   C.ar      1 RES1   0.0000
    20 C18      -4.3086   -6.4190   -4.3468   C.ar      1 RES1   0.0000
    21 C19      -4.2429   -6.3893   -2.9629   C.ar      1 RES1   0.0000
    22 C20      -3.5875   -5.3554   -2.3182   C.ar      1 RES1   0.0000
    23 C21      -2.2932   -1.9254   -2.6418   C.ar      1 RES1   0.0000
    24 C22      -3.5521   -1.2986   -2.7179   C.ar      1 RES1   0.0000
    25 C23      -3.6516    0.0524   -2.3733   C.ar      1 RES1   0.0000
    26 C24      -4.8806    0.7667   -2.1589   C.ar      1 RES1   0.0000
    27 C25      -4.9363    1.8779   -1.3823   C.ar      1 RES1   0.0000
    28 C26      -3.7658    2.3809   -0.7165   C.ar      1 RES1   0.0000
    29 C27      -3.8010    3.1677    0.4569   C.ar      1 RES1   0.0000
    30 C28      -2.6294    3.3364    1.1682   C.ar      1 RES1   0.0000
    31 C29      -2.2445    3.6600    2.5588   C.ar      1 RES1   0.0000
    32 C30      -1.3676    4.6906    3.0133   C.ar      1 RES1   0.0000
    33 C31      -0.9655    4.5309    4.3590   C.ar      1 RES1   0.0000
    34 C32       0.0064    5.3314    4.9146   C.ar      1 RES1   0.0000
    35 C33       0.5098    6.3950    4.1773   C.ar      1 RES1   0.0000
    36 C34       0.0921    6.5938    2.8625   C.ar      1 RES1   0.0000
    37 C35      -0.8382    5.7604    2.2765   C.ar      1 RES1   0.0000
    38 C36      -1.9199    2.3989    3.1339   C.ar      1 RES1   0.0000
    39 C37      -2.8614    1.2740    3.2230   C.ar      1 RES1   0.0000
    40 C38      -2.9539    0.3288    2.2017   C.ar      1 RES1   0.0000
    41 C39      -3.8757   -0.7012    2.2626   C.ar      1 RES1   0.0000
    42 C40      -4.7075   -0.8167    3.3687   C.ar      1 RES1   0.0000
    43 C41      -4.6384    0.1277    4.3837   C.ar      1 RES1   0.0000
    44 C42      -3.7313    1.1721    4.3057   C.ar      1 RES1   0.0000
    45 N2       -0.5549    2.1334    2.8082   N.ar      1 RES1   0.0000
    46 C43       0.4972    1.6246    3.6708   C.3       1 RES1   0.0000
    47 C44       0.3525    0.1460    4.0636   C.3       1 RES1   0.0000
    48 C45       0.0556   -0.1106    5.5411   C.3       1 RES1   0.0000
    49 C46       0.5533   -1.4898    5.9973   C.3       1 RES1   0.0000
    50 C47       0.0962   -2.6832    5.1506   C.3       1 RES1   0.0000
    51 C48      -1.4205   -2.8249    5.0832   C.3       1 RES1   0.0000
    52 C49      -0.2782    2.3926    1.5206   C.ar      1 RES1   0.0000
    53 O1        0.8323    2.1277    0.9944   O.2       1 RES1   0.0000
    54 C50      -1.4373    2.7687    0.6384   C.ar      1 RES1   0.0000
    55 N3       -1.3649    2.1135   -0.5029   N.ar      1 RES1   0.0000
    56 C51      -2.5183    1.8745   -1.1512   C.ar      1 RES1   0.0000
    57 C52      -2.4550    0.7425   -2.0370   C.ar      1 RES1   0.0000
    58 N4       -1.2461    0.2180   -2.2013   N.ar      1 RES1   0.0000
    59 C53      -1.1716   -1.0923   -2.4516   C.ar      1 RES1   0.0000
    60 C54       0.1316   -1.6201   -2.0849   C.ar      1 RES1   0.0000
    61 O2        1.0822   -0.8116   -1.9087   O.2       1 RES1   0.0000
    62 H1        5.7311    1.5252   -3.5299   H         1 RES1   0.0000
    63 H2        6.0515    1.2397   -1.8225   H         1 RES1   0.0000
    64 H3        4.5108    1.9499   -2.3367   H         1 RES1   0.0000
    65 H4        5.4797   -0.8832   -2.9560   H         1 RES1   0.0000
    66 H5        3.9690   -0.1795   -3.5446   H         1 RES1   0.0000
    67 H6        3.1260    0.0719   -1.2639   H         1 RES1   0.0000
    68 H7        4.6693   -0.5617   -0.6002   H         1 RES1   0.0000
    69 H8        4.3400   -2.7410   -1.5896   H         1 RES1   0.0000
    70 H9        2.9997   -2.1689   -2.5694   H         1 RES1   0.0000
    71 H10       2.1276   -1.6505    0.0748   H         1 RES1   0.0000
    72 H11       3.0331   -3.1533    0.2308   H         1 RES1   0.0000
    73 H12       0.9416   -3.9691   -0.1026   H         1 RES1   0.0000
    74 H13       1.8481   -4.1987   -1.6003   H         1 RES1   0.0000
    75 H14      -1.8291   -4.6600    0.2520   H         1 RES1   0.0000
    76 H15      -1.3221   -6.7591    1.4384   H         1 RES1   0.0000
    77 H16       0.2545   -8.3816    0.4443   H         1 RES1   0.0000
    78 H17       1.1129   -8.0001   -1.8509   H         1 RES1   0.0000
    79 H18       0.5387   -5.9362   -3.0620   H         1 RES1   0.0000
    80 H19      -2.6969   -3.5198   -5.0103   H         1 RES1   0.0000
    81 H20      -3.8591   -5.3690   -6.1572   H         1 RES1   0.0000
    82 H21      -4.7768   -7.2492   -4.8538   H         1 RES1   0.0000
    83 H22      -4.6931   -7.1814   -2.3861   H         1 RES1   0.0000
    84 H23      -3.5482   -5.3395   -1.2418   H         1 RES1   0.0000
    85 H24      -4.4356   -1.8861   -2.9481   H         1 RES1   0.0000
    86 H25      -5.7777    0.3596   -2.6016   H         1 RES1   0.0000
    87 H26      -5.8817    2.3725   -1.2059   H         1 RES1   0.0000
    88 H27      -4.7386    3.5405    0.8446   H         1 RES1   0.0000
    89 H28      -1.4353    3.7435    4.9354   H         1 RES1   0.0000
    90 H29       0.3412    5.1600    5.9281   H         1 RES1   0.0000
    91 H30       1.2153    7.0696    4.6387   H         1 RES1   0.0000
    92 H31       0.5166    7.4112    2.2984   H         1 RES1   0.0000
    93 H32      -1.1153    5.8920    1.2409   H         1 RES1   0.0000
    94 H33      -2.3325    0.4630    1.3238   H         1 RES1   0.0000
    95 H34      -3.9388   -1.4102    1.4458   H         1 RES1   0.0000
    96 H35      -5.4144   -1.6319    3.4265   H         1 RES1   0.0000
    97 H36      -5.2859    0.0478    5.2457   H         1 RES1   0.0000
    98 H37      -3.6810    1.9167    5.0841   H         1 RES1   0.0000
    99 H38       0.5343    2.2847    4.5408   H         1 RES1   0.0000
   100 H39       1.4055    1.7679    3.0817   H         1 RES1   0.0000
   101 H40       1.2731   -0.3756    3.7971   H         1 RES1   0.0000
   102 H41      -0.4489   -0.2945    3.4731   H         1 RES1   0.0000
   103 H42      -1.0169   -0.0345    5.7260   H         1 RES1   0.0000
   104 H43       0.5592    0.6399    6.1535   H         1 RES1   0.0000
   105 H44       0.2052   -1.6498    7.0195   H         1 RES1   0.0000
   106 H45       1.6468   -1.4887    6.0227   H         1 RES1   0.0000
   107 H46       0.5112   -3.5853    5.6095   H         1 RES1   0.0000
   108 H47       0.4994   -2.6190    4.1354   H         1 RES1   0.0000
   109 H48      -1.8373   -2.8817    6.0862   H         1 RES1   0.0000
   110 H49      -1.6843   -3.7319    4.5443   H         1 RES1   0.0000
   111 H50      -1.8762   -1.9818    4.5655   H         1 RES1   0.0000
   112 N5       -0.6566   -1.5802    0.9883   N.3       1 RES1   0.0000
   113 O3       -1.0510   -2.6346    1.3641   O.2       1 RES1   0.0000
   114 O4       -1.2762   -0.9045    0.1486   O.co2     1 RES1   0.0000
   115 O5        0.3975   -1.0766    1.4133   O.co2     1 RES1   0.0000
   116 O6        2.8228    0.3364    1.2837   O.3       1 RES1   0.0000
   117 H51       3.4371    1.0805    1.3484   H         1 RES1   0.0000
   118 H52       3.1302   -0.3152    1.9297   H         1 RES1   0.0000
@<TRIPOS>BOND
     1     1     8    1
     2     1    45    1
     3     1    53    1
     4     1    55    1
     5     1    58    1
     6     1    61    1
     7     1   114    1
     8     1   115    1
     9     1   116    1
    10     2     3    1
    11     2    62    1
    12     2    63    1
    13     2    64    1
    14     3     4    1
    15     3    65    1
    16     3    66    1
    17     4     5    1
    18     4    67    1
    19     4    68    1
    20     5     6    1
    21     5    69    1
    22     5    70    1
    23     6     7    1
    24     6    71    1
    25     6    72    1
    26     7     8    1
    27     7    73    1
    28     7    74    1
    29     8     9    1
    30     8    60    1
    31     9    10    1
    32     9    16    2
    33    10    11    1
    34    10    15    2
    35    11    12    2
    36    11    75    1
    37    12    13    1
    38    12    76    1
    39    13    14    2
    40    13    77    1
    41    14    15    1
    42    14    78    1
    43    15    79    1
    44    16    17    1
    45    16    23    1
    46    17    18    1
    47    17    22    2
    48    18    19    2
    49    18    80    1
    50    19    20    1
    51    19    81    1
    52    20    21    2
    53    20    82    1
    54    21    22    1
    55    21    83    1
    56    22    84    1
    57    23    24    1
    58    23    59    2
    59    24    25    2
    60    24    85    1
    61    25    26    1
    62    25    57    1
    63    26    27    2
    64    26    86    1
    65    27    28    1
    66    27    87    1
    67    28    29    1
    68    28    56    2
    69    29    30    2
    70    29    88    1
    71    30    31    1
    72    30    54    1
    73    31    32    1
    74    31    38    2
    75    32    33    1
    76    32    37    2
    77    33    34    2
    78    33    89    1
    79    34    35    1
    80    34    90    1
    81    35    36    2
    82    35    91    1
    83    36    37    1
    84    36    92    1
    85    37    93    1
    86    38    39    1
    87    38    45    1
    88    39    40    1
    89    39    44    2
    90    40    41    2
    91    40    94    1
    92    41    42    1
    93    41    95    1
    94    42    43    2
    95    42    96    1
    96    43    44    1
    97    43    97    1
    98    44    98    1
    99    45    46    1
   100    45    52    1
   101    46    47    1
   102    46    99    1
   103    46   100    1
   104    47    48    1
   105    47   101    1
   106    47   102    1
   107    48    49    1
   108    48   103    1
   109    48   104    1
   110    49    50    1
   111    49   105    1
   112    49   106    1
   113    50    51    1
   114    50   107    1
   115    50   108    1
   116    51   109    1
   117    51   110    1
   118    51   111    1
   119    52    53    2
   120    52    54    1
   121    54    55    2
   122    55    56    1
   123    56    57    1
   124    57    58    2
   125    58    59    1
   126    59    60    1
   127    60    61    2
   128   112   113    2
   129   112   114    1
   130   112   115    1
   131   116   117    1
   132   116   118    1
@<TRIPOS>SUBSTRUCTURE
     1 RES1      118 GROUP             0 ****  ****    0  
