@<TRIPOS>MOLECULE
tri_tri_mer_capped_0_nunpairedes_0_charge_3 Charge: 3 Unpaired_Electrons: 7 XTB_Unpaired_Electrons: 0 XTB_Charge: 3
    32    37     1     0     0
SMALL
NoCharges
****
Generated from Architector

@<TRIPOS>ATOM
     1 Gd1       0.0610   -0.1310    0.2126   Gd        1 RES1   0.0000
     2 C1        2.9831   -2.2062    0.8406   C.3       1 RES1   0.0000
     3 O1        1.7898   -1.4419    0.7167   O.3       1 RES1   0.0000
     4 P1       -0.5628   -2.8122    0.6683   P.3       1 RES1   0.0000
     5 O2        0.8040   -2.0871   -0.1619   O.2       1 RES1   0.0000
     6 O3       -1.5890   -1.8190   -0.1696   O.3       1 RES1   0.0000
     7 O4       -0.4841   -1.7516    1.9181   O.3       1 RES1   0.0000
     8 C2       -0.3097   -2.2625    3.2774   C.3       1 RES1   0.0000
     9 H1        3.3892   -2.4952   -0.1297   H         1 RES1   0.0000
    10 H2        2.8708   -3.0938    1.4668   H         1 RES1   0.0000
    11 H3        3.6712   -1.5054    1.3263   H         1 RES1   0.0000
    12 H4       -2.4376   -2.2148   -0.4400   H         1 RES1   0.0000
    13 H5       -0.5641   -3.3199    3.3263   H         1 RES1   0.0000
    14 H6       -0.9916   -1.7170    3.9275   H         1 RES1   0.0000
    15 H7        0.7197   -2.0956    3.5988   H         1 RES1   0.0000
    16 C3       -2.8354    1.3071    1.7412   C.3       1 RES1   0.0000
    17 O5       -1.5001    0.9077    1.4279   O.3       1 RES1   0.0000
    18 P2        0.6355    2.5005    0.9052   P.3       1 RES1   0.0000
    19 O6       -0.8719    1.7412    0.3878   O.2       1 RES1   0.0000
    20 O7        1.3951    1.8087   -0.3829   O.3       1 RES1   0.0000
    21 O8        1.0293    1.2380    1.8766   O.3       1 RES1   0.0000
    22 C4        1.1574    1.4545    3.3171   C.3       1 RES1   0.0000
    23 H8       -3.5164    1.2127    0.8896   H         1 RES1   0.0000
    24 H9       -2.8981    2.3162    2.1597   H         1 RES1   0.0000
    25 H10      -3.1134    0.5871    2.5174   H         1 RES1   0.0000
    26 H11       2.0083    2.4093   -0.8502   H         1 RES1   0.0000
    27 H12       1.3974    2.4917    3.5550   H         1 RES1   0.0000
    28 H13       1.9716    0.8283    3.6798   H         1 RES1   0.0000
    29 H14       0.2225    1.1747    3.8022   H         1 RES1   0.0000
    30 O9       -0.5251    0.1063   -2.1128   O.3       1 RES1   0.0000
    31 H15      -0.3881   -0.5240   -2.8463   H         1 RES1   0.0000
    32 H16      -0.8659    0.9018   -2.5663   H         1 RES1   0.0000
@<TRIPOS>BOND
     1     1     3    1
     2     1     5    1
     3     1     6    1
     4     1     7    1
     5     1    17    1
     6     1    19    1
     7     1    20    1
     8     1    21    1
     9     1    30    1
    10     2     3    1
    11     2     9    1
    12     2    10    1
    13     2    11    1
    14     3     4    1
    15     4     5    2
    16     4     6    1
    17     4     7    1
    18     6    12    1
    19     7     8    1
    20     8    13    1
    21     8    14    1
    22     8    15    1
    23    16    17    1
    24    16    23    1
    25    16    24    1
    26    16    25    1
    27    17    18    1
    28    18    19    2
    29    18    20    1
    30    18    21    1
    31    20    26    1
    32    21    22    1
    33    22    27    1
    34    22    28    1
    35    22    29    1
    36    30    31    1
    37    30    32    1
@<TRIPOS>SUBSTRUCTURE
     1 RES1       32 GROUP             0 ****  ****    0  
