@<TRIPOS>MOLECULE
am_c3_9H2O_c0_0_nunpairedes_0_charge_3 Charge: 3 Unpaired_Electrons: 7 XTB_Unpaired_Electrons: 0 XTB_Charge: 3
   322   327     1     0     0
SMALL
NoCharges
****
Generated from Architector

@<TRIPOS>ATOM
     1 Gd1      -0.1240   -0.0254    0.0550   Gd        1 RES1   0.0000
     2 C1        1.4269    3.4025   -7.6892   C.3       1 RES1   0.0000
     3 C2        2.1301    3.5258   -6.3398   C.3       1 RES1   0.0000
     4 C3        1.1621    3.9306   -5.2209   C.3       1 RES1   0.0000
     5 C4        0.8645    5.4371   -5.2208   C.3       1 RES1   0.0000
     6 C5       -0.6018    5.8005   -4.9759   C.3       1 RES1   0.0000
     7 C6       -1.1190    5.5849   -3.5507   C.3       1 RES1   0.0000
     8 C7       -2.5947    6.0267   -3.4288   C.3       1 RES1   0.0000
     9 C8       -2.9116    6.5783   -2.0313   C.3       1 RES1   0.0000
    10 C9       -4.2902    7.2354   -1.9473   C.3       1 RES1   0.0000
    11 C10      -4.5967    7.8689   -0.5849   C.3       1 RES1   0.0000
    12 C11      -5.0855    6.8767    0.4675   C.3       1 RES1   0.0000
    13 C12      -3.5658    4.9202   -3.8873   C.3       1 RES1   0.0000
    14 C13      -3.8256    3.8226   -2.8463   C.3       1 RES1   0.0000
    15 C14      -3.9986    2.4128   -3.4546   C.3       1 RES1   0.0000
    16 N1       -2.7637    1.6640   -3.2657   N.am      1 RES1   0.0000
    17 C15      -1.7623    1.7939   -4.3059   C.3       1 RES1   0.0000
    18 C16      -2.4038    1.2270   -2.0630   C.2       1 RES1   0.0000
    19 O1       -1.2220    1.1675   -1.6862   O.2       1 RES1   0.0000
    20 C17      -3.4970    0.6775   -1.1361   C.3       1 RES1   0.0000
    21 O2       -2.8019   -0.0563   -0.1435   O.3       1 RES1   0.0000
    22 C18      -3.5209   -1.1324    0.4394   C.3       1 RES1   0.0000
    23 C19      -2.4513   -2.0508    1.0416   C.2       1 RES1   0.0000
    24 O3       -1.2770   -1.6427    1.1156   O.2       1 RES1   0.0000
    25 N2       -2.7864   -3.2896    1.3660   N.am      1 RES1   0.0000
    26 C20      -4.1423   -3.7711    1.4959   C.3       1 RES1   0.0000
    27 C21      -1.7417   -4.2900    1.5664   C.3       1 RES1   0.0000
    28 C22      -1.3678   -4.5469    3.0255   C.3       1 RES1   0.0000
    29 C23      -0.3320   -5.6700    3.1599   C.3       1 RES1   0.0000
    30 C24       1.1060   -5.2899    2.7612   C.3       1 RES1   0.0000
    31 C25       1.9285   -4.8108    3.9757   C.3       1 RES1   0.0000
    32 C26       1.4651   -3.5666    4.7366   C.3       1 RES1   0.0000
    33 C27       1.5865   -2.2722    3.9327   C.3       1 RES1   0.0000
    34 C28       1.4534   -1.0383    4.8206   C.3       1 RES1   0.0000
    35 C29       1.8627   -6.4954    2.1624   C.3       1 RES1   0.0000
    36 C30       1.7152   -6.7828    0.6633   C.3       1 RES1   0.0000
    37 C31       0.4084   -7.4445    0.2340   C.3       1 RES1   0.0000
    38 C32       0.4740   -7.9660   -1.2033   C.3       1 RES1   0.0000
    39 C33      -0.8465   -8.6072   -1.6319   C.3       1 RES1   0.0000
    40 C34      -0.9385   -8.8395   -3.1339   C.3       1 RES1   0.0000
    41 H1        2.1381    3.1433   -8.4704   H         1 RES1   0.0000
    42 H2        0.9400    4.3343   -7.9663   H         1 RES1   0.0000
    43 H3        0.6694    2.6187   -7.6517   H         1 RES1   0.0000
    44 H4        2.9427    4.2515   -6.4043   H         1 RES1   0.0000
    45 H5        2.5797    2.5571   -6.1044   H         1 RES1   0.0000
    46 H6        1.5737    3.6238   -4.2543   H         1 RES1   0.0000
    47 H7        0.2337    3.3783   -5.3744   H         1 RES1   0.0000
    48 H8        1.1245    5.8391   -6.1999   H         1 RES1   0.0000
    49 H9        1.4968    5.9483   -4.4921   H         1 RES1   0.0000
    50 H10      -1.2168    5.2448   -5.6868   H         1 RES1   0.0000
    51 H11      -0.7209    6.8604   -5.2058   H         1 RES1   0.0000
    52 H12      -0.5054    6.1891   -2.8776   H         1 RES1   0.0000
    53 H13      -0.9933    4.5391   -3.2513   H         1 RES1   0.0000
    54 H14      -2.7290    6.8600   -4.1266   H         1 RES1   0.0000
    55 H15      -2.1643    7.3401   -1.7983   H         1 RES1   0.0000
    56 H16      -2.8212    5.7895   -1.2796   H         1 RES1   0.0000
    57 H17      -5.0751    6.5159   -2.1865   H         1 RES1   0.0000
    58 H18      -4.3243    8.0199   -2.7040   H         1 RES1   0.0000
    59 H19      -5.3795    8.6165   -0.7241   H         1 RES1   0.0000
    60 H20      -3.7114    8.3905   -0.2132   H         1 RES1   0.0000
    61 H21      -6.0246    6.4233    0.1560   H         1 RES1   0.0000
    62 H22      -5.2592    7.3942    1.4080   H         1 RES1   0.0000
    63 H23      -4.3617    6.0829    0.6438   H         1 RES1   0.0000
    64 H24      -3.1534    4.4790   -4.7986   H         1 RES1   0.0000
    65 H25      -4.5162    5.3764   -4.1705   H         1 RES1   0.0000
    66 H26      -4.7115    4.0857   -2.2702   H         1 RES1   0.0000
    67 H27      -2.9839    3.7705   -2.1519   H         1 RES1   0.0000
    68 H28      -4.2157    2.4686   -4.5223   H         1 RES1   0.0000
    69 H29      -4.8262    1.8845   -2.9875   H         1 RES1   0.0000
    70 H30      -2.0331    1.1141   -5.1117   H         1 RES1   0.0000
    71 H31      -0.7812    1.5404   -3.9151   H         1 RES1   0.0000
    72 H32      -1.7535    2.8092   -4.6880   H         1 RES1   0.0000
    73 H33      -4.1668    0.0180   -1.7071   H         1 RES1   0.0000
    74 H34      -4.0981    1.4679   -0.6763   H         1 RES1   0.0000
    75 H35      -4.0882   -1.6719   -0.3293   H         1 RES1   0.0000
    76 H36      -4.2167   -0.7666    1.2082   H         1 RES1   0.0000
    77 H37      -4.8750   -2.9692    1.4596   H         1 RES1   0.0000
    78 H38      -4.2364   -4.2797    2.4547   H         1 RES1   0.0000
    79 H39      -4.3633   -4.4859    0.7003   H         1 RES1   0.0000
    80 H40      -0.8595   -3.9464    1.0213   H         1 RES1   0.0000
    81 H41      -2.1050   -5.2199    1.1158   H         1 RES1   0.0000
    82 H42      -2.2620   -4.8401    3.5765   H         1 RES1   0.0000
    83 H43      -0.9875   -3.6267    3.4605   H         1 RES1   0.0000
    84 H44      -0.6700   -6.5172    2.5621   H         1 RES1   0.0000
    85 H45      -0.3250   -5.9998    4.1995   H         1 RES1   0.0000
    86 H46       1.0680   -4.4853    2.0188   H         1 RES1   0.0000
    87 H47       2.9546   -4.6215    3.6441   H         1 RES1   0.0000
    88 H48       1.9757   -5.6394    4.6846   H         1 RES1   0.0000
    89 H49       2.1129   -3.4744    5.6112   H         1 RES1   0.0000
    90 H50       0.4493   -3.6898    5.1114   H         1 RES1   0.0000
    91 H51       0.8337   -2.2301    3.1349   H         1 RES1   0.0000
    92 H52       2.5723   -2.2470    3.4602   H         1 RES1   0.0000
    93 H53       0.5989   -1.1358    5.4853   H         1 RES1   0.0000
    94 H54       1.3169   -0.1507    4.2053   H         1 RES1   0.0000
    95 H55       2.3438   -0.9088    5.4341   H         1 RES1   0.0000
    96 H56       1.5841   -7.3901    2.7189   H         1 RES1   0.0000
    97 H57       2.9290   -6.3391    2.3393   H         1 RES1   0.0000
    98 H58       2.5289   -7.4593    0.3968   H         1 RES1   0.0000
    99 H59       1.8740   -5.8629    0.0916   H         1 RES1   0.0000
   100 H60      -0.4213   -6.7373    0.3210   H         1 RES1   0.0000
   101 H61       0.2036   -8.2846    0.8985   H         1 RES1   0.0000
   102 H62       1.2771   -8.7001   -1.2829   H         1 RES1   0.0000
   103 H63       0.7228   -7.1445   -1.8823   H         1 RES1   0.0000
   104 H64      -1.6752   -7.9639   -1.3226   H         1 RES1   0.0000
   105 H65      -0.9661   -9.5588   -1.1141   H         1 RES1   0.0000
   106 H66      -0.8919   -7.8968   -3.6763   H         1 RES1   0.0000
   107 H67      -1.8765   -9.3310   -3.3795   H         1 RES1   0.0000
   108 H68      -0.1275   -9.4730   -3.4791   H         1 RES1   0.0000
   109 C35      -4.1939   -0.1635   -7.7574   C.3       1 RES1   0.0000
   110 C36      -4.7211    0.2227   -6.3778   C.3       1 RES1   0.0000
   111 C37      -4.5608   -0.9036   -5.3482   C.3       1 RES1   0.0000
   112 C38      -5.6815   -1.9428   -5.4655   C.3       1 RES1   0.0000
   113 C39      -5.2696   -3.3737   -5.1145   C.3       1 RES1   0.0000
   114 C40      -5.1005   -3.6657   -3.6220   C.3       1 RES1   0.0000
   115 C41      -4.7685   -5.1519   -3.3705   C.3       1 RES1   0.0000
   116 C42      -5.2836   -5.6268   -2.0056   C.3       1 RES1   0.0000
   117 C43      -5.2961   -7.1496   -1.8611   C.3       1 RES1   0.0000
   118 C44      -5.6867   -7.6099   -0.4526   C.3       1 RES1   0.0000
   119 C45      -4.5132   -7.6227    0.5217   C.3       1 RES1   0.0000
   120 C46      -3.2742   -5.4601   -3.5858   C.3       1 RES1   0.0000
   121 C47      -2.3705   -5.0847   -2.4050   C.3       1 RES1   0.0000
   122 C48      -0.9126   -4.7625   -2.8033   C.3       1 RES1   0.0000
   123 N3       -0.7043   -3.3253   -2.7593   N.am      1 RES1   0.0000
   124 C49      -1.5385   -2.5134   -3.6348   C.3       1 RES1   0.0000
   125 C50      -0.1376   -2.6464   -1.7600   C.2       1 RES1   0.0000
   126 O4       -0.5129   -1.4819   -1.5437   O.2       1 RES1   0.0000
   127 C51       1.0554   -3.1998   -0.9687   C.3       1 RES1   0.0000
   128 O5        1.3165   -2.2407    0.0435   O.3       1 RES1   0.0000
   129 C52       2.6287   -2.2116    0.5844   C.3       1 RES1   0.0000
   130 C53       2.7648   -0.8204    1.2225   C.2       1 RES1   0.0000
   131 O6        1.7818   -0.0569    1.2108   O.2       1 RES1   0.0000
   132 N4        3.9465   -0.4262    1.6732   N.am      1 RES1   0.0000
   133 C54       5.0291   -1.3434    1.9725   C.3       1 RES1   0.0000
   134 C55       4.1829    1.0073    1.8642   C.3       1 RES1   0.0000
   135 C56       3.9254    1.5370    3.2755   C.3       1 RES1   0.0000
   136 C57       4.3189    3.0165    3.4001   C.3       1 RES1   0.0000
   137 C58       3.2451    4.0003    2.8975   C.3       1 RES1   0.0000
   138 C59       2.3862    4.5321    4.0631   C.3       1 RES1   0.0000
   139 C60       1.6181    3.5216    4.9157   C.3       1 RES1   0.0000
   140 C61       0.4185    2.8880    4.2123   C.3       1 RES1   0.0000
   141 C62      -0.4531    2.1313    5.2106   C.3       1 RES1   0.0000
   142 C63       3.8461    5.2327    2.1881   C.3       1 RES1   0.0000
   143 C64       4.1211    5.1268    0.6829   C.3       1 RES1   0.0000
   144 C65       5.4585    4.4968    0.3055   C.3       1 RES1   0.0000
   145 C66       5.7365    4.5924   -1.1948   C.3       1 RES1   0.0000
   146 C67       7.1249    4.0607   -1.5455   C.3       1 RES1   0.0000
   147 C68       7.4117    4.0728   -3.0417   C.3       1 RES1   0.0000
   148 H69      -4.3610    0.6434   -8.4670   H         1 RES1   0.0000
   149 H70      -4.6864   -1.0553   -8.1368   H         1 RES1   0.0000
   150 H71      -3.1215   -0.3569   -7.7159   H         1 RES1   0.0000
   151 H72      -5.7744    0.5004   -6.4469   H         1 RES1   0.0000
   152 H73      -4.1717    1.1079   -6.0484   H         1 RES1   0.0000
   153 H74      -4.5447   -0.4768   -4.3402   H         1 RES1   0.0000
   154 H75      -3.5952   -1.3886   -5.5139   H         1 RES1   0.0000
   155 H76      -6.0239   -1.9587   -6.4997   H         1 RES1   0.0000
   156 H77      -6.5341   -1.6407   -4.8541   H         1 RES1   0.0000
   157 H78      -4.3491   -3.6094   -5.6523   H         1 RES1   0.0000
   158 H79      -6.0454   -4.0432   -5.4886   H         1 RES1   0.0000
   159 H80      -6.0441   -3.4250   -3.1277   H         1 RES1   0.0000
   160 H81      -4.3351   -3.0156   -3.1907   H         1 RES1   0.0000
   161 H82      -5.3159   -5.7215   -4.1263   H         1 RES1   0.0000
   162 H83      -6.3103   -5.2752   -1.8887   H         1 RES1   0.0000
   163 H84      -4.6944   -5.1733   -1.2054   H         1 RES1   0.0000
   164 H85      -4.3192   -7.5666   -2.1114   H         1 RES1   0.0000
   165 H86      -6.0173   -7.5454   -2.5779   H         1 RES1   0.0000
   166 H87      -6.0830   -8.6231   -0.5142   H         1 RES1   0.0000
   167 H88      -6.4823   -6.9701   -0.0648   H         1 RES1   0.0000
   168 H89      -3.7371   -8.3006    0.1730   H         1 RES1   0.0000
   169 H90      -4.8410   -7.9610    1.5003   H         1 RES1   0.0000
   170 H91      -4.0743   -6.6336    0.6383   H         1 RES1   0.0000
   171 H92      -2.9492   -4.9329   -4.4839   H         1 RES1   0.0000
   172 H93      -3.1588   -6.5239   -3.7955   H         1 RES1   0.0000
   173 H94      -2.3613   -5.9042   -1.6891   H         1 RES1   0.0000
   174 H95      -2.7770   -4.2089   -1.8940   H         1 RES1   0.0000
   175 H96      -0.6932   -5.1188   -3.8123   H         1 RES1   0.0000
   176 H97      -0.2052   -5.2294   -2.1218   H         1 RES1   0.0000
   177 H98      -0.9625   -1.6519   -3.9756   H         1 RES1   0.0000
   178 H99      -2.4275   -2.1336   -3.1296   H         1 RES1   0.0000
   179 H100     -1.8249   -3.1116   -4.4888   H         1 RES1   0.0000
   180 H101      1.9137   -3.2895   -1.6567   H         1 RES1   0.0000
   181 H102      0.8659   -4.1924   -0.5363   H         1 RES1   0.0000
   182 H103      3.3890   -2.3110   -0.2057   H         1 RES1   0.0000
   183 H104      2.7868   -3.0210    1.3106   H         1 RES1   0.0000
   184 H105      4.6775   -2.1585    2.6074   H         1 RES1   0.0000
   185 H106      5.7996   -0.7974    2.5080   H         1 RES1   0.0000
   186 H107      5.4664   -1.7619    1.0646   H         1 RES1   0.0000
   187 H108      3.5276    1.5307    1.1586   H         1 RES1   0.0000
   188 H109      5.2271    1.1903    1.5975   H         1 RES1   0.0000
   189 H110      4.5041    0.9487    3.9896   H         1 RES1   0.0000
   190 H111      2.8733    1.4146    3.5178   H         1 RES1   0.0000
   191 H112      5.2520    3.1736    2.8584   H         1 RES1   0.0000
   192 H113      4.5229    3.2303    4.4489   H         1 RES1   0.0000
   193 H114      2.5971    3.4667    2.1929   H         1 RES1   0.0000
   194 H115      1.6592    5.2468    3.6655   H         1 RES1   0.0000
   195 H116      3.0489    5.0915    4.7256   H         1 RES1   0.0000
   196 H117      1.2386    4.0627    5.7852   H         1 RES1   0.0000
   197 H118      2.2825    2.7451    5.2946   H         1 RES1   0.0000
   198 H119      0.7409    2.2054    3.4159   H         1 RES1   0.0000
   199 H120     -0.1817    3.6761    3.7478   H         1 RES1   0.0000
   200 H121      0.1547    1.4692    5.8239   H         1 RES1   0.0000
   201 H122     -1.1960    1.5325    4.6883   H         1 RES1   0.0000
   202 H123     -0.9636    2.8278    5.8736   H         1 RES1   0.0000
   203 H124      4.7643    5.5285    2.6965   H         1 RES1   0.0000
   204 H125      3.1451    6.0594    2.3141   H         1 RES1   0.0000
   205 H126      4.1160    6.1413    0.2801   H         1 RES1   0.0000
   206 H127      3.2995    4.5932    0.1971   H         1 RES1   0.0000
   207 H128      5.4906    3.4496    0.6150   H         1 RES1   0.0000
   208 H129      6.2510    5.0253    0.8363   H         1 RES1   0.0000
   209 H130      5.6579    5.6343   -1.5114   H         1 RES1   0.0000
   210 H131      4.9750    4.0284   -1.7444   H         1 RES1   0.0000
   211 H132      7.2237    3.0398   -1.1662   H         1 RES1   0.0000
   212 H133      7.8722    4.6703   -1.0371   H         1 RES1   0.0000
   213 H134      6.7211    3.4279   -3.5826   H         1 RES1   0.0000
   214 H135      8.4235    3.7217   -3.2279   H         1 RES1   0.0000
   215 H136      7.3249    5.0785   -3.4437   H         1 RES1   0.0000
   216 C69       0.9539   -3.5706   -7.4989   C.3       1 RES1   0.0000
   217 C70       0.9343   -4.0667   -6.0548   C.3       1 RES1   0.0000
   218 C71       1.9409   -3.3189   -5.1713   C.3       1 RES1   0.0000
   219 C72       3.3598   -3.8814   -5.3024   C.3       1 RES1   0.0000
   220 C73       4.4737   -2.8545   -5.0817   C.3       1 RES1   0.0000
   221 C74       4.7244   -2.4543   -3.6240   C.3       1 RES1   0.0000
   222 C75       5.9186   -1.4852   -3.4822   C.3       1 RES1   0.0000
   223 C76       6.5121   -1.5581   -2.0680   C.3       1 RES1   0.0000
   224 C77       7.8969   -0.9205   -1.9532   C.3       1 RES1   0.0000
   225 C78       8.4041   -0.9045   -0.5090   C.3       1 RES1   0.0000
   226 C79       7.8394    0.2670    0.2870   C.3       1 RES1   0.0000
   227 C80       5.6000   -0.0403   -3.9318   C.3       1 RES1   0.0000
   228 C81       4.8947    0.8424   -2.8891   C.3       1 RES1   0.0000
   229 C82       3.8424    1.8165   -3.4678   C.3       1 RES1   0.0000
   230 N5        2.5125    1.2654   -3.2313   N.am      1 RES1   0.0000
   231 C83       2.1214    0.2116   -4.1543   C.3       1 RES1   0.0000
   232 C84       1.9515    1.2698   -2.0165   C.2       1 RES1   0.0000
   233 O7        1.3606    0.2752   -1.5742   O.2       1 RES1   0.0000
   234 C85       1.9292    2.5623   -1.1851   C.3       1 RES1   0.0000
   235 O8        1.0388    2.3065   -0.1058   O.3       1 RES1   0.0000
   236 C86       0.3212    3.4143    0.4238   C.3       1 RES1   0.0000
   237 C87      -0.8993    2.8139    1.1329   C.2       1 RES1   0.0000
   238 O9       -0.9690    1.5783    1.2607   O.2       1 RES1   0.0000
   239 N6       -1.8812    3.6104    1.5417   N.am      1 RES1   0.0000
   240 C88      -1.8038    5.0520    1.5905   C.3       1 RES1   0.0000
   241 C89      -3.2071    3.0271    1.7766   C.3       1 RES1   0.0000
   242 C90      -3.7381    3.0807    3.2069   C.3       1 RES1   0.0000
   243 C91      -5.2265    2.7054    3.2673   C.3       1 RES1   0.0000
   244 C92      -5.5853    1.2606    2.8736   C.3       1 RES1   0.0000
   245 C93      -5.6576    0.3214    4.0916   C.3       1 RES1   0.0000
   246 C94      -4.3581    0.0414    4.8472   C.3       1 RES1   0.0000
   247 C95      -3.3100   -0.6739    3.9941   C.3       1 RES1   0.0000
   248 C96      -2.2121   -1.2939    4.8515   C.3       1 RES1   0.0000
   249 C97      -6.9422    1.1908    2.1437   C.3       1 RES1   0.0000
   250 C98      -6.9163    1.4040    0.6237   C.3       1 RES1   0.0000
   251 C99      -7.0975    2.8459    0.1555   C.3       1 RES1   0.0000
   252 C100     -7.3826    2.9184   -1.3455   C.3       1 RES1   0.0000
   253 C101     -7.6002    4.3572   -1.8101   C.3       1 RES1   0.0000
   254 C102     -7.7292    4.4965   -3.3214   C.3       1 RES1   0.0000
   255 H137      0.2635   -4.1474   -8.1104   H         1 RES1   0.0000
   256 H138      1.9460   -3.6582   -7.9357   H         1 RES1   0.0000
   257 H139      0.6523   -2.5237   -7.5452   H         1 RES1   0.0000
   258 H140      1.1458   -5.1374   -6.0281   H         1 RES1   0.0000
   259 H141     -0.0745   -3.9163   -5.6623   H         1 RES1   0.0000
   260 H142      1.6132   -3.3597   -4.1275   H         1 RES1   0.0000
   261 H143      1.9372   -2.2712   -5.4796   H         1 RES1   0.0000
   262 H144      3.4815   -4.2699   -6.3132   H         1 RES1   0.0000
   263 H145      3.4924   -4.7239   -4.6209   H         1 RES1   0.0000
   264 H146      4.2557   -1.9740   -5.6895   H         1 RES1   0.0000
   265 H147      5.4025   -3.2838   -5.4600   H         1 RES1   0.0000
   266 H148      4.9632   -3.3690   -3.0753   H         1 RES1   0.0000
   267 H149      3.8218   -2.0314   -3.1707   H         1 RES1   0.0000
   268 H150      6.6894   -1.8558   -4.1641   H         1 RES1   0.0000
   269 H151      6.6165   -2.6108   -1.7940   H         1 RES1   0.0000
   270 H152      5.8274   -1.1005   -1.3491   H         1 RES1   0.0000
   271 H153      7.8809    0.1006   -2.3332   H         1 RES1   0.0000
   272 H154      8.5867   -1.4940   -2.5733   H         1 RES1   0.0000
   273 H155      9.4909   -0.8262   -0.5108   H         1 RES1   0.0000
   274 H156      8.1451   -1.8480   -0.0228   H         1 RES1   0.0000
   275 H157      8.2446    1.2033   -0.0892   H         1 RES1   0.0000
   276 H158      8.1090    0.1815    1.3363   H         1 RES1   0.0000
   277 H159      6.7549    0.3077    0.2057   H         1 RES1   0.0000
   278 H160      4.9965   -0.0946   -4.8389   H         1 RES1   0.0000
   279 H161      6.5346    0.4419   -4.2175   H         1 RES1   0.0000
   280 H162      5.6422    1.4225   -2.3505   H         1 RES1   0.0000
   281 H163      4.3832    0.2130   -2.1568   H         1 RES1   0.0000
   282 H164      3.9740    1.9519   -4.5426   H         1 RES1   0.0000
   283 H165      3.9060    2.7952   -2.9927   H         1 RES1   0.0000
   284 H166      1.9656    0.6713   -5.1291   H         1 RES1   0.0000
   285 H167      1.1901   -0.2463   -3.8268   H         1 RES1   0.0000
   286 H168      2.8872   -0.5548   -4.2360   H         1 RES1   0.0000
   287 H169      1.5662    3.3928   -1.8091   H         1 RES1   0.0000
   288 H170      2.9322    2.8103   -0.8167   H         1 RES1   0.0000
   289 H171     -0.0195    4.0836   -0.3792   H         1 RES1   0.0000
   290 H172      0.9360    3.9916    1.1294   H         1 RES1   0.0000
   291 H173     -0.7807    5.4036    1.6867   H         1 RES1   0.0000
   292 H174     -2.3660    5.3913    2.4571   H         1 RES1   0.0000
   293 H175     -2.2450    5.4956    0.6976   H         1 RES1   0.0000
   294 H176     -3.1322    1.9877    1.4527   H         1 RES1   0.0000
   295 H177     -3.9013    3.5677    1.1224   H         1 RES1   0.0000
   296 H178     -3.6469    4.0956    3.5965   H         1 RES1   0.0000
   297 H179     -3.1491    2.4273    3.8435   H         1 RES1   0.0000
   298 H180     -5.7625    3.4000    2.6197   H         1 RES1   0.0000
   299 H181     -5.5743    2.8852    4.2848   H         1 RES1   0.0000
   300 H182     -4.8150    0.8850    2.1934   H         1 RES1   0.0000
   301 H183     -6.0454   -0.6468    3.7595   H         1 RES1   0.0000
   302 H184     -6.3864    0.7294    4.7938   H         1 RES1   0.0000
   303 H185     -4.6146   -0.6122    5.6838   H         1 RES1   0.0000
   304 H186     -3.9430    0.9543    5.2750   H         1 RES1   0.0000
   305 H187     -2.8508    0.0181    3.2776   H         1 RES1   0.0000
   306 H188     -3.8025   -1.4721    3.4287   H         1 RES1   0.0000
   307 H189     -1.8518   -0.5759    5.5849   H         1 RES1   0.0000
   308 H190     -1.3789   -1.5950    4.2200   H         1 RES1   0.0000
   309 H191     -2.5874   -2.1649    5.3861   H         1 RES1   0.0000
   310 H192     -7.6324    1.9034    2.5946   H         1 RES1   0.0000
   311 H193     -7.3662    0.1999    2.3148   H         1 RES1   0.0000
   312 H194     -7.7343    0.8217    0.1965   H         1 RES1   0.0000
   313 H195     -5.9892    0.9938    0.2124   H         1 RES1   0.0000
   314 H196     -6.2098    3.4410    0.3873   H         1 RES1   0.0000
   315 H197     -7.9392    3.2880    0.6899   H         1 RES1   0.0000
   316 H198     -8.2712    2.3252   -1.5673   H         1 RES1   0.0000
   317 H199     -6.5497    2.4702   -1.8976   H         1 RES1   0.0000
   318 H200     -6.7636    4.9725   -1.4681   H         1 RES1   0.0000
   319 H201     -8.5025    4.7477   -1.3390   H         1 RES1   0.0000
   320 H202     -6.8317    4.1479   -3.8299   H         1 RES1   0.0000
   321 H203     -7.8861    5.5402   -3.5817   H         1 RES1   0.0000
   322 H204     -8.5749    3.9273   -3.6955   H         1 RES1   0.0000
@<TRIPOS>BOND
     1     1    19    1
     2     1    21    1
     3     1    24    1
     4     1   126    1
     5     1   128    1
     6     1   131    1
     7     1   233    1
     8     1   235    1
     9     1   238    1
    10     2     3    1
    11     2    41    1
    12     2    42    1
    13     2    43    1
    14     3     4    1
    15     3    44    1
    16     3    45    1
    17     4     5    1
    18     4    46    1
    19     4    47    1
    20     5     6    1
    21     5    48    1
    22     5    49    1
    23     6     7    1
    24     6    50    1
    25     6    51    1
    26     7     8    1
    27     7    52    1
    28     7    53    1
    29     8     9    1
    30     8    13    1
    31     8    54    1
    32     9    10    1
    33     9    55    1
    34     9    56    1
    35    10    11    1
    36    10    57    1
    37    10    58    1
    38    11    12    1
    39    11    59    1
    40    11    60    1
    41    12    61    1
    42    12    62    1
    43    12    63    1
    44    13    14    1
    45    13    64    1
    46    13    65    1
    47    14    15    1
    48    14    66    1
    49    14    67    1
    50    15    16    1
    51    15    68    1
    52    15    69    1
    53    16    17    1
    54    16    18    1
    55    17    70    1
    56    17    71    1
    57    17    72    1
    58    18    19    2
    59    18    20    1
    60    20    21    1
    61    20    73    1
    62    20    74    1
    63    21    22    1
    64    22    23    1
    65    22    75    1
    66    22    76    1
    67    23    24    2
    68    23    25    1
    69    25    26    1
    70    25    27    1
    71    26    77    1
    72    26    78    1
    73    26    79    1
    74    27    28    1
    75    27    80    1
    76    27    81    1
    77    28    29    1
    78    28    82    1
    79    28    83    1
    80    29    30    1
    81    29    84    1
    82    29    85    1
    83    30    31    1
    84    30    35    1
    85    30    86    1
    86    31    32    1
    87    31    87    1
    88    31    88    1
    89    32    33    1
    90    32    89    1
    91    32    90    1
    92    33    34    1
    93    33    91    1
    94    33    92    1
    95    34    93    1
    96    34    94    1
    97    34    95    1
    98    35    36    1
    99    35    96    1
   100    35    97    1
   101    36    37    1
   102    36    98    1
   103    36    99    1
   104    37    38    1
   105    37   100    1
   106    37   101    1
   107    38    39    1
   108    38   102    1
   109    38   103    1
   110    39    40    1
   111    39   104    1
   112    39   105    1
   113    40   106    1
   114    40   107    1
   115    40   108    1
   116   109   110    1
   117   109   148    1
   118   109   149    1
   119   109   150    1
   120   110   111    1
   121   110   151    1
   122   110   152    1
   123   111   112    1
   124   111   153    1
   125   111   154    1
   126   112   113    1
   127   112   155    1
   128   112   156    1
   129   113   114    1
   130   113   157    1
   131   113   158    1
   132   114   115    1
   133   114   159    1
   134   114   160    1
   135   115   116    1
   136   115   120    1
   137   115   161    1
   138   116   117    1
   139   116   162    1
   140   116   163    1
   141   117   118    1
   142   117   164    1
   143   117   165    1
   144   118   119    1
   145   118   166    1
   146   118   167    1
   147   119   168    1
   148   119   169    1
   149   119   170    1
   150   120   121    1
   151   120   171    1
   152   120   172    1
   153   121   122    1
   154   121   173    1
   155   121   174    1
   156   122   123    1
   157   122   175    1
   158   122   176    1
   159   123   124    1
   160   123   125    1
   161   124   177    1
   162   124   178    1
   163   124   179    1
   164   125   126    2
   165   125   127    1
   166   127   128    1
   167   127   180    1
   168   127   181    1
   169   128   129    1
   170   129   130    1
   171   129   182    1
   172   129   183    1
   173   130   131    2
   174   130   132    1
   175   132   133    1
   176   132   134    1
   177   133   184    1
   178   133   185    1
   179   133   186    1
   180   134   135    1
   181   134   187    1
   182   134   188    1
   183   135   136    1
   184   135   189    1
   185   135   190    1
   186   136   137    1
   187   136   191    1
   188   136   192    1
   189   137   138    1
   190   137   142    1
   191   137   193    1
   192   138   139    1
   193   138   194    1
   194   138   195    1
   195   139   140    1
   196   139   196    1
   197   139   197    1
   198   140   141    1
   199   140   198    1
   200   140   199    1
   201   141   200    1
   202   141   201    1
   203   141   202    1
   204   142   143    1
   205   142   203    1
   206   142   204    1
   207   143   144    1
   208   143   205    1
   209   143   206    1
   210   144   145    1
   211   144   207    1
   212   144   208    1
   213   145   146    1
   214   145   209    1
   215   145   210    1
   216   146   147    1
   217   146   211    1
   218   146   212    1
   219   147   213    1
   220   147   214    1
   221   147   215    1
   222   216   217    1
   223   216   255    1
   224   216   256    1
   225   216   257    1
   226   217   218    1
   227   217   258    1
   228   217   259    1
   229   218   219    1
   230   218   260    1
   231   218   261    1
   232   219   220    1
   233   219   262    1
   234   219   263    1
   235   220   221    1
   236   220   264    1
   237   220   265    1
   238   221   222    1
   239   221   266    1
   240   221   267    1
   241   222   223    1
   242   222   227    1
   243   222   268    1
   244   223   224    1
   245   223   269    1
   246   223   270    1
   247   224   225    1
   248   224   271    1
   249   224   272    1
   250   225   226    1
   251   225   273    1
   252   225   274    1
   253   226   275    1
   254   226   276    1
   255   226   277    1
   256   227   228    1
   257   227   278    1
   258   227   279    1
   259   228   229    1
   260   228   280    1
   261   228   281    1
   262   229   230    1
   263   229   282    1
   264   229   283    1
   265   230   231    1
   266   230   232    1
   267   231   284    1
   268   231   285    1
   269   231   286    1
   270   232   233    2
   271   232   234    1
   272   234   235    1
   273   234   287    1
   274   234   288    1
   275   235   236    1
   276   236   237    1
   277   236   289    1
   278   236   290    1
   279   237   238    2
   280   237   239    1
   281   239   240    1
   282   239   241    1
   283   240   291    1
   284   240   292    1
   285   240   293    1
   286   241   242    1
   287   241   294    1
   288   241   295    1
   289   242   243    1
   290   242   296    1
   291   242   297    1
   292   243   244    1
   293   243   298    1
   294   243   299    1
   295   244   245    1
   296   244   249    1
   297   244   300    1
   298   245   246    1
   299   245   301    1
   300   245   302    1
   301   246   247    1
   302   246   303    1
   303   246   304    1
   304   247   248    1
   305   247   305    1
   306   247   306    1
   307   248   307    1
   308   248   308    1
   309   248   309    1
   310   249   250    1
   311   249   310    1
   312   249   311    1
   313   250   251    1
   314   250   312    1
   315   250   313    1
   316   251   252    1
   317   251   314    1
   318   251   315    1
   319   252   253    1
   320   252   316    1
   321   252   317    1
   322   253   254    1
   323   253   318    1
   324   253   319    1
   325   254   320    1
   326   254   321    1
   327   254   322    1
@<TRIPOS>SUBSTRUCTURE
     1 RES1      322 GROUP             0 ****  ****    0  
