@<TRIPOS>MOLECULE
tri_tri_mer_capped_0_nunpairedes_0_charge_3 Charge: 3 Unpaired_Electrons: 7 XTB_Unpaired_Electrons: 0 XTB_Charge: 3
   484   489     1     0     0
SMALL
NoCharges
****
Generated from Architector

@<TRIPOS>ATOM
     1 Gd1       0.1244   -0.2024    0.0252   Gd        1 RES1   0.0000
     2 C1        2.2360   10.3369   -2.9135   C.3       1 RES1   0.0000
     3 C2        0.9112    9.9868   -2.2336   C.3       1 RES1   0.0000
     4 C3        1.1662    9.1676   -0.9683   C.3       1 RES1   0.0000
     5 C4       -0.0707    8.4686   -0.4084   C.3       1 RES1   0.0000
     6 C5        0.2900    7.6261    0.8208   C.3       1 RES1   0.0000
     7 C6       -0.6980    6.4833    1.0899   C.3       1 RES1   0.0000
     8 C7       -0.8451    6.0792    2.5673   C.3       1 RES1   0.0000
     9 C8       -0.1474    4.7786    2.9607   C.3       1 RES1   0.0000
    10 C9       -0.3955    4.4587    4.4351   C.3       1 RES1   0.0000
    11 C10      -0.0159    3.0308    4.8203   C.3       1 RES1   0.0000
    12 C11       1.4775    2.7559    4.6639   C.3       1 RES1   0.0000
    13 C12       1.7933    1.2594    4.5885   C.3       1 RES1   0.0000
    14 N1        2.8156    0.9268    3.6061   N.am      1 RES1   0.0000
    15 C13       4.2076    0.7597    4.0321   C.3       1 RES1   0.0000
    16 C14       4.6467    1.4977    5.3122   C.3       1 RES1   0.0000
    17 C15       5.7449    2.5502    5.0885   C.3       1 RES1   0.0000
    18 C16       7.0853    2.0179    4.5785   C.3       1 RES1   0.0000
    19 C17       8.0149    3.1540    4.1360   C.3       1 RES1   0.0000
    20 C18       9.2567    2.6393    3.4017   C.3       1 RES1   0.0000
    21 C19       8.9690    2.0744    2.0085   C.3       1 RES1   0.0000
    22 C20      10.2619    1.7526    1.2579   C.3       1 RES1   0.0000
    23 C21      10.0567    0.9101   -0.0018   C.3       1 RES1   0.0000
    24 C22       9.5152   -0.5079    0.2039   C.3       1 RES1   0.0000
    25 C23      10.3977   -1.4363    1.0479   C.3       1 RES1   0.0000
    26 C24      10.1105   -1.4089    2.5466   C.3       1 RES1   0.0000
    27 C25       2.3867    0.5956    2.3867   C.2       1 RES1   0.0000
    28 O1        1.2185    0.8002    2.0045   O.2       1 RES1   0.0000
    29 C26       3.3285   -0.1457    1.4418   C.3       1 RES1   0.0000
    30 O2        2.5638   -0.6014    0.3345   O.3       1 RES1   0.0000
    31 C27       3.1850   -1.6394   -0.4173   C.3       1 RES1   0.0000
    32 C28       2.0430   -2.4400   -1.0679   C.2       1 RES1   0.0000
    33 O3        0.9255   -1.9078   -1.1762   O.2       1 RES1   0.0000
    34 N2        2.2319   -3.7155   -1.3877   N.am      1 RES1   0.0000
    35 C29       1.0586   -4.5913   -1.2902   C.3       1 RES1   0.0000
    36 C30       0.3722   -5.1032   -2.5543   C.3       1 RES1   0.0000
    37 C31      -0.5770   -6.2470   -2.1932   C.3       1 RES1   0.0000
    38 C32      -1.3381   -6.8098   -3.3968   C.3       1 RES1   0.0000
    39 C33      -2.2704   -5.8321   -4.1114   C.3       1 RES1   0.0000
    40 C34      -3.2816   -6.5551   -5.0017   C.3       1 RES1   0.0000
    41 C35      -2.6965   -7.3969   -6.1360   C.3       1 RES1   0.0000
    42 C36      -1.9540   -6.5997   -7.2164   C.3       1 RES1   0.0000
    43 C37      -0.4452   -6.4853   -6.9956   C.3       1 RES1   0.0000
    44 C38       0.2830   -5.9609   -8.2333   C.3       1 RES1   0.0000
    45 C39      -0.1417   -4.5463   -8.6158   C.3       1 RES1   0.0000
    46 C40       0.8016   -3.9121   -9.6295   C.3       1 RES1   0.0000
    47 C41       3.5354   -4.3710   -1.4319   C.3       1 RES1   0.0000
    48 C42       3.7048   -5.2850   -2.6494   C.3       1 RES1   0.0000
    49 C43       3.4148   -4.6275   -3.9995   C.3       1 RES1   0.0000
    50 C44       4.3500   -3.4929   -4.4111   C.3       1 RES1   0.0000
    51 C45       4.0356   -3.0248   -5.8398   C.3       1 RES1   0.0000
    52 C46       2.9459   -1.9603   -6.0151   C.3       1 RES1   0.0000
    53 C47       1.5011   -2.3248   -5.6375   C.3       1 RES1   0.0000
    54 C48       0.5121   -1.4297   -6.4008   C.3       1 RES1   0.0000
    55 C49      -0.9236   -1.3903   -5.8369   C.3       1 RES1   0.0000
    56 C50      -1.9825   -2.1254   -6.6684   C.3       1 RES1   0.0000
    57 C51      -3.4032   -1.6770   -6.3132   C.3       1 RES1   0.0000
    58 C52      -4.4436   -2.2165   -7.2833   C.3       1 RES1   0.0000
    59 H1        2.0809   11.0146   -3.7525   H         1 RES1   0.0000
    60 H2        2.7183    9.4334   -3.2934   H         1 RES1   0.0000
    61 H3        2.9135   10.8109   -2.2022   H         1 RES1   0.0000
    62 H4        0.2902    9.4145   -2.9296   H         1 RES1   0.0000
    63 H5        0.3718   10.9040   -1.9896   H         1 RES1   0.0000
    64 H6        1.9170    8.4119   -1.2083   H         1 RES1   0.0000
    65 H7        1.5900    9.8170   -0.2013   H         1 RES1   0.0000
    66 H8       -0.4985    7.8319   -1.1823   H         1 RES1   0.0000
    67 H9       -0.8227    9.2141   -0.1476   H         1 RES1   0.0000
    68 H10       0.3237    8.2861    1.6857   H         1 RES1   0.0000
    69 H11       1.2905    7.2140    0.6772   H         1 RES1   0.0000
    70 H12      -0.4018    5.6060    0.5106   H         1 RES1   0.0000
    71 H13      -1.6741    6.8036    0.7214   H         1 RES1   0.0000
    72 H14      -1.9031    5.9682    2.8022   H         1 RES1   0.0000
    73 H15      -0.4714    6.8813    3.2033   H         1 RES1   0.0000
    74 H16       0.9190    4.8772    2.7811   H         1 RES1   0.0000
    75 H17      -0.5133    3.9504    2.3401   H         1 RES1   0.0000
    76 H18      -1.4578    4.5912    4.6463   H         1 RES1   0.0000
    77 H19       0.1534    5.1587    5.0662   H         1 RES1   0.0000
    78 H20      -0.5737    2.3489    4.1737   H         1 RES1   0.0000
    79 H21      -0.3226    2.8350    5.8502   H         1 RES1   0.0000
    80 H22       2.0055    3.2219    5.4941   H         1 RES1   0.0000
    81 H23       1.8207    3.2153    3.7406   H         1 RES1   0.0000
    82 H24       0.8907    0.7303    4.2750   H         1 RES1   0.0000
    83 H25       2.1102    0.8581    5.5511   H         1 RES1   0.0000
    84 H26       4.8507    1.0975    3.2229   H         1 RES1   0.0000
    85 H27       4.3730   -0.3108    4.1643   H         1 RES1   0.0000
    86 H28       5.0003    0.7598    6.0330   H         1 RES1   0.0000
    87 H29       3.8068    2.0093    5.7709   H         1 RES1   0.0000
    88 H30       5.9183    3.0667    6.0349   H         1 RES1   0.0000
    89 H31       5.3798    3.2970    4.3842   H         1 RES1   0.0000
    90 H32       6.9257    1.3529    3.7285   H         1 RES1   0.0000
    91 H33       7.5769    1.4408    5.3641   H         1 RES1   0.0000
    92 H34       8.3310    3.7203    5.0139   H         1 RES1   0.0000
    93 H35       7.4727    3.8419    3.4833   H         1 RES1   0.0000
    94 H36       9.7282    1.8672    4.0127   H         1 RES1   0.0000
    95 H37       9.9732    3.4566    3.3019   H         1 RES1   0.0000
    96 H38       8.3890    2.8051    1.4386   H         1 RES1   0.0000
    97 H39       8.3746    1.1634    2.0972   H         1 RES1   0.0000
    98 H40      10.9535    1.2411    1.9257   H         1 RES1   0.0000
    99 H41      10.7367    2.6912    0.9645   H         1 RES1   0.0000
   100 H42      11.0146    0.8343   -0.5175   H         1 RES1   0.0000
   101 H43       9.3746    1.4421   -0.6721   H         1 RES1   0.0000
   102 H44       9.4095   -0.9484   -0.7910   H         1 RES1   0.0000
   103 H45       8.5137   -0.4648    0.6373   H         1 RES1   0.0000
   104 H46      11.4441   -1.1870    0.8760   H         1 RES1   0.0000
   105 H47      10.2555   -2.4636    0.7031   H         1 RES1   0.0000
   106 H48      10.3900   -0.4614    2.9944   H         1 RES1   0.0000
   107 H49      10.6732   -2.1941    3.0468   H         1 RES1   0.0000
   108 H50       9.0529   -1.5794    2.7416   H         1 RES1   0.0000
   109 H51       3.7567   -1.0012    1.9890   H         1 RES1   0.0000
   110 H52       4.1535    0.4928    1.1007   H         1 RES1   0.0000
   111 H53       3.7208   -2.3134    0.2601   H         1 RES1   0.0000
   112 H54       3.8804   -1.2173   -1.1524   H         1 RES1   0.0000
   113 H55       1.3933   -5.4443   -0.6979   H         1 RES1   0.0000
   114 H56       0.3236   -4.0399   -0.6955   H         1 RES1   0.0000
   115 H57       1.1033   -5.4929   -3.2531   H         1 RES1   0.0000
   116 H58      -0.1772   -4.2913   -3.0263   H         1 RES1   0.0000
   117 H59      -1.2827   -5.9206   -1.4265   H         1 RES1   0.0000
   118 H60       0.0129   -7.0631   -1.7644   H         1 RES1   0.0000
   119 H61      -1.9385   -7.6484   -3.0402   H         1 RES1   0.0000
   120 H62      -0.6172   -7.2019   -4.1139   H         1 RES1   0.0000
   121 H63      -1.6944   -5.1199   -4.7033   H         1 RES1   0.0000
   122 H64      -2.8357   -5.2598   -3.3696   H         1 RES1   0.0000
   123 H65      -3.9516   -5.8138   -5.4384   H         1 RES1   0.0000
   124 H66      -3.8965   -7.2051   -4.3759   H         1 RES1   0.0000
   125 H67      -3.5404   -7.9058   -6.6056   H         1 RES1   0.0000
   126 H68      -2.0433   -8.1706   -5.7308   H         1 RES1   0.0000
   127 H69      -2.3941   -5.6036   -7.2987   H         1 RES1   0.0000
   128 H70      -2.1067   -7.0963   -8.1754   H         1 RES1   0.0000
   129 H71      -0.0405   -7.4715   -6.7546   H         1 RES1   0.0000
   130 H72      -0.2328   -5.8252   -6.1499   H         1 RES1   0.0000
   131 H73       0.0997   -6.6342   -9.0708   H         1 RES1   0.0000
   132 H74       1.3576   -5.9610   -8.0363   H         1 RES1   0.0000
   133 H75      -0.1554   -3.9308   -7.7170   H         1 RES1   0.0000
   134 H76      -1.1516   -4.5597   -9.0246   H         1 RES1   0.0000
   135 H77       1.7982   -3.7946   -9.2062   H         1 RES1   0.0000
   136 H78       0.4385   -2.9321   -9.9372   H         1 RES1   0.0000
   137 H79       0.8835   -4.5363  -10.5142   H         1 RES1   0.0000
   138 H80       3.6544   -4.9808   -0.5272   H         1 RES1   0.0000
   139 H81       4.3196   -3.6175   -1.4550   H         1 RES1   0.0000
   140 H82       3.0553   -6.1527   -2.5342   H         1 RES1   0.0000
   141 H83       4.7326   -5.6475   -2.6418   H         1 RES1   0.0000
   142 H84       2.4028   -4.2335   -4.0147   H         1 RES1   0.0000
   143 H85       3.4815   -5.4084   -4.7606   H         1 RES1   0.0000
   144 H86       5.3811   -3.8537   -4.3856   H         1 RES1   0.0000
   145 H87       4.2726   -2.6550   -3.7100   H         1 RES1   0.0000
   146 H88       3.7732   -3.8979   -6.4351   H         1 RES1   0.0000
   147 H89       4.9473   -2.6092   -6.2734   H         1 RES1   0.0000
   148 H90       2.9540   -1.6953   -7.0754   H         1 RES1   0.0000
   149 H91       3.2306   -1.0695   -5.4501   H         1 RES1   0.0000
   150 H92       1.3571   -2.1937   -4.5584   H         1 RES1   0.0000
   151 H93       1.2945   -3.3664   -5.8868   H         1 RES1   0.0000
   152 H94       0.4827   -1.7559   -7.4397   H         1 RES1   0.0000
   153 H95       0.9119   -0.4133   -6.4133   H         1 RES1   0.0000
   154 H96      -1.2448   -0.3435   -5.7962   H         1 RES1   0.0000
   155 H97      -0.9193   -1.7831   -4.8146   H         1 RES1   0.0000
   156 H98      -1.8910   -3.2035   -6.5273   H         1 RES1   0.0000
   157 H99      -1.8138   -1.9066   -7.7243   H         1 RES1   0.0000
   158 H100     -3.4441   -0.5843   -6.3335   H         1 RES1   0.0000
   159 H101     -3.6555   -2.0012   -5.2992   H         1 RES1   0.0000
   160 H102     -4.2429   -1.8677   -8.2902   H         1 RES1   0.0000
   161 H103     -5.4334   -1.8737   -7.0011   H         1 RES1   0.0000
   162 H104     -4.4487   -3.3012   -7.2965   H         1 RES1   0.0000
   163 C53       6.9555    8.3561    0.2289   C.3       1 RES1   0.0000
   164 C54       6.2994    8.0291   -1.1097   C.3       1 RES1   0.0000
   165 C55       5.0613    7.1632   -0.8984   C.3       1 RES1   0.0000
   166 C56       4.3900    6.6928   -2.1869   C.3       1 RES1   0.0000
   167 C57       3.1675    5.8320   -1.8698   C.3       1 RES1   0.0000
   168 C58       2.4875    5.2362   -3.1024   C.3       1 RES1   0.0000
   169 C59       1.4209    6.1433   -3.7235   C.3       1 RES1   0.0000
   170 C60       0.0418    5.9817   -3.0722   C.3       1 RES1   0.0000
   171 C61      -0.6644    4.7011   -3.5117   C.3       1 RES1   0.0000
   172 C62      -2.0783    4.5203   -2.9457   C.3       1 RES1   0.0000
   173 C63      -2.0703    4.2562   -1.4303   C.3       1 RES1   0.0000
   174 C64      -3.1485    3.2672   -0.9772   C.3       1 RES1   0.0000
   175 N3       -3.0433    2.8679    0.4262   N.am      1 RES1   0.0000
   176 C65      -3.7489    3.5303    1.5325   C.3       1 RES1   0.0000
   177 C66      -4.7123    4.6680    1.1795   C.3       1 RES1   0.0000
   178 C67      -4.6156    5.8387    2.1692   C.3       1 RES1   0.0000
   179 C68      -4.7218    5.5046    3.6605   C.3       1 RES1   0.0000
   180 C69      -4.2294    6.6896    4.5037   C.3       1 RES1   0.0000
   181 C70      -4.3019    6.4705    6.0191   C.3       1 RES1   0.0000
   182 C71      -3.3612    5.3748    6.5196   C.3       1 RES1   0.0000
   183 C72      -3.4688    5.1192    8.0228   C.3       1 RES1   0.0000
   184 C73      -2.7990    3.8083    8.4413   C.3       1 RES1   0.0000
   185 C74      -3.4171    2.5233    7.8768   C.3       1 RES1   0.0000
   186 C75      -4.8844    2.2806    8.2543   C.3       1 RES1   0.0000
   187 C76      -5.9074    2.8704    7.2890   C.3       1 RES1   0.0000
   188 C77      -2.1587    1.9173    0.7052   C.2       1 RES1   0.0000
   189 O4       -1.3003    1.5504   -0.1191   O.2       1 RES1   0.0000
   190 C78      -2.2608    1.1567    2.0272   C.3       1 RES1   0.0000
   191 O5       -1.3269    0.0980    1.9275   O.3       1 RES1   0.0000
   192 C79      -1.2047   -0.7350    3.0630   C.3       1 RES1   0.0000
   193 C80      -0.3867   -1.9408    2.5853   C.2       1 RES1   0.0000
   194 O6        0.2313   -1.8728    1.5088   O.2       1 RES1   0.0000
   195 N4       -0.4648   -3.0765    3.2659   N.am      1 RES1   0.0000
   196 C81      -0.4630   -4.3168    2.4871   C.3       1 RES1   0.0000
   197 C82       0.7567   -5.2347    2.4324   C.3       1 RES1   0.0000
   198 C83       0.2981   -6.5727    1.8419   C.3       1 RES1   0.0000
   199 C84       1.3549   -7.6781    1.8240   C.3       1 RES1   0.0000
   200 C85       2.5367   -7.4076    0.8950   C.3       1 RES1   0.0000
   201 C86       3.2280   -8.6853    0.4235   C.3       1 RES1   0.0000
   202 C87       3.8400   -9.5394    1.5307   C.3       1 RES1   0.0000
   203 C88       4.9299   -8.8307    2.3447   C.3       1 RES1   0.0000
   204 C89       4.4192   -8.2259    3.6526   C.3       1 RES1   0.0000
   205 C90       5.5412   -7.8391    4.6154   C.3       1 RES1   0.0000
   206 C91       6.4008   -6.6810    4.1135   C.3       1 RES1   0.0000
   207 C92       7.2574   -6.0964    5.2294   C.3       1 RES1   0.0000
   208 C93      -0.9053   -3.1309    4.6543   C.3       1 RES1   0.0000
   209 C94      -0.1212   -4.1678    5.4557   C.3       1 RES1   0.0000
   210 C95       1.3963   -3.9313    5.4301   C.3       1 RES1   0.0000
   211 C96       1.9166   -3.0109    6.5390   C.3       1 RES1   0.0000
   212 C97       3.3699   -3.3114    6.9347   C.3       1 RES1   0.0000
   213 C98       4.4734   -2.5789    6.1689   C.3       1 RES1   0.0000
   214 C99       4.6615   -2.9592    4.6961   C.3       1 RES1   0.0000
   215 C100      6.0166   -2.4502    4.1799   C.3       1 RES1   0.0000
   216 C101      6.1702   -2.3943    2.6566   C.3       1 RES1   0.0000
   217 C102      6.4050   -3.7376    1.9676   C.3       1 RES1   0.0000
   218 C103      6.8467   -3.5501    0.5155   C.3       1 RES1   0.0000
   219 C104      7.1187   -4.8733   -0.1848   C.3       1 RES1   0.0000
   220 H105      7.8335    8.9791    0.0821   H         1 RES1   0.0000
   221 H106      7.2624    7.4414    0.7381   H         1 RES1   0.0000
   222 H107      6.2602    8.8924    0.8725   H         1 RES1   0.0000
   223 H108      7.0127    7.4944   -1.7416   H         1 RES1   0.0000
   224 H109      6.0217    8.9512   -1.6237   H         1 RES1   0.0000
   225 H110      4.3373    7.7154   -0.2930   H         1 RES1   0.0000
   226 H111      5.3660    6.2805   -0.3296   H         1 RES1   0.0000
   227 H112      5.1094    6.1057   -2.7629   H         1 RES1   0.0000
   228 H113      4.1013    7.5502   -2.7957   H         1 RES1   0.0000
   229 H114      2.4470    6.4196   -1.3018   H         1 RES1   0.0000
   230 H115      3.4918    5.0198   -1.2198   H         1 RES1   0.0000
   231 H116      2.0206    4.2903   -2.8177   H         1 RES1   0.0000
   232 H117      3.2620    5.0144   -3.8391   H         1 RES1   0.0000
   233 H118      1.3302    5.9300   -4.7913   H         1 RES1   0.0000
   234 H119      1.7421    7.1812   -3.6347   H         1 RES1   0.0000
   235 H120     -0.5799    6.8331   -3.3485   H         1 RES1   0.0000
   236 H121      0.1610    5.9805   -1.9888   H         1 RES1   0.0000
   237 H122     -0.0507    3.8509   -3.2037   H         1 RES1   0.0000
   238 H123     -0.7217    4.6878   -4.6017   H         1 RES1   0.0000
   239 H124     -2.5525    3.6858   -3.4724   H         1 RES1   0.0000
   240 H125     -2.6712    5.4080   -3.1704   H         1 RES1   0.0000
   241 H126     -2.2021    5.1962   -0.9006   H         1 RES1   0.0000
   242 H127     -1.1009    3.8352   -1.1477   H         1 RES1   0.0000
   243 H128     -3.0404    2.3470   -1.5579   H         1 RES1   0.0000
   244 H129     -4.1532    3.6503   -1.1378   H         1 RES1   0.0000
   245 H130     -2.9702    3.9292    2.1881   H         1 RES1   0.0000
   246 H131     -4.3037    2.7658    2.0843   H         1 RES1   0.0000
   247 H132     -5.7327    4.2892    1.1360   H         1 RES1   0.0000
   248 H133     -4.4771    5.0790    0.1998   H         1 RES1   0.0000
   249 H134     -5.3926    6.5574    1.9111   H         1 RES1   0.0000
   250 H135     -3.6596    6.3327    1.9992   H         1 RES1   0.0000
   251 H136     -4.1181    4.6243    3.8935   H         1 RES1   0.0000
   252 H137     -5.7563    5.2800    3.9245   H         1 RES1   0.0000
   253 H138     -4.8255    7.5682    4.2488   H         1 RES1   0.0000
   254 H139     -3.1948    6.9151    4.2340   H         1 RES1   0.0000
   255 H140     -5.3284    6.2261    6.2955   H         1 RES1   0.0000
   256 H141     -4.0442    7.4096    6.5139   H         1 RES1   0.0000
   257 H142     -2.3328    5.6602    6.2862   H         1 RES1   0.0000
   258 H143     -3.5907    4.4464    5.9954   H         1 RES1   0.0000
   259 H144     -4.5144    5.1088    8.3278   H         1 RES1   0.0000
   260 H145     -2.9864    5.9375    8.5607   H         1 RES1   0.0000
   261 H146     -2.8201    3.7436    9.5301   H         1 RES1   0.0000
   262 H147     -1.7461    3.8432    8.1412   H         1 RES1   0.0000
   263 H148     -2.8184    1.6936    8.2646   H         1 RES1   0.0000
   264 H149     -3.3111    2.5032    6.7892   H         1 RES1   0.0000
   265 H150     -5.0608    2.6750    9.2543   H         1 RES1   0.0000
   266 H151     -5.0576    1.2029    8.3035   H         1 RES1   0.0000
   267 H152     -5.9038    3.9532    7.3065   H         1 RES1   0.0000
   268 H153     -6.9041    2.5338    7.5603   H         1 RES1   0.0000
   269 H154     -5.7127    2.5514    6.2671   H         1 RES1   0.0000
   270 H155     -3.2775    0.7479    2.1151   H         1 RES1   0.0000
   271 H156     -2.0646    1.7928    2.8994   H         1 RES1   0.0000
   272 H157     -2.1903   -1.0896    3.4015   H         1 RES1   0.0000
   273 H158     -0.7132   -0.2024    3.8907   H         1 RES1   0.0000
   274 H159     -0.7078   -4.0189    1.4634   H         1 RES1   0.0000
   275 H160     -1.3001   -4.8928    2.8870   H         1 RES1   0.0000
   276 H161      1.1551   -5.4159    3.4233   H         1 RES1   0.0000
   277 H162      1.5363   -4.7756    1.8250   H         1 RES1   0.0000
   278 H163     -0.0681   -6.4174    0.8245   H         1 RES1   0.0000
   279 H164     -0.5417   -6.9342    2.4415   H         1 RES1   0.0000
   280 H165      0.8594   -8.5857    1.4756   H         1 RES1   0.0000
   281 H166      1.7095   -7.8654    2.8375   H         1 RES1   0.0000
   282 H167      3.2590   -6.7457    1.3739   H         1 RES1   0.0000
   283 H168      2.1712   -6.9090   -0.0042   H         1 RES1   0.0000
   284 H169      4.0145   -8.4148   -0.2847   H         1 RES1   0.0000
   285 H170      2.5029   -9.2911   -0.1264   H         1 RES1   0.0000
   286 H171      4.2704  -10.4178    1.0484   H         1 RES1   0.0000
   287 H172      3.0528   -9.8923    2.1979   H         1 RES1   0.0000
   288 H173      5.3989   -8.0556    1.7355   H         1 RES1   0.0000
   289 H174      5.7057   -9.5547    2.5926   H         1 RES1   0.0000
   290 H175      3.7837   -8.9570    4.1575   H         1 RES1   0.0000
   291 H176      3.8117   -7.3391    3.4513   H         1 RES1   0.0000
   292 H177      6.1757   -8.7074    4.7983   H         1 RES1   0.0000
   293 H178      5.0950   -7.5505    5.5715   H         1 RES1   0.0000
   294 H179      5.7493   -5.8996    3.7166   H         1 RES1   0.0000
   295 H180      7.0412   -7.0213    3.2996   H         1 RES1   0.0000
   296 H181      6.6288   -5.6491    5.9973   H         1 RES1   0.0000
   297 H182      7.9340   -5.3343    4.8476   H         1 RES1   0.0000
   298 H183      7.8522   -6.8754    5.6964   H         1 RES1   0.0000
   299 H184     -1.9727   -3.3700    4.6978   H         1 RES1   0.0000
   300 H185     -0.7461   -2.1510    5.1039   H         1 RES1   0.0000
   301 H186     -0.3542   -5.1655    5.0849   H         1 RES1   0.0000
   302 H187     -0.4847   -4.1313    6.4826   H         1 RES1   0.0000
   303 H188      1.6895   -3.5254    4.4602   H         1 RES1   0.0000
   304 H189      1.8842   -4.8993    5.5506   H         1 RES1   0.0000
   305 H190      1.2998   -3.1607    7.4267   H         1 RES1   0.0000
   306 H191      1.8077   -1.9623    6.2494   H         1 RES1   0.0000
   307 H192      3.5394   -4.3861    6.8608   H         1 RES1   0.0000
   308 H193      3.4923   -3.0461    7.9855   H         1 RES1   0.0000
   309 H194      5.4100   -2.7933    6.6874   H         1 RES1   0.0000
   310 H195      4.3029   -1.5021    6.2439   H         1 RES1   0.0000
   311 H196      3.8456   -2.5413    4.0930   H         1 RES1   0.0000
   312 H197      4.6192   -4.0436    4.5956   H         1 RES1   0.0000
   313 H198      6.8062   -3.0839    4.5809   H         1 RES1   0.0000
   314 H199      6.1929   -1.4439    4.5707   H         1 RES1   0.0000
   315 H200      7.0194   -1.7473    2.4247   H         1 RES1   0.0000
   316 H201      5.2888   -1.9213    2.2165   H         1 RES1   0.0000
   317 H202      5.4944   -4.3430    2.0020   H         1 RES1   0.0000
   318 H203      7.1882   -4.2757    2.5014   H         1 RES1   0.0000
   319 H204      7.7579   -2.9524    0.5016   H         1 RES1   0.0000
   320 H205      6.0839   -2.9879   -0.0350   H         1 RES1   0.0000
   321 H206      7.9067   -5.4138    0.3286   H         1 RES1   0.0000
   322 H207      7.4382   -4.7017   -1.2082   H         1 RES1   0.0000
   323 H208      6.2327   -5.5025   -0.1978   H         1 RES1   0.0000
   324 C105      2.0131    9.3631    4.1761   C.3       1 RES1   0.0000
   325 C106      3.0136    8.2103    4.2632   C.3       1 RES1   0.0000
   326 C107      2.9045    7.2956    3.0436   C.3       1 RES1   0.0000
   327 C108      3.6841    5.9840    3.1472   C.3       1 RES1   0.0000
   328 C109      3.5241    5.1522    1.8675   C.3       1 RES1   0.0000
   329 C110      4.0165    3.7016    1.9890   C.3       1 RES1   0.0000
   330 C111      5.4123    3.4643    1.3982   C.3       1 RES1   0.0000
   331 C112      5.4086    3.3168   -0.1347   C.3       1 RES1   0.0000
   332 C113      5.8938    1.9544   -0.6426   C.3       1 RES1   0.0000
   333 C114      5.4142    1.5871   -2.0591   C.3       1 RES1   0.0000
   334 C115      3.9247    1.8765   -2.2840   C.3       1 RES1   0.0000
   335 C116      3.2564    0.8801   -3.2335   C.3       1 RES1   0.0000
   336 N5        1.9125    1.2745   -3.6566   N.am      1 RES1   0.0000
   337 C117      1.6714    2.0200   -4.8947   C.3       1 RES1   0.0000
   338 C118      2.8823    2.2130   -5.8109   C.3       1 RES1   0.0000
   339 C119      2.7941    3.5282   -6.5890   C.3       1 RES1   0.0000
   340 C120      1.5403    3.6873   -7.4430   C.3       1 RES1   0.0000
   341 C121      1.3054    5.1559   -7.8043   C.3       1 RES1   0.0000
   342 C122     -0.0417    5.3989   -8.4854   C.3       1 RES1   0.0000
   343 C123     -1.2320    5.1525   -7.5553   C.3       1 RES1   0.0000
   344 C124     -2.5566    5.0563   -8.3120   C.3       1 RES1   0.0000
   345 C125     -3.6218    4.2592   -7.5580   C.3       1 RES1   0.0000
   346 C126     -3.3304    2.7663   -7.3444   C.3       1 RES1   0.0000
   347 C127     -3.1113    1.9433   -8.6226   C.3       1 RES1   0.0000
   348 C128     -1.6509    1.7968   -9.0362   C.3       1 RES1   0.0000
   349 C129      0.9497    1.0640   -2.7667   C.2       1 RES1   0.0000
   350 O7        1.2349    0.8112   -1.5782   O.2       1 RES1   0.0000
   351 C130     -0.5316    0.9973   -3.1617   C.3       1 RES1   0.0000
   352 O8       -1.0453    0.0250   -2.2568   O.3       1 RES1   0.0000
   353 C131     -2.3791   -0.4108   -2.4669   C.3       1 RES1   0.0000
   354 C132     -2.5717   -1.4628   -1.3622   C.2       1 RES1   0.0000
   355 O9       -1.8263   -1.4009   -0.3655   O.2       1 RES1   0.0000
   356 N6       -3.4218   -2.4706   -1.5220   N.am      1 RES1   0.0000
   357 C133     -3.0728   -3.7353   -0.8778   C.3       1 RES1   0.0000
   358 C134     -3.7299   -4.1761    0.4299   C.3       1 RES1   0.0000
   359 C135     -3.3342   -5.6395    0.6525   C.3       1 RES1   0.0000
   360 C136     -4.1036   -6.3581    1.7582   C.3       1 RES1   0.0000
   361 C137     -3.8574   -5.8218    3.1641   C.3       1 RES1   0.0000
   362 C138     -4.2950   -6.8011    4.2500   C.3       1 RES1   0.0000
   363 C139     -5.7822   -7.1450    4.2633   C.3       1 RES1   0.0000
   364 C140     -6.7106   -5.9435    4.4838   C.3       1 RES1   0.0000
   365 C141     -7.2750   -5.3582    3.1889   C.3       1 RES1   0.0000
   366 C142     -8.3899   -4.3386    3.4220   C.3       1 RES1   0.0000
   367 C143     -7.9049   -3.0521    4.0852   C.3       1 RES1   0.0000
   368 C144     -8.9594   -1.9537    4.0291   C.3       1 RES1   0.0000
   369 C145     -4.4731   -2.5098   -2.5264   C.3       1 RES1   0.0000
   370 C146     -5.8055   -2.9884   -1.9452   C.3       1 RES1   0.0000
   371 C147     -6.2897   -2.1554   -0.7547   C.3       1 RES1   0.0000
   372 C148     -6.6882   -0.7280   -1.1313   C.3       1 RES1   0.0000
   373 C149     -7.5623   -0.0420   -0.0738   C.3       1 RES1   0.0000
   374 C150     -6.8461    0.7724    1.0056   C.3       1 RES1   0.0000
   375 C151     -6.0548   -0.0220    2.0559   C.3       1 RES1   0.0000
   376 C152     -6.0513    0.7235    3.4006   C.3       1 RES1   0.0000
   377 C153     -4.9389    0.3659    4.3938   C.3       1 RES1   0.0000
   378 C154     -5.1178   -0.9508    5.1449   C.3       1 RES1   0.0000
   379 C155     -3.9862   -1.1619    6.1521   C.3       1 RES1   0.0000
   380 C156     -4.1335   -2.4581    6.9352   C.3       1 RES1   0.0000
   381 H209      2.1471   10.0494    5.0100   H         1 RES1   0.0000
   382 H210      0.9876    8.9889    4.2032   H         1 RES1   0.0000
   383 H211      2.1496    9.9283    3.2549   H         1 RES1   0.0000
   384 H212      4.0237    8.6148    4.3377   H         1 RES1   0.0000
   385 H213      2.8115    7.6395    5.1734   H         1 RES1   0.0000
   386 H214      3.2373    7.8382    2.1563   H         1 RES1   0.0000
   387 H215      1.8511    7.0525    2.9097   H         1 RES1   0.0000
   388 H216      3.3063    5.4222    4.0061   H         1 RES1   0.0000
   389 H217      4.7419    6.1864    3.3221   H         1 RES1   0.0000
   390 H218      4.0565    5.6511    1.0626   H         1 RES1   0.0000
   391 H219      2.4697    5.1458    1.5822   H         1 RES1   0.0000
   392 H220      3.3059    3.0276    1.4969   H         1 RES1   0.0000
   393 H221      4.0203    3.4415    3.0477   H         1 RES1   0.0000
   394 H222      5.8449    2.5668    1.8440   H         1 RES1   0.0000
   395 H223      6.0521    4.2946    1.6936   H         1 RES1   0.0000
   396 H224      6.0398    4.0811   -0.5797   H         1 RES1   0.0000
   397 H225      4.3932    3.4810   -0.4847   H         1 RES1   0.0000
   398 H226      5.5725    1.1709    0.0520   H         1 RES1   0.0000
   399 H227      6.9846    1.9332   -0.6306   H         1 RES1   0.0000
   400 H228      5.6136    0.5219   -2.2095   H         1 RES1   0.0000
   401 H229      6.0047    2.1213   -2.8058   H         1 RES1   0.0000
   402 H230      3.8178    2.8797   -2.6915   H         1 RES1   0.0000
   403 H231      3.3925    1.8215   -1.3337   H         1 RES1   0.0000
   404 H232      3.1371   -0.0838   -2.7301   H         1 RES1   0.0000
   405 H233      3.8553    0.7200   -4.1254   H         1 RES1   0.0000
   406 H234      1.3107    3.0106   -4.6047   H         1 RES1   0.0000
   407 H235      0.8772    1.5108   -5.4445   H         1 RES1   0.0000
   408 H236      2.9710    1.3693   -6.4941   H         1 RES1   0.0000
   409 H237      3.7990    2.2851   -5.2316   H         1 RES1   0.0000
   410 H238      3.6806    3.6071   -7.2192   H         1 RES1   0.0000
   411 H239      2.8329    4.3474   -5.8682   H         1 RES1   0.0000
   412 H240      0.6766    3.3208   -6.8881   H         1 RES1   0.0000
   413 H241      1.6309    3.0877   -8.3492   H         1 RES1   0.0000
   414 H242      2.1126    5.4968   -8.4539   H         1 RES1   0.0000
   415 H243      1.3470    5.7589   -6.8940   H         1 RES1   0.0000
   416 H244     -0.1154    4.7437   -9.3553   H         1 RES1   0.0000
   417 H245     -0.0803    6.4275   -8.8477   H         1 RES1   0.0000
   418 H246     -1.2817    5.9502   -6.8095   H         1 RES1   0.0000
   419 H247     -1.0786    4.2157   -7.0202   H         1 RES1   0.0000
   420 H248     -2.3871    4.5987   -9.2849   H         1 RES1   0.0000
   421 H249     -2.9388    6.0607   -8.4951   H         1 RES1   0.0000
   422 H250     -4.5613    4.3473   -8.1050   H         1 RES1   0.0000
   423 H251     -3.7732    4.7196   -6.5766   H         1 RES1   0.0000
   424 H252     -4.1905    2.3537   -6.8064   H         1 RES1   0.0000
   425 H253     -2.4625    2.6462   -6.6897   H         1 RES1   0.0000
   426 H254     -3.6786    2.3947   -9.4358   H         1 RES1   0.0000
   427 H255     -3.5143    0.9397   -8.4684   H         1 RES1   0.0000
   428 H256     -1.2128    2.7533   -9.2928   H         1 RES1   0.0000
   429 H257     -1.5766    1.1504   -9.9067   H         1 RES1   0.0000
   430 H258     -1.0618    1.3545   -8.2338   H         1 RES1   0.0000
   431 H259     -1.0197    1.9692   -3.0160   H         1 RES1   0.0000
   432 H260     -0.6718    0.6705   -4.1974   H         1 RES1   0.0000
   433 H261     -2.4796   -0.8629   -3.4624   H         1 RES1   0.0000
   434 H262     -3.0989    0.4108   -2.3569   H         1 RES1   0.0000
   435 H263     -3.2819   -4.5028   -1.6260   H         1 RES1   0.0000
   436 H264     -1.9912   -3.7018   -0.7120   H         1 RES1   0.0000
   437 H265     -4.8113   -4.1132    0.3630   H         1 RES1   0.0000
   438 H266     -3.3949   -3.5455    1.2544   H         1 RES1   0.0000
   439 H267     -2.2632   -5.7021    0.8489   H         1 RES1   0.0000
   440 H268     -3.5260   -6.1850   -0.2748   H         1 RES1   0.0000
   441 H269     -3.8025   -7.4065    1.7340   H         1 RES1   0.0000
   442 H270     -5.1685   -6.3176    1.5343   H         1 RES1   0.0000
   443 H271     -4.3513   -4.8586    3.2981   H         1 RES1   0.0000
   444 H272     -2.7862   -5.6675    3.3059   H         1 RES1   0.0000
   445 H273     -4.0221   -6.3840    5.2214   H         1 RES1   0.0000
   446 H274     -3.7265   -7.7264    4.1299   H         1 RES1   0.0000
   447 H275     -5.9280   -7.8599    5.0739   H         1 RES1   0.0000
   448 H276     -6.0505   -7.6527    3.3363   H         1 RES1   0.0000
   449 H277     -6.1790   -5.1691    5.0402   H         1 RES1   0.0000
   450 H278     -7.5523   -6.2617    5.0989   H         1 RES1   0.0000
   451 H279     -7.6848   -6.1694    2.5833   H         1 RES1   0.0000
   452 H280     -6.4806   -4.8789    2.6113   H         1 RES1   0.0000
   453 H281     -9.1696   -4.7879    4.0380   H         1 RES1   0.0000
   454 H282     -8.8384   -4.0846    2.4574   H         1 RES1   0.0000
   455 H283     -7.0018   -2.7052    3.5756   H         1 RES1   0.0000
   456 H284     -7.6416   -3.2498    5.1243   H         1 RES1   0.0000
   457 H285     -9.1637   -1.6705    2.9978   H         1 RES1   0.0000
   458 H286     -8.6312   -1.0697    4.5730   H         1 RES1   0.0000
   459 H287     -9.8893   -2.2985    4.4715   H         1 RES1   0.0000
   460 H288     -4.1738   -3.1905   -3.3306   H         1 RES1   0.0000
   461 H289     -4.6060   -1.5136   -2.9429   H         1 RES1   0.0000
   462 H290     -5.7266   -4.0369   -1.6571   H         1 RES1   0.0000
   463 H291     -6.5448   -2.9389   -2.7457   H         1 RES1   0.0000
   464 H292     -5.5186   -2.1210    0.0167   H         1 RES1   0.0000
   465 H293     -7.1636   -2.6609   -0.3388   H         1 RES1   0.0000
   466 H294     -7.2600   -0.7691   -2.0601   H         1 RES1   0.0000
   467 H295     -5.7927   -0.1300   -1.3238   H         1 RES1   0.0000
   468 H296     -8.1904   -0.7887    0.4114   H         1 RES1   0.0000
   469 H297     -8.2356    0.6449   -0.5876   H         1 RES1   0.0000
   470 H298     -7.6270    1.3264    1.5303   H         1 RES1   0.0000
   471 H299     -6.1867    1.5057    0.5313   H         1 RES1   0.0000
   472 H300     -5.0286   -0.1902    1.7052   H         1 RES1   0.0000
   473 H301     -6.5149   -0.9993    2.1904   H         1 RES1   0.0000
   474 H302     -7.0108    0.5535    3.8882   H         1 RES1   0.0000
   475 H303     -5.9866    1.7978    3.2034   H         1 RES1   0.0000
   476 H304     -4.8819    1.1639    5.1376   H         1 RES1   0.0000
   477 H305     -3.9732    0.3483    3.8849   H         1 RES1   0.0000
   478 H306     -5.1418   -1.7839    4.4390   H         1 RES1   0.0000
   479 H307     -6.0700   -0.9318    5.6756   H         1 RES1   0.0000
   480 H308     -3.9672   -0.3216    6.8469   H         1 RES1   0.0000
   481 H309     -3.0248   -1.1632    5.6264   H         1 RES1   0.0000
   482 H310     -5.0568   -2.4560    7.5049   H         1 RES1   0.0000
   483 H311     -3.3057   -2.5765    7.6283   H         1 RES1   0.0000
   484 H312     -4.1516   -3.3146    6.2658   H         1 RES1   0.0000
@<TRIPOS>BOND
     1     1    28    1
     2     1    30    1
     3     1    33    1
     4     1   189    1
     5     1   191    1
     6     1   194    1
     7     1   350    1
     8     1   352    1
     9     1   355    1
    10     2     3    1
    11     2    59    1
    12     2    60    1
    13     2    61    1
    14     3     4    1
    15     3    62    1
    16     3    63    1
    17     4     5    1
    18     4    64    1
    19     4    65    1
    20     5     6    1
    21     5    66    1
    22     5    67    1
    23     6     7    1
    24     6    68    1
    25     6    69    1
    26     7     8    1
    27     7    70    1
    28     7    71    1
    29     8     9    1
    30     8    72    1
    31     8    73    1
    32     9    10    1
    33     9    74    1
    34     9    75    1
    35    10    11    1
    36    10    76    1
    37    10    77    1
    38    11    12    1
    39    11    78    1
    40    11    79    1
    41    12    13    1
    42    12    80    1
    43    12    81    1
    44    13    14    1
    45    13    82    1
    46    13    83    1
    47    14    15    1
    48    14    27    1
    49    15    16    1
    50    15    84    1
    51    15    85    1
    52    16    17    1
    53    16    86    1
    54    16    87    1
    55    17    18    1
    56    17    88    1
    57    17    89    1
    58    18    19    1
    59    18    90    1
    60    18    91    1
    61    19    20    1
    62    19    92    1
    63    19    93    1
    64    20    21    1
    65    20    94    1
    66    20    95    1
    67    21    22    1
    68    21    96    1
    69    21    97    1
    70    22    23    1
    71    22    98    1
    72    22    99    1
    73    23    24    1
    74    23   100    1
    75    23   101    1
    76    24    25    1
    77    24   102    1
    78    24   103    1
    79    25    26    1
    80    25   104    1
    81    25   105    1
    82    26   106    1
    83    26   107    1
    84    26   108    1
    85    27    28    2
    86    27    29    1
    87    29    30    1
    88    29   109    1
    89    29   110    1
    90    30    31    1
    91    31    32    1
    92    31   111    1
    93    31   112    1
    94    32    33    2
    95    32    34    1
    96    34    35    1
    97    34    47    1
    98    35    36    1
    99    35   113    1
   100    35   114    1
   101    36    37    1
   102    36   115    1
   103    36   116    1
   104    37    38    1
   105    37   117    1
   106    37   118    1
   107    38    39    1
   108    38   119    1
   109    38   120    1
   110    39    40    1
   111    39   121    1
   112    39   122    1
   113    40    41    1
   114    40   123    1
   115    40   124    1
   116    41    42    1
   117    41   125    1
   118    41   126    1
   119    42    43    1
   120    42   127    1
   121    42   128    1
   122    43    44    1
   123    43   129    1
   124    43   130    1
   125    44    45    1
   126    44   131    1
   127    44   132    1
   128    45    46    1
   129    45   133    1
   130    45   134    1
   131    46   135    1
   132    46   136    1
   133    46   137    1
   134    47    48    1
   135    47   138    1
   136    47   139    1
   137    48    49    1
   138    48   140    1
   139    48   141    1
   140    49    50    1
   141    49   142    1
   142    49   143    1
   143    50    51    1
   144    50   144    1
   145    50   145    1
   146    51    52    1
   147    51   146    1
   148    51   147    1
   149    52    53    1
   150    52   148    1
   151    52   149    1
   152    53    54    1
   153    53   150    1
   154    53   151    1
   155    54    55    1
   156    54   152    1
   157    54   153    1
   158    55    56    1
   159    55   154    1
   160    55   155    1
   161    56    57    1
   162    56   156    1
   163    56   157    1
   164    57    58    1
   165    57   158    1
   166    57   159    1
   167    58   160    1
   168    58   161    1
   169    58   162    1
   170   163   164    1
   171   163   220    1
   172   163   221    1
   173   163   222    1
   174   164   165    1
   175   164   223    1
   176   164   224    1
   177   165   166    1
   178   165   225    1
   179   165   226    1
   180   166   167    1
   181   166   227    1
   182   166   228    1
   183   167   168    1
   184   167   229    1
   185   167   230    1
   186   168   169    1
   187   168   231    1
   188   168   232    1
   189   169   170    1
   190   169   233    1
   191   169   234    1
   192   170   171    1
   193   170   235    1
   194   170   236    1
   195   171   172    1
   196   171   237    1
   197   171   238    1
   198   172   173    1
   199   172   239    1
   200   172   240    1
   201   173   174    1
   202   173   241    1
   203   173   242    1
   204   174   175    1
   205   174   243    1
   206   174   244    1
   207   175   176    1
   208   175   188    1
   209   176   177    1
   210   176   245    1
   211   176   246    1
   212   177   178    1
   213   177   247    1
   214   177   248    1
   215   178   179    1
   216   178   249    1
   217   178   250    1
   218   179   180    1
   219   179   251    1
   220   179   252    1
   221   180   181    1
   222   180   253    1
   223   180   254    1
   224   181   182    1
   225   181   255    1
   226   181   256    1
   227   182   183    1
   228   182   257    1
   229   182   258    1
   230   183   184    1
   231   183   259    1
   232   183   260    1
   233   184   185    1
   234   184   261    1
   235   184   262    1
   236   185   186    1
   237   185   263    1
   238   185   264    1
   239   186   187    1
   240   186   265    1
   241   186   266    1
   242   187   267    1
   243   187   268    1
   244   187   269    1
   245   188   189    2
   246   188   190    1
   247   190   191    1
   248   190   270    1
   249   190   271    1
   250   191   192    1
   251   192   193    1
   252   192   272    1
   253   192   273    1
   254   193   194    2
   255   193   195    1
   256   195   196    1
   257   195   208    1
   258   196   197    1
   259   196   274    1
   260   196   275    1
   261   197   198    1
   262   197   276    1
   263   197   277    1
   264   198   199    1
   265   198   278    1
   266   198   279    1
   267   199   200    1
   268   199   280    1
   269   199   281    1
   270   200   201    1
   271   200   282    1
   272   200   283    1
   273   201   202    1
   274   201   284    1
   275   201   285    1
   276   202   203    1
   277   202   286    1
   278   202   287    1
   279   203   204    1
   280   203   288    1
   281   203   289    1
   282   204   205    1
   283   204   290    1
   284   204   291    1
   285   205   206    1
   286   205   292    1
   287   205   293    1
   288   206   207    1
   289   206   294    1
   290   206   295    1
   291   207   296    1
   292   207   297    1
   293   207   298    1
   294   208   209    1
   295   208   299    1
   296   208   300    1
   297   209   210    1
   298   209   301    1
   299   209   302    1
   300   210   211    1
   301   210   303    1
   302   210   304    1
   303   211   212    1
   304   211   305    1
   305   211   306    1
   306   212   213    1
   307   212   307    1
   308   212   308    1
   309   213   214    1
   310   213   309    1
   311   213   310    1
   312   214   215    1
   313   214   311    1
   314   214   312    1
   315   215   216    1
   316   215   313    1
   317   215   314    1
   318   216   217    1
   319   216   315    1
   320   216   316    1
   321   217   218    1
   322   217   317    1
   323   217   318    1
   324   218   219    1
   325   218   319    1
   326   218   320    1
   327   219   321    1
   328   219   322    1
   329   219   323    1
   330   324   325    1
   331   324   381    1
   332   324   382    1
   333   324   383    1
   334   325   326    1
   335   325   384    1
   336   325   385    1
   337   326   327    1
   338   326   386    1
   339   326   387    1
   340   327   328    1
   341   327   388    1
   342   327   389    1
   343   328   329    1
   344   328   390    1
   345   328   391    1
   346   329   330    1
   347   329   392    1
   348   329   393    1
   349   330   331    1
   350   330   394    1
   351   330   395    1
   352   331   332    1
   353   331   396    1
   354   331   397    1
   355   332   333    1
   356   332   398    1
   357   332   399    1
   358   333   334    1
   359   333   400    1
   360   333   401    1
   361   334   335    1
   362   334   402    1
   363   334   403    1
   364   335   336    1
   365   335   404    1
   366   335   405    1
   367   336   337    1
   368   336   349    1
   369   337   338    1
   370   337   406    1
   371   337   407    1
   372   338   339    1
   373   338   408    1
   374   338   409    1
   375   339   340    1
   376   339   410    1
   377   339   411    1
   378   340   341    1
   379   340   412    1
   380   340   413    1
   381   341   342    1
   382   341   414    1
   383   341   415    1
   384   342   343    1
   385   342   416    1
   386   342   417    1
   387   343   344    1
   388   343   418    1
   389   343   419    1
   390   344   345    1
   391   344   420    1
   392   344   421    1
   393   345   346    1
   394   345   422    1
   395   345   423    1
   396   346   347    1
   397   346   424    1
   398   346   425    1
   399   347   348    1
   400   347   426    1
   401   347   427    1
   402   348   428    1
   403   348   429    1
   404   348   430    1
   405   349   350    2
   406   349   351    1
   407   351   352    1
   408   351   431    1
   409   351   432    1
   410   352   353    1
   411   353   354    1
   412   353   433    1
   413   353   434    1
   414   354   355    2
   415   354   356    1
   416   356   357    1
   417   356   369    1
   418   357   358    1
   419   357   435    1
   420   357   436    1
   421   358   359    1
   422   358   437    1
   423   358   438    1
   424   359   360    1
   425   359   439    1
   426   359   440    1
   427   360   361    1
   428   360   441    1
   429   360   442    1
   430   361   362    1
   431   361   443    1
   432   361   444    1
   433   362   363    1
   434   362   445    1
   435   362   446    1
   436   363   364    1
   437   363   447    1
   438   363   448    1
   439   364   365    1
   440   364   449    1
   441   364   450    1
   442   365   366    1
   443   365   451    1
   444   365   452    1
   445   366   367    1
   446   366   453    1
   447   366   454    1
   448   367   368    1
   449   367   455    1
   450   367   456    1
   451   368   457    1
   452   368   458    1
   453   368   459    1
   454   369   370    1
   455   369   460    1
   456   369   461    1
   457   370   371    1
   458   370   462    1
   459   370   463    1
   460   371   372    1
   461   371   464    1
   462   371   465    1
   463   372   373    1
   464   372   466    1
   465   372   467    1
   466   373   374    1
   467   373   468    1
   468   373   469    1
   469   374   375    1
   470   374   470    1
   471   374   471    1
   472   375   376    1
   473   375   472    1
   474   375   473    1
   475   376   377    1
   476   376   474    1
   477   376   475    1
   478   377   378    1
   479   377   476    1
   480   377   477    1
   481   378   379    1
   482   378   478    1
   483   378   479    1
   484   379   380    1
   485   379   480    1
   486   379   481    1
   487   380   482    1
   488   380   483    1
   489   380   484    1
@<TRIPOS>SUBSTRUCTURE
     1 RES1      484 GROUP             0 ****  ****    0  
