@<TRIPOS>MOLECULE
am_c3_9H2O_c0_0_nunpairedes_0_charge_3 Charge: 3 Unpaired_Electrons: 7 XTB_Unpaired_Electrons: 0 XTB_Charge: 3
   361   369     1     0     0
SMALL
NoCharges
****
Generated from Architector

@<TRIPOS>ATOM
     1 Gd1       0.2154   -0.2534    0.0440   Gd        1 RES1   0.0000
     2 C1       -6.1532   -5.2081   -3.7013   C.3       1 RES1   0.0000
     3 C2       -6.9569   -6.1283   -2.7914   C.3       1 RES1   0.0000
     4 C3       -6.1664   -7.3423   -2.2992   C.3       1 RES1   0.0000
     5 C4       -4.9688   -6.9937   -1.3994   C.3       1 RES1   0.0000
     6 C5       -3.6237   -7.1305   -2.1102   C.3       1 RES1   0.0000
     7 C6       -2.4352   -6.7268   -1.2309   C.3       1 RES1   0.0000
     8 C7       -2.3757   -5.2352   -0.8705   C.3       1 RES1   0.0000
     9 C8       -2.4532   -4.3693   -2.1148   C.3       1 RES1   0.0000
    10 P1       -1.6145   -2.7300   -2.0889   P.3       1 RES1   0.0000
    11 O1       -0.7018   -2.4698   -0.9335   O.2       1 RES1   0.0000
    12 C9       -0.6713   -2.7662   -3.6741   C.3       1 RES1   0.0000
    13 C10      -1.3583   -3.3980   -4.8874   C.3       1 RES1   0.0000
    14 C11      -0.6142   -3.1507   -6.2071   C.3       1 RES1   0.0000
    15 C12      -1.0946   -1.9089   -6.9552   C.3       1 RES1   0.0000
    16 C13      -0.6601   -0.5773   -6.3435   C.3       1 RES1   0.0000
    17 C14       0.8621   -0.4592   -6.3083   C.3       1 RES1   0.0000
    18 C15       1.4443    0.9544   -6.2480   C.3       1 RES1   0.0000
    19 C16       2.7469    1.0465   -7.0418   C.3       1 RES1   0.0000
    20 C17      -2.9167   -1.3922   -2.1058   C.3       1 RES1   0.0000
    21 C18      -3.6448   -1.3835   -0.8021   C.ar      1 RES1   0.0000
    22 C19      -4.7886   -2.1346   -0.5963   C.ar      1 RES1   0.0000
    23 C20      -5.4344   -2.1138    0.6278   C.ar      1 RES1   0.0000
    24 C21      -4.9430   -1.2760    1.6123   C.ar      1 RES1   0.0000
    25 C22      -3.8137   -0.5051    1.3849   C.ar      1 RES1   0.0000
    26 C23      -3.2845    0.3762    2.4735   C.3       1 RES1   0.0000
    27 P2       -2.0291    1.7345    2.2650   P.3       1 RES1   0.0000
    28 O2       -0.6356    1.3467    1.8730   O.2       1 RES1   0.0000
    29 C24      -2.0580    2.5669    3.9161   C.3       1 RES1   0.0000
    30 C25      -2.0915    1.7392    5.2025   C.3       1 RES1   0.0000
    31 C26      -3.0884    2.3236    6.2171   C.3       1 RES1   0.0000
    32 C27      -4.5632    2.0325    5.9168   C.3       1 RES1   0.0000
    33 C28      -4.9583    0.5724    6.1405   C.3       1 RES1   0.0000
    34 C29      -6.4427    0.3003    5.8701   C.3       1 RES1   0.0000
    35 C30      -7.3372    0.8267    6.9915   C.3       1 RES1   0.0000
    36 C31      -8.7927    0.4473    6.7729   C.3       1 RES1   0.0000
    37 C32      -2.7395    3.0211    1.1579   C.3       1 RES1   0.0000
    38 C33      -3.6820    4.1088    1.6930   C.3       1 RES1   0.0000
    39 C34      -5.0823    3.6513    2.1090   C.3       1 RES1   0.0000
    40 C35      -6.0262    4.8586    2.2049   C.3       1 RES1   0.0000
    41 C36      -7.4264    4.5536    2.7563   C.3       1 RES1   0.0000
    42 C37      -8.1038    3.2991    2.2090   C.3       1 RES1   0.0000
    43 C38      -8.2533    3.2762    0.6906   C.3       1 RES1   0.0000
    44 C39      -8.6937    1.8940    0.2292   C.3       1 RES1   0.0000
    45 N1       -3.1527   -0.6212    0.2120   N.ar      1 RES1   0.0000
    46 O3       -2.0650    0.0591    0.0522   O.co2     1 RES1   0.0000
    47 H1       -6.7558   -4.3591   -4.0187   H         1 RES1   0.0000
    48 H2       -5.8263   -5.7477   -4.5871   H         1 RES1   0.0000
    49 H3       -5.2728   -4.8262   -3.1861   H         1 RES1   0.0000
    50 H4       -7.8266   -6.4885   -3.3408   H         1 RES1   0.0000
    51 H5       -7.3309   -5.5631   -1.9344   H         1 RES1   0.0000
    52 H6       -5.8180   -7.9110   -3.1623   H         1 RES1   0.0000
    53 H7       -6.8551   -7.9859   -1.7504   H         1 RES1   0.0000
    54 H8       -4.9589   -7.6616   -0.5367   H         1 RES1   0.0000
    55 H9       -5.0839   -5.9760   -1.0207   H         1 RES1   0.0000
    56 H10      -3.6231   -6.5429   -3.0280   H         1 RES1   0.0000
    57 H11      -3.5004   -8.1744   -2.4054   H         1 RES1   0.0000
    58 H12      -1.5147   -6.9884   -1.7591   H         1 RES1   0.0000
    59 H13      -2.4669   -7.3093   -0.3082   H         1 RES1   0.0000
    60 H14      -1.4288   -5.0353   -0.3692   H         1 RES1   0.0000
    61 H15      -3.1764   -4.9780   -0.1817   H         1 RES1   0.0000
    62 H16      -3.4858   -4.2227   -2.4215   H         1 RES1   0.0000
    63 H17      -1.9644   -4.9124   -2.9230   H         1 RES1   0.0000
    64 H18       0.2068   -3.3612   -3.3976   H         1 RES1   0.0000
    65 H19      -0.3163   -1.7570   -3.8782   H         1 RES1   0.0000
    66 H20      -2.3753   -3.0214   -4.9856   H         1 RES1   0.0000
    67 H21      -1.4199   -4.4788   -4.7527   H         1 RES1   0.0000
    68 H22      -0.7752   -4.0023   -6.8727   H         1 RES1   0.0000
    69 H23       0.4575   -3.0870   -6.0135   H         1 RES1   0.0000
    70 H24      -2.1851   -1.9373   -7.0269   H         1 RES1   0.0000
    71 H25      -0.7048   -1.9580   -7.9743   H         1 RES1   0.0000
    72 H26      -1.0692   -0.4609   -5.3397   H         1 RES1   0.0000
    73 H27      -1.0842    0.2141   -6.9602   H         1 RES1   0.0000
    74 H28       1.2364   -0.9373   -7.2113   H         1 RES1   0.0000
    75 H29       1.2139   -1.0180   -5.4472   H         1 RES1   0.0000
    76 H30       1.6094    1.2657   -5.2089   H         1 RES1   0.0000
    77 H31       0.7444    1.6520   -6.6950   H         1 RES1   0.0000
    78 H32       3.4656    0.2966   -6.7044   H         1 RES1   0.0000
    79 H33       3.2002    2.0320   -6.9248   H         1 RES1   0.0000
    80 H34       2.5436    0.8796   -8.1002   H         1 RES1   0.0000
    81 H35      -3.6098   -1.5819   -2.9229   H         1 RES1   0.0000
    82 H36      -2.3918   -0.4394   -2.2578   H         1 RES1   0.0000
    83 H37      -5.1737   -2.7429   -1.4007   H         1 RES1   0.0000
    84 H38      -6.3027   -2.7262    0.8150   H         1 RES1   0.0000
    85 H39      -5.4367   -1.2146    2.5676   H         1 RES1   0.0000
    86 H40      -2.8520   -0.2911    3.2278   H         1 RES1   0.0000
    87 H41      -4.1274    0.8973    2.9352   H         1 RES1   0.0000
    88 H42      -2.9467    3.1920    3.9159   H         1 RES1   0.0000
    89 H43      -1.1979    3.2426    3.9129   H         1 RES1   0.0000
    90 H44      -1.0934    1.7225    5.6427   H         1 RES1   0.0000
    91 H45      -2.3752    0.7092    4.9947   H         1 RES1   0.0000
    92 H46      -2.9413    3.4060    6.2584   H         1 RES1   0.0000
    93 H47      -2.8531    1.9216    7.2034   H         1 RES1   0.0000
    94 H48      -4.8024    2.3269    4.8918   H         1 RES1   0.0000
    95 H49      -5.1717    2.6544    6.5730   H         1 RES1   0.0000
    96 H50      -4.7493    0.3035    7.1793   H         1 RES1   0.0000
    97 H51      -4.3552   -0.0756    5.4966   H         1 RES1   0.0000
    98 H52      -6.5932   -0.7814    5.7904   H         1 RES1   0.0000
    99 H53      -6.7418    0.7394    4.9107   H         1 RES1   0.0000
   100 H54      -7.2493    1.9115    7.0594   H         1 RES1   0.0000
   101 H55      -6.9950    0.4066    7.9391   H         1 RES1   0.0000
   102 H56      -9.1673    0.8811    5.8493   H         1 RES1   0.0000
   103 H57      -9.4009    0.8095    7.5949   H         1 RES1   0.0000
   104 H58      -8.8976   -0.6334    6.7185   H         1 RES1   0.0000
   105 H59      -3.2167    2.4687    0.3503   H         1 RES1   0.0000
   106 H60      -1.8565    3.5041    0.7262   H         1 RES1   0.0000
   107 H61      -3.8269    4.8296    0.8857   H         1 RES1   0.0000
   108 H62      -3.2160    4.6662    2.5085   H         1 RES1   0.0000
   109 H63      -5.0594    3.1423    3.0742   H         1 RES1   0.0000
   110 H64      -5.4636    2.9457    1.3679   H         1 RES1   0.0000
   111 H65      -6.1196    5.3085    1.2138   H         1 RES1   0.0000
   112 H66      -5.5762    5.6122    2.8574   H         1 RES1   0.0000
   113 H67      -8.0591    5.4148    2.5374   H         1 RES1   0.0000
   114 H68      -7.3706    4.4646    3.8436   H         1 RES1   0.0000
   115 H69      -9.0960    3.2326    2.6593   H         1 RES1   0.0000
   116 H70      -7.5469    2.4159    2.5317   H         1 RES1   0.0000
   117 H71      -7.3075    3.5364    0.2119   H         1 RES1   0.0000
   118 H72      -8.9884    4.0206    0.3862   H         1 RES1   0.0000
   119 H73      -7.9945    1.1384    0.5883   H         1 RES1   0.0000
   120 H74      -8.7385    1.8349   -0.8544   H         1 RES1   0.0000
   121 H75      -9.6772    1.6606    0.6267   H         1 RES1   0.0000
   122 C40      -1.8656    8.3535   -3.6206   C.3       1 RES1   0.0000
   123 C41      -2.6639    9.3482   -2.7885   C.3       1 RES1   0.0000
   124 C42      -4.1027    8.8897   -2.5334   C.3       1 RES1   0.0000
   125 C43      -4.2059    7.5169   -1.8370   C.3       1 RES1   0.0000
   126 C44      -4.6917    6.4124   -2.7792   C.3       1 RES1   0.0000
   127 C45      -4.8028    5.0182   -2.1521   C.3       1 RES1   0.0000
   128 C46      -3.4853    4.3564   -1.7204   C.3       1 RES1   0.0000
   129 C47      -2.4671    4.2276   -2.8425   C.3       1 RES1   0.0000
   130 P3       -1.3011    2.7766   -2.7892   P.3       1 RES1   0.0000
   131 O4       -1.5982    1.6440   -1.8678   O.2       1 RES1   0.0000
   132 C48      -1.3853    2.2401   -4.5449   C.3       1 RES1   0.0000
   133 C49      -1.3316    3.3057   -5.6460   C.3       1 RES1   0.0000
   134 C50      -2.2496    2.9330   -6.8183   C.3       1 RES1   0.0000
   135 C51      -2.0292    3.7714   -8.0860   C.3       1 RES1   0.0000
   136 C52      -0.6317    3.6842   -8.7049   C.3       1 RES1   0.0000
   137 C53      -0.1775    2.2865   -9.1284   C.3       1 RES1   0.0000
   138 C54      -0.8915    1.6965  -10.3446   C.3       1 RES1   0.0000
   139 C55      -0.0440    0.5791  -10.9451   C.3       1 RES1   0.0000
   140 C56       0.4591    3.2863   -2.3913   C.3       1 RES1   0.0000
   141 C57       0.6111    3.8047   -1.0012   C.ar      1 RES1   0.0000
   142 C58       0.2422    5.1143   -0.7455   C.ar      1 RES1   0.0000
   143 C59       0.4316    5.6723    0.5053   C.ar      1 RES1   0.0000
   144 C60       1.0013    4.8750    1.4800   C.ar      1 RES1   0.0000
   145 C61       1.3665    3.5589    1.2162   C.ar      1 RES1   0.0000
   146 C62       1.9517    2.8068    2.3721   C.3       1 RES1   0.0000
   147 P4        2.6249    1.0797    2.4050   P.3       1 RES1   0.0000
   148 O5        1.7303   -0.0141    1.9011   O.2       1 RES1   0.0000
   149 C63       3.0474    0.8239    4.1906   C.3       1 RES1   0.0000
   150 C64       2.2120    1.4780    5.2998   C.3       1 RES1   0.0000
   151 C65       3.1120    2.1065    6.3690   C.3       1 RES1   0.0000
   152 C66       3.7791    3.4150    5.9428   C.3       1 RES1   0.0000
   153 C67       2.8193    4.6040    5.9531   C.3       1 RES1   0.0000
   154 C68       3.5194    5.9503    5.7290   C.3       1 RES1   0.0000
   155 C69       4.3848    6.3817    6.9174   C.3       1 RES1   0.0000
   156 C70       4.8858    7.8121    6.7678   C.3       1 RES1   0.0000
   157 C71       4.2404    1.0359    1.5454   C.3       1 RES1   0.0000
   158 C72       5.3952    1.8977    2.0621   C.3       1 RES1   0.0000
   159 C73       6.0972    2.5663    0.8765   C.3       1 RES1   0.0000
   160 C74       7.3116    3.4134    1.2591   C.3       1 RES1   0.0000
   161 C75       7.0358    4.5298    2.2709   C.3       1 RES1   0.0000
   162 C76       5.8019    5.3932    1.9917   C.3       1 RES1   0.0000
   163 C77       5.8029    6.0924    0.6334   C.3       1 RES1   0.0000
   164 C78       4.6498    7.0808    0.5075   C.3       1 RES1   0.0000
   165 N2        1.1387    3.0262   -0.0067   N.ar      1 RES1   0.0000
   166 O6        1.4821    1.7890   -0.2517   O.co2     1 RES1   0.0000
   167 H76      -0.8565    8.7165   -3.8016   H         1 RES1   0.0000
   168 H77      -2.3529    8.1913   -4.5789   H         1 RES1   0.0000
   169 H78      -1.7921    7.3978   -3.1043   H         1 RES1   0.0000
   170 H79      -2.6938   10.3051   -3.3098   H         1 RES1   0.0000
   171 H80      -2.1564    9.5210   -1.8369   H         1 RES1   0.0000
   172 H81      -4.6345    8.8547   -3.4861   H         1 RES1   0.0000
   173 H82      -4.5926    9.6483   -1.9204   H         1 RES1   0.0000
   174 H83      -4.9007    7.5888   -0.9984   H         1 RES1   0.0000
   175 H84      -3.2313    7.2513   -1.4231   H         1 RES1   0.0000
   176 H85      -4.0473    6.3638   -3.6590   H         1 RES1   0.0000
   177 H86      -5.6862    6.6987   -3.1283   H         1 RES1   0.0000
   178 H87      -5.2872    4.3680   -2.8846   H         1 RES1   0.0000
   179 H88      -5.4594    5.0668   -1.2775   H         1 RES1   0.0000
   180 H89      -3.7318    3.3522   -1.3676   H         1 RES1   0.0000
   181 H90      -3.0454    4.9114   -0.8931   H         1 RES1   0.0000
   182 H91      -1.8860    5.1441   -2.9550   H         1 RES1   0.0000
   183 H92      -3.0261    4.0891   -3.7719   H         1 RES1   0.0000
   184 H93      -2.3688    1.7491   -4.5651   H         1 RES1   0.0000
   185 H94      -0.6248    1.4768   -4.7119   H         1 RES1   0.0000
   186 H95      -0.3096    3.4239   -6.0011   H         1 RES1   0.0000
   187 H96      -1.6504    4.2832   -5.2842   H         1 RES1   0.0000
   188 H97      -3.2906    3.0576   -6.5007   H         1 RES1   0.0000
   189 H98      -2.1217    1.8795   -7.0631   H         1 RES1   0.0000
   190 H99      -2.2311    4.8191   -7.8502   H         1 RES1   0.0000
   191 H100     -2.7640    3.4534   -8.8304   H         1 RES1   0.0000
   192 H101      0.1118    4.0977   -8.0154   H         1 RES1   0.0000
   193 H102     -0.6298    4.3157   -9.5934   H         1 RES1   0.0000
   194 H103     -0.2907    1.5869   -8.3036   H         1 RES1   0.0000
   195 H104      0.8887    2.3458   -9.3622   H         1 RES1   0.0000
   196 H105     -1.0570    2.4715  -11.0945   H         1 RES1   0.0000
   197 H106     -1.8639    1.2973  -10.0496   H         1 RES1   0.0000
   198 H107      0.9025    0.9790  -11.3034   H         1 RES1   0.0000
   199 H108     -0.5515    0.1030  -11.7777   H         1 RES1   0.0000
   200 H109      0.1713   -0.1849  -10.1983   H         1 RES1   0.0000
   201 H110      0.7988    4.0431   -3.0981   H         1 RES1   0.0000
   202 H111      1.0319    2.3630   -2.5247   H         1 RES1   0.0000
   203 H112     -0.1751    5.7025   -1.5504   H         1 RES1   0.0000
   204 H113      0.1780    6.7006    0.7109   H         1 RES1   0.0000
   205 H114      1.1750    5.2825    2.4658   H         1 RES1   0.0000
   206 H115      1.1503    2.7705    3.1196   H         1 RES1   0.0000
   207 H116      2.7620    3.4252    2.7743   H         1 RES1   0.0000
   208 H117      4.0754    1.1695    4.2929   H         1 RES1   0.0000
   209 H118      3.0765   -0.2625    4.3188   H         1 RES1   0.0000
   210 H119      1.5720    0.7329    5.7708   H         1 RES1   0.0000
   211 H120      1.5525    2.2506    4.9092   H         1 RES1   0.0000
   212 H121      3.8800    1.3831    6.6385   H         1 RES1   0.0000
   213 H122      2.5188    2.2979    7.2642   H         1 RES1   0.0000
   214 H123      4.2301    3.3166    4.9524   H         1 RES1   0.0000
   215 H124      4.5892    3.6206    6.6399   H         1 RES1   0.0000
   216 H125      2.3091    4.6378    6.9181   H         1 RES1   0.0000
   217 H126      2.0546    4.4740    5.1789   H         1 RES1   0.0000
   218 H127      2.7508    6.7139    5.5648   H         1 RES1   0.0000
   219 H128      4.1357    5.8981    4.8238   H         1 RES1   0.0000
   220 H129      5.2427    5.7118    7.0120   H         1 RES1   0.0000
   221 H130      3.7925    6.3044    7.8323   H         1 RES1   0.0000
   222 H131      5.4945    7.9127    5.8731   H         1 RES1   0.0000
   223 H132      5.4898    8.0847    7.6268   H         1 RES1   0.0000
   224 H133      4.0551    8.5103    6.7035   H         1 RES1   0.0000
   225 H134      3.9994    1.3014    0.5150   H         1 RES1   0.0000
   226 H135      4.5205   -0.0193    1.5439   H         1 RES1   0.0000
   227 H136      6.1128    1.2783    2.6060   H         1 RES1   0.0000
   228 H137      5.0479    2.6669    2.7546   H         1 RES1   0.0000
   229 H138      5.3707    3.1895    0.3465   H         1 RES1   0.0000
   230 H139      6.4275    1.7918    0.1771   H         1 RES1   0.0000
   231 H140      7.7098    3.8499    0.3418   H         1 RES1   0.0000
   232 H141      8.0912    2.7643    1.6665   H         1 RES1   0.0000
   233 H142      7.9185    5.1710    2.2913   H         1 RES1   0.0000
   234 H143      6.9351    4.0959    3.2698   H         1 RES1   0.0000
   235 H144      5.7597    6.1536    2.7734   H         1 RES1   0.0000
   236 H145      4.8943    4.7872    2.0830   H         1 RES1   0.0000
   237 H146      5.7311    5.3502   -0.1648   H         1 RES1   0.0000
   238 H147      6.7412    6.6302    0.5000   H         1 RES1   0.0000
   239 H148      3.6935    6.5810    0.6556   H         1 RES1   0.0000
   240 H149      4.6525    7.5390   -0.4764   H         1 RES1   0.0000
   241 H150      4.7377    7.8752    1.2428   H         1 RES1   0.0000
   242 C79      -0.7922   -8.0185    4.5892   C.3       1 RES1   0.0000
   243 C80      -1.5994   -9.0010    3.7504   C.3       1 RES1   0.0000
   244 C81      -3.0507   -8.5754    3.5186   C.3       1 RES1   0.0000
   245 C82      -3.2277   -7.2442    2.7741   C.3       1 RES1   0.0000
   246 C83      -3.4619   -6.0361    3.6829   C.3       1 RES1   0.0000
   247 C84      -3.5674   -4.7351    2.8840   C.3       1 RES1   0.0000
   248 C85      -2.2209   -4.2168    2.3803   C.3       1 RES1   0.0000
   249 C86      -1.3336   -3.7233    3.5140   C.3       1 RES1   0.0000
   250 P5       -0.1591   -2.4480    2.9098   P.3       1 RES1   0.0000
   251 O7       -0.6771   -1.7150    1.7141   O.2       1 RES1   0.0000
   252 C87      -0.0082   -1.3009    4.3216   C.3       1 RES1   0.0000
   253 C88       0.2480   -1.8771    5.7157   C.3       1 RES1   0.0000
   254 C89      -0.8291   -1.4139    6.7025   C.3       1 RES1   0.0000
   255 C90      -0.5462   -1.8009    8.1554   C.3       1 RES1   0.0000
   256 C91       0.6248   -1.0339    8.7741   C.3       1 RES1   0.0000
   257 C92       0.4507    0.4805    8.7672   C.3       1 RES1   0.0000
   258 C93      -0.7130    0.9435    9.6340   C.3       1 RES1   0.0000
   259 C94      -0.7863    2.4627    9.5998   C.3       1 RES1   0.0000
   260 C95       1.4405   -3.3074    2.4918   C.3       1 RES1   0.0000
   261 C96       1.3671   -4.0386    1.1970   C.ar      1 RES1   0.0000
   262 C97       1.0098   -5.3701    1.0819   C.ar      1 RES1   0.0000
   263 C98       1.0697   -6.0061   -0.1479   C.ar      1 RES1   0.0000
   264 C99       1.5631   -5.3024   -1.2307   C.ar      1 RES1   0.0000
   265 C100      1.9432   -3.9806   -1.0840   C.ar      1 RES1   0.0000
   266 C101      2.6598   -3.2578   -2.1648   C.3       1 RES1   0.0000
   267 P6        2.6993   -1.4046   -2.2824   P.3       1 RES1   0.0000
   268 O8        1.3820   -0.6847   -2.1264   O.2       1 RES1   0.0000
   269 C102      3.4829   -1.1396   -3.9566   C.3       1 RES1   0.0000
   270 C103      3.4391   -2.2058   -5.0671   C.3       1 RES1   0.0000
   271 C104      4.7935   -2.8490   -5.4221   C.3       1 RES1   0.0000
   272 C105      4.9946   -4.2762   -4.9115   C.3       1 RES1   0.0000
   273 C106      3.9729   -5.2647   -5.4828   C.3       1 RES1   0.0000
   274 C107      4.3408   -6.7291   -5.2166   C.3       1 RES1   0.0000
   275 C108      5.3963   -7.2784   -6.1782   C.3       1 RES1   0.0000
   276 C109      5.7150   -8.7409   -5.8885   C.3       1 RES1   0.0000
   277 C110      3.9822   -0.7124   -1.1648   C.3       1 RES1   0.0000
   278 C111      5.4270   -1.1481   -1.4205   C.3       1 RES1   0.0000
   279 C112      6.1045   -1.7789   -0.2021   C.3       1 RES1   0.0000
   280 C113      7.4502   -2.4112   -0.5748   C.3       1 RES1   0.0000
   281 C114      7.3716   -3.5696   -1.5763   C.3       1 RES1   0.0000
   282 C115      6.3730   -4.6690   -1.2076   C.3       1 RES1   0.0000
   283 C116      6.6891   -5.3794    0.1071   C.3       1 RES1   0.0000
   284 C117      5.7192   -6.5245    0.3790   C.3       1 RES1   0.0000
   285 N3        1.7281   -3.3514    0.0860   N.ar      1 RES1   0.0000
   286 O9        1.9589   -2.0790    0.1509   O.co2     1 RES1   0.0000
   287 H151      0.1927   -8.4250    4.8099   H         1 RES1   0.0000
   288 H152     -1.2990   -7.8281    5.5324   H         1 RES1   0.0000
   289 H153     -0.6574   -7.0728    4.0649   H         1 RES1   0.0000
   290 H154     -1.6135   -9.9649    4.2592   H         1 RES1   0.0000
   291 H155     -1.1026   -9.1561    2.7901   H         1 RES1   0.0000
   292 H156     -3.5675   -8.5239    4.4773   H         1 RES1   0.0000
   293 H157     -3.5321   -9.3635    2.9377   H         1 RES1   0.0000
   294 H158     -4.0944   -7.3241    2.1141   H         1 RES1   0.0000
   295 H159     -2.3523   -7.0650    2.1456   H         1 RES1   0.0000
   296 H160     -2.6647   -5.9462    4.4191   H         1 RES1   0.0000
   297 H161     -4.3916   -6.1899    4.2335   H         1 RES1   0.0000
   298 H162     -4.0218   -3.9616    3.5055   H         1 RES1   0.0000
   299 H163     -4.2303   -4.8946    2.0316   H         1 RES1   0.0000
   300 H164     -2.3871   -3.3807    1.6936   H         1 RES1   0.0000
   301 H165     -1.6976   -4.9958    1.8290   H         1 RES1   0.0000
   302 H166     -0.7955   -4.5371    3.9971   H         1 RES1   0.0000
   303 H167     -1.9483   -3.2422    4.2784   H         1 RES1   0.0000
   304 H168     -1.0040   -0.8462    4.2994   H         1 RES1   0.0000
   305 H169      0.6891   -0.5179    4.0311   H         1 RES1   0.0000
   306 H170      1.2226   -1.5487    6.0728   H         1 RES1   0.0000
   307 H171      0.2600   -2.9666    5.7060   H         1 RES1   0.0000
   308 H172     -1.7974   -1.8239    6.4031   H         1 RES1   0.0000
   309 H173     -0.9215   -0.3295    6.6495   H         1 RES1   0.0000
   310 H174     -0.3418   -2.8702    8.2231   H         1 RES1   0.0000
   311 H175     -1.4469   -1.6062    8.7382   H         1 RES1   0.0000
   312 H176      1.5475   -1.2959    8.2541   H         1 RES1   0.0000
   313 H177      0.7391   -1.3517    9.8111   H         1 RES1   0.0000
   314 H178      0.3121    0.8563    7.7493   H         1 RES1   0.0000
   315 H179      1.3649    0.9403    9.1472   H         1 RES1   0.0000
   316 H180     -0.5608    0.5956   10.6554   H         1 RES1   0.0000
   317 H181     -1.6502    0.5141    9.2763   H         1 RES1   0.0000
   318 H182      0.1853    2.8790    9.8637   H         1 RES1   0.0000
   319 H183     -1.5312    2.8439   10.2934   H         1 RES1   0.0000
   320 H184     -1.0382    2.8033    8.5943   H         1 RES1   0.0000
   321 H185      1.7122   -3.9877    3.2996   H         1 RES1   0.0000
   322 H186      2.1799   -2.5053    2.3900   H         1 RES1   0.0000
   323 H187      0.6965   -5.9182    1.9540   H         1 RES1   0.0000
   324 H188      0.7779   -7.0359   -0.2649   H         1 RES1   0.0000
   325 H189      1.6753   -5.7796   -2.1912   H         1 RES1   0.0000
   326 H190      2.3227   -3.6547   -3.1221   H         1 RES1   0.0000
   327 H191      3.7224   -3.5210   -2.0921   H         1 RES1   0.0000
   328 H192      4.5277   -0.8937   -3.7681   H         1 RES1   0.0000
   329 H193      3.0339   -0.2133   -4.3158   H         1 RES1   0.0000
   330 H194      3.0818   -1.7330   -5.9785   H         1 RES1   0.0000
   331 H195      2.7213   -2.9933   -4.8405   H         1 RES1   0.0000
   332 H196      5.6109   -2.2148   -5.0681   H         1 RES1   0.0000
   333 H197      4.8790   -2.8861   -6.5111   H         1 RES1   0.0000
   334 H198      4.9663   -4.2984   -3.8195   H         1 RES1   0.0000
   335 H199      5.9920   -4.5894   -5.2222   H         1 RES1   0.0000
   336 H200      3.8857   -5.1085   -6.5604   H         1 RES1   0.0000
   337 H201      2.9807   -5.0776   -5.0548   H         1 RES1   0.0000
   338 H202      3.4370   -7.3372   -5.3194   H         1 RES1   0.0000
   339 H203      4.6955   -6.8272   -4.1850   H         1 RES1   0.0000
   340 H204      6.3140   -6.6907   -6.1034   H         1 RES1   0.0000
   341 H205      5.0290   -7.1926   -7.2031   H         1 RES1   0.0000
   342 H206      6.1299   -8.8497   -4.8886   H         1 RES1   0.0000
   343 H207      6.4393   -9.1163   -6.6062   H         1 RES1   0.0000
   344 H208      4.8226   -9.3604   -5.9588   H         1 RES1   0.0000
   345 H209      3.6680   -0.9559   -0.1522   H         1 RES1   0.0000
   346 H210      3.8491    0.3630   -1.2943   H         1 RES1   0.0000
   347 H211      6.0267   -0.2912   -1.7348   H         1 RES1   0.0000
   348 H212      5.4653   -1.8788   -2.2284   H         1 RES1   0.0000
   349 H213      5.4490   -2.5248    0.2547   H         1 RES1   0.0000
   350 H214      6.2927   -1.0152    0.5551   H         1 RES1   0.0000
   351 H215      7.9290   -2.7616    0.3398   H         1 RES1   0.0000
   352 H216      8.0966   -1.6368   -0.9954   H         1 RES1   0.0000
   353 H217      8.3651   -4.0133   -1.6537   H         1 RES1   0.0000
   354 H218      7.1268   -3.1833   -2.5700   H         1 RES1   0.0000
   355 H219      6.3681   -5.4073   -2.0120   H         1 RES1   0.0000
   356 H220      5.3640   -4.2470   -1.1491   H         1 RES1   0.0000
   357 H221      6.6452   -4.6657    0.9326   H         1 RES1   0.0000
   358 H222      7.7019   -5.7801    0.0700   H         1 RES1   0.0000
   359 H223      4.6935   -6.1571    0.4342   H         1 RES1   0.0000
   360 H224      5.9639   -7.0110    1.3198   H         1 RES1   0.0000
   361 H225      5.7704   -7.2760   -0.4062   H         1 RES1   0.0000
@<TRIPOS>BOND
     1     1    11    1
     2     1    28    1
     3     1    46    1
     4     1   131    1
     5     1   148    1
     6     1   166    1
     7     1   251    1
     8     1   268    1
     9     1   286    1
    10     2     3    1
    11     2    47    1
    12     2    48    1
    13     2    49    1
    14     3     4    1
    15     3    50    1
    16     3    51    1
    17     4     5    1
    18     4    52    1
    19     4    53    1
    20     5     6    1
    21     5    54    1
    22     5    55    1
    23     6     7    1
    24     6    56    1
    25     6    57    1
    26     7     8    1
    27     7    58    1
    28     7    59    1
    29     8     9    1
    30     8    60    1
    31     8    61    1
    32     9    10    1
    33     9    62    1
    34     9    63    1
    35    10    11    2
    36    10    12    1
    37    10    20    1
    38    12    13    1
    39    12    64    1
    40    12    65    1
    41    13    14    1
    42    13    66    1
    43    13    67    1
    44    14    15    1
    45    14    68    1
    46    14    69    1
    47    15    16    1
    48    15    70    1
    49    15    71    1
    50    16    17    1
    51    16    72    1
    52    16    73    1
    53    17    18    1
    54    17    74    1
    55    17    75    1
    56    18    19    1
    57    18    76    1
    58    18    77    1
    59    19    78    1
    60    19    79    1
    61    19    80    1
    62    20    21    1
    63    20    81    1
    64    20    82    1
    65    21    22    1
    66    21    45    2
    67    22    23    2
    68    22    83    1
    69    23    24    1
    70    23    84    1
    71    24    25    2
    72    24    85    1
    73    25    26    1
    74    25    45    1
    75    26    27    1
    76    26    86    1
    77    26    87    1
    78    27    28    2
    79    27    29    1
    80    27    37    1
    81    29    30    1
    82    29    88    1
    83    29    89    1
    84    30    31    1
    85    30    90    1
    86    30    91    1
    87    31    32    1
    88    31    92    1
    89    31    93    1
    90    32    33    1
    91    32    94    1
    92    32    95    1
    93    33    34    1
    94    33    96    1
    95    33    97    1
    96    34    35    1
    97    34    98    1
    98    34    99    1
    99    35    36    1
   100    35   100    1
   101    35   101    1
   102    36   102    1
   103    36   103    1
   104    36   104    1
   105    37    38    1
   106    37   105    1
   107    37   106    1
   108    38    39    1
   109    38   107    1
   110    38   108    1
   111    39    40    1
   112    39   109    1
   113    39   110    1
   114    40    41    1
   115    40   111    1
   116    40   112    1
   117    41    42    1
   118    41   113    1
   119    41   114    1
   120    42    43    1
   121    42   115    1
   122    42   116    1
   123    43    44    1
   124    43   117    1
   125    43   118    1
   126    44   119    1
   127    44   120    1
   128    44   121    1
   129    45    46    1
   130   122   123    1
   131   122   167    1
   132   122   168    1
   133   122   169    1
   134   123   124    1
   135   123   170    1
   136   123   171    1
   137   124   125    1
   138   124   172    1
   139   124   173    1
   140   125   126    1
   141   125   174    1
   142   125   175    1
   143   126   127    1
   144   126   176    1
   145   126   177    1
   146   127   128    1
   147   127   178    1
   148   127   179    1
   149   128   129    1
   150   128   180    1
   151   128   181    1
   152   129   130    1
   153   129   182    1
   154   129   183    1
   155   130   131    2
   156   130   132    1
   157   130   140    1
   158   132   133    1
   159   132   184    1
   160   132   185    1
   161   133   134    1
   162   133   186    1
   163   133   187    1
   164   134   135    1
   165   134   188    1
   166   134   189    1
   167   135   136    1
   168   135   190    1
   169   135   191    1
   170   136   137    1
   171   136   192    1
   172   136   193    1
   173   137   138    1
   174   137   194    1
   175   137   195    1
   176   138   139    1
   177   138   196    1
   178   138   197    1
   179   139   198    1
   180   139   199    1
   181   139   200    1
   182   140   141    1
   183   140   201    1
   184   140   202    1
   185   141   142    1
   186   141   165    2
   187   142   143    2
   188   142   203    1
   189   143   144    1
   190   143   204    1
   191   144   145    2
   192   144   205    1
   193   145   146    1
   194   145   165    1
   195   146   147    1
   196   146   206    1
   197   146   207    1
   198   147   148    2
   199   147   149    1
   200   147   157    1
   201   149   150    1
   202   149   208    1
   203   149   209    1
   204   150   151    1
   205   150   210    1
   206   150   211    1
   207   151   152    1
   208   151   212    1
   209   151   213    1
   210   152   153    1
   211   152   214    1
   212   152   215    1
   213   153   154    1
   214   153   216    1
   215   153   217    1
   216   154   155    1
   217   154   218    1
   218   154   219    1
   219   155   156    1
   220   155   220    1
   221   155   221    1
   222   156   222    1
   223   156   223    1
   224   156   224    1
   225   157   158    1
   226   157   225    1
   227   157   226    1
   228   158   159    1
   229   158   227    1
   230   158   228    1
   231   159   160    1
   232   159   229    1
   233   159   230    1
   234   160   161    1
   235   160   231    1
   236   160   232    1
   237   161   162    1
   238   161   233    1
   239   161   234    1
   240   162   163    1
   241   162   235    1
   242   162   236    1
   243   163   164    1
   244   163   237    1
   245   163   238    1
   246   164   239    1
   247   164   240    1
   248   164   241    1
   249   165   166    1
   250   242   243    1
   251   242   287    1
   252   242   288    1
   253   242   289    1
   254   243   244    1
   255   243   290    1
   256   243   291    1
   257   244   245    1
   258   244   292    1
   259   244   293    1
   260   245   246    1
   261   245   294    1
   262   245   295    1
   263   246   247    1
   264   246   296    1
   265   246   297    1
   266   247   248    1
   267   247   298    1
   268   247   299    1
   269   248   249    1
   270   248   300    1
   271   248   301    1
   272   249   250    1
   273   249   302    1
   274   249   303    1
   275   250   251    2
   276   250   252    1
   277   250   260    1
   278   252   253    1
   279   252   304    1
   280   252   305    1
   281   253   254    1
   282   253   306    1
   283   253   307    1
   284   254   255    1
   285   254   308    1
   286   254   309    1
   287   255   256    1
   288   255   310    1
   289   255   311    1
   290   256   257    1
   291   256   312    1
   292   256   313    1
   293   257   258    1
   294   257   314    1
   295   257   315    1
   296   258   259    1
   297   258   316    1
   298   258   317    1
   299   259   318    1
   300   259   319    1
   301   259   320    1
   302   260   261    1
   303   260   321    1
   304   260   322    1
   305   261   262    1
   306   261   285    2
   307   262   263    2
   308   262   323    1
   309   263   264    1
   310   263   324    1
   311   264   265    2
   312   264   325    1
   313   265   266    1
   314   265   285    1
   315   266   267    1
   316   266   326    1
   317   266   327    1
   318   267   268    2
   319   267   269    1
   320   267   277    1
   321   269   270    1
   322   269   328    1
   323   269   329    1
   324   270   271    1
   325   270   330    1
   326   270   331    1
   327   271   272    1
   328   271   332    1
   329   271   333    1
   330   272   273    1
   331   272   334    1
   332   272   335    1
   333   273   274    1
   334   273   336    1
   335   273   337    1
   336   274   275    1
   337   274   338    1
   338   274   339    1
   339   275   276    1
   340   275   340    1
   341   275   341    1
   342   276   342    1
   343   276   343    1
   344   276   344    1
   345   277   278    1
   346   277   345    1
   347   277   346    1
   348   278   279    1
   349   278   347    1
   350   278   348    1
   351   279   280    1
   352   279   349    1
   353   279   350    1
   354   280   281    1
   355   280   351    1
   356   280   352    1
   357   281   282    1
   358   281   353    1
   359   281   354    1
   360   282   283    1
   361   282   355    1
   362   282   356    1
   363   283   284    1
   364   283   357    1
   365   283   358    1
   366   284   359    1
   367   284   360    1
   368   284   361    1
   369   285   286    1
@<TRIPOS>SUBSTRUCTURE
     1 RES1      361 GROUP             0 ****  ****    0  
