@<TRIPOS>MOLECULE
am_c3_9H2O_c0_0_nunpairedes_0_charge_3 Charge: 3 Unpaired_Electrons: 7 XTB_Unpaired_Electrons: 0 XTB_Charge: 3
   344   347     1     0     0
SMALL
NoCharges
****
Generated from Architector

@<TRIPOS>ATOM
     1 Gd1      -0.1136   -0.1976   -0.1805   Gd        1 RES1   0.0000
     2 C1        4.6938    5.5918   -3.1800   C.3       1 RES1   0.0000
     3 C2        5.2793    4.3898   -2.4542   C.3       1 RES1   0.0000
     4 C3        5.5835    4.6712   -0.9848   C.3       1 RES1   0.0000
     5 C4        4.3403    4.9587   -0.1346   C.3       1 RES1   0.0000
     6 C5        3.4134    3.7524    0.0407   C.3       1 RES1   0.0000
     7 C6        2.1360    4.0690    0.8369   C.3       1 RES1   0.0000
     8 N1        0.9379    4.3475    0.0372   N.am      1 RES1   0.0000
     9 C7        0.3443    5.6604    0.2838   C.3       1 RES1   0.0000
    10 C8        1.2176    6.8228   -0.1925   C.3       1 RES1   0.0000
    11 C9        0.4607    8.1493   -0.3124   C.3       1 RES1   0.0000
    12 C10       0.0709    8.8291    1.0027   C.3       1 RES1   0.0000
    13 C11      -1.1701    8.2711    1.6948   C.3       1 RES1   0.0000
    14 C12      -1.6214    9.1800    2.8295   C.3       1 RES1   0.0000
    15 C13       0.3265    3.2820   -0.4988   C.2       1 RES1   0.0000
    16 O1        0.8448    2.1534   -0.4166   O.2       1 RES1   0.0000
    17 C14      -1.0816    3.4529   -1.0881   C.3       1 RES1   0.0000
    18 C15      -1.4415    2.4624   -2.1889   C.2       1 RES1   0.0000
    19 O2       -1.3149    1.2492   -1.9288   O.2       1 RES1   0.0000
    20 N2       -1.9731    2.8709   -3.3579   N.am      1 RES1   0.0000
    21 C16      -2.6294    1.8633   -4.1892   C.3       1 RES1   0.0000
    22 C17      -4.0498    2.2189   -4.6515   C.3       1 RES1   0.0000
    23 C18      -5.0798    2.5792   -3.5705   C.3       1 RES1   0.0000
    24 C19      -5.8564    1.3883   -3.0077   C.3       1 RES1   0.0000
    25 C20      -7.1353    1.0043   -3.7515   C.3       1 RES1   0.0000
    26 C21      -6.9083    0.4949   -5.1647   C.3       1 RES1   0.0000
    27 C22      -2.1735    4.2439   -3.8114   C.3       1 RES1   0.0000
    28 C23      -1.7631    4.6768   -5.2604   C.3       1 RES1   0.0000
    29 C24      -1.5588    3.7926   -6.5144   C.3       1 RES1   0.0000
    30 C25      -0.2927    2.9323   -6.6023   C.3       1 RES1   0.0000
    31 C26       0.1534    2.6560   -8.0407   C.3       1 RES1   0.0000
    32 C27       0.9901    3.7821   -8.6319   C.3       1 RES1   0.0000
    33 H1        4.4152    5.3322   -4.1956   H         1 RES1   0.0000
    34 H2        5.4104    6.4057   -3.2298   H         1 RES1   0.0000
    35 H3        3.7986    5.9557   -2.6857   H         1 RES1   0.0000
    36 H4        6.1904    4.0726   -2.9666   H         1 RES1   0.0000
    37 H5        4.5831    3.5587   -2.5036   H         1 RES1   0.0000
    38 H6        6.2490    5.5338   -0.9347   H         1 RES1   0.0000
    39 H7        6.1207    3.8167   -0.5666   H         1 RES1   0.0000
    40 H8        3.7915    5.7814   -0.5858   H         1 RES1   0.0000
    41 H9        4.6766    5.2871    0.8510   H         1 RES1   0.0000
    42 H10       3.9651    2.9763    0.5779   H         1 RES1   0.0000
    43 H11       3.1276    3.3377   -0.9246   H         1 RES1   0.0000
    44 H12       2.3142    4.9376    1.4705   H         1 RES1   0.0000
    45 H13       1.8833    3.2047    1.4660   H         1 RES1   0.0000
    46 H14       0.1862    5.7170    1.3652   H         1 RES1   0.0000
    47 H15      -0.6279    5.7471   -0.1941   H         1 RES1   0.0000
    48 H16       1.6131    6.5679   -1.1792   H         1 RES1   0.0000
    49 H17       2.0610    6.9535    0.4853   H         1 RES1   0.0000
    50 H18      -0.4325    8.0062   -0.9264   H         1 RES1   0.0000
    51 H19       1.1225    8.8283   -0.8543   H         1 RES1   0.0000
    52 H20      -0.1324    9.8746    0.7702   H         1 RES1   0.0000
    53 H21       0.9164    8.8152    1.6926   H         1 RES1   0.0000
    54 H22      -0.9741    7.2809    2.1045   H         1 RES1   0.0000
    55 H23      -1.9797    8.1755    0.9696   H         1 RES1   0.0000
    56 H24      -0.8301    9.2949    3.5659   H         1 RES1   0.0000
    57 H25      -2.4968    8.7711    3.3282   H         1 RES1   0.0000
    58 H26      -1.8783   10.1662    2.4542   H         1 RES1   0.0000
    59 H27      -1.2898    4.4720   -1.3850   H         1 RES1   0.0000
    60 H28      -1.7334    3.1737   -0.2444   H         1 RES1   0.0000
    61 H29      -2.6091    0.9351   -3.6263   H         1 RES1   0.0000
    62 H30      -2.0219    1.6861   -5.0745   H         1 RES1   0.0000
    63 H31      -4.3995    1.3544   -5.2128   H         1 RES1   0.0000
    64 H32      -3.9792    3.0484   -5.3530   H         1 RES1   0.0000
    65 H33      -5.7957    3.2824   -3.9988   H         1 RES1   0.0000
    66 H34      -4.5745    3.0884   -2.7442   H         1 RES1   0.0000
    67 H35      -6.1424    1.6318   -1.9825   H         1 RES1   0.0000
    68 H36      -5.1944    0.5261   -2.9851   H         1 RES1   0.0000
    69 H37      -7.8142    1.8551   -3.7775   H         1 RES1   0.0000
    70 H38      -7.6269    0.2171   -3.1742   H         1 RES1   0.0000
    71 H39      -6.5965    1.2940   -5.8304   H         1 RES1   0.0000
    72 H40      -7.8262    0.0715   -5.5614   H         1 RES1   0.0000
    73 H41      -6.1511   -0.2865   -5.1670   H         1 RES1   0.0000
    74 H42      -1.6254    4.9155   -3.1500   H         1 RES1   0.0000
    75 H43      -3.2358    4.4720   -3.6725   H         1 RES1   0.0000
    76 H44      -0.8517    5.2578   -5.1671   H         1 RES1   0.0000
    77 H45      -2.5391    5.3986   -5.5297   H         1 RES1   0.0000
    78 H46      -1.4818    4.5238   -7.3233   H         1 RES1   0.0000
    79 H47      -2.4363    3.1843   -6.7307   H         1 RES1   0.0000
    80 H48      -0.4396    1.9729   -6.0988   H         1 RES1   0.0000
    81 H49       0.5226    3.4507   -6.1128   H         1 RES1   0.0000
    82 H50      -0.7147    2.4723   -8.6708   H         1 RES1   0.0000
    83 H51       0.7540    1.7445   -8.0486   H         1 RES1   0.0000
    84 H52       0.4166    4.6985   -8.7363   H         1 RES1   0.0000
    85 H53       1.3431    3.4945   -9.6174   H         1 RES1   0.0000
    86 H54       1.8617    3.9901   -8.0136   H         1 RES1   0.0000
    87 C28       0.9614   -6.2288    4.7763   C.3       1 RES1   0.0000
    88 C29       0.3290   -6.5701    3.4336   C.3       1 RES1   0.0000
    89 C30      -1.1979   -6.6148    3.4854   C.3       1 RES1   0.0000
    90 C31      -1.8501   -5.2707    3.8118   C.3       1 RES1   0.0000
    91 C32      -1.7921   -4.2720    2.6568   C.3       1 RES1   0.0000
    92 C33      -2.4582   -2.9243    2.9614   C.3       1 RES1   0.0000
    93 N3       -1.6237   -1.9821    3.7063   N.am      1 RES1   0.0000
    94 C34      -2.0761   -1.5960    5.0396   C.3       1 RES1   0.0000
    95 C35      -1.7590   -2.6361    6.1179   C.3       1 RES1   0.0000
    96 C36      -1.7147   -2.0690    7.5379   C.3       1 RES1   0.0000
    97 C37      -3.0378   -1.5187    8.0730   C.3       1 RES1   0.0000
    98 C38      -3.3627   -0.0879    7.6521   C.3       1 RES1   0.0000
    99 C39      -4.5571    0.4581    8.4206   C.3       1 RES1   0.0000
   100 C40      -0.6630   -1.3532    3.0275   C.2       1 RES1   0.0000
   101 O3       -0.4851   -1.5287    1.8132   O.2       1 RES1   0.0000
   102 C41       0.2164   -0.3792    3.8192   C.3       1 RES1   0.0000
   103 C42       1.5358   -0.1095    3.0995   C.2       1 RES1   0.0000
   104 O4        1.5292    0.1863    1.8876   O.2       1 RES1   0.0000
   105 N4        2.6536   -0.1657    3.8286   N.am      1 RES1   0.0000
   106 C43       3.8944    0.2918    3.1983   C.3       1 RES1   0.0000
   107 C44       4.8394    1.0883    4.1023   C.3       1 RES1   0.0000
   108 C45       4.2538    2.3040    4.8311   C.3       1 RES1   0.0000
   109 C46       3.9454    3.4932    3.9165   C.3       1 RES1   0.0000
   110 C47       5.0724    4.5213    3.8024   C.3       1 RES1   0.0000
   111 C48       6.3424    4.0090    3.1385   C.3       1 RES1   0.0000
   112 C49       2.6684   -0.5663    5.2370   C.3       1 RES1   0.0000
   113 C50       2.3323   -2.0422    5.5386   C.3       1 RES1   0.0000
   114 C51       3.5286   -2.9930    5.4579   C.3       1 RES1   0.0000
   115 C52       3.8081   -3.4528    4.0324   C.3       1 RES1   0.0000
   116 C53       5.0767   -4.2971    3.9314   C.3       1 RES1   0.0000
   117 C54       4.9545   -5.6473    4.6200   C.3       1 RES1   0.0000
   118 H55       2.0416   -6.3260    4.7232   H         1 RES1   0.0000
   119 H56       0.6049   -6.9019    5.5505   H         1 RES1   0.0000
   120 H57       0.7333   -5.2108    5.0831   H         1 RES1   0.0000
   121 H58       0.6861   -7.5530    3.1253   H         1 RES1   0.0000
   122 H59       0.6602   -5.8528    2.6799   H         1 RES1   0.0000
   123 H60      -1.4924   -7.3348    4.2512   H         1 RES1   0.0000
   124 H61      -1.5845   -6.9794    2.5320   H         1 RES1   0.0000
   125 H62      -1.3601   -4.8584    4.6880   H         1 RES1   0.0000
   126 H63      -2.8973   -5.4458    4.0710   H         1 RES1   0.0000
   127 H64      -2.3203   -4.7053    1.8068   H         1 RES1   0.0000
   128 H65      -0.7644   -4.0959    2.3387   H         1 RES1   0.0000
   129 H66      -3.3625   -3.0904    3.5480   H         1 RES1   0.0000
   130 H67      -2.6995   -2.4334    2.0103   H         1 RES1   0.0000
   131 H68      -3.1580   -1.4577    4.9523   H         1 RES1   0.0000
   132 H69      -1.6340   -0.6386    5.3176   H         1 RES1   0.0000
   133 H70      -0.7829   -3.0798    5.8998   H         1 RES1   0.0000
   134 H71      -2.5062   -3.4274    6.0703   H         1 RES1   0.0000
   135 H72      -0.9443   -1.2957    7.6033   H         1 RES1   0.0000
   136 H73      -1.4020   -2.8933    8.1809   H         1 RES1   0.0000
   137 H74      -2.9811   -1.5325    9.1613   H         1 RES1   0.0000
   138 H75      -3.8537   -2.1837    7.7879   H         1 RES1   0.0000
   139 H76      -3.5888   -0.0369    6.5877   H         1 RES1   0.0000
   140 H77      -2.4967    0.5491    7.8398   H         1 RES1   0.0000
   141 H78      -5.4381   -0.1530    8.2428   H         1 RES1   0.0000
   142 H79      -4.7795    1.4773    8.1139   H         1 RES1   0.0000
   143 H80      -4.3575    0.4619    9.4877   H         1 RES1   0.0000
   144 H81       0.3879   -0.7896    4.8051   H         1 RES1   0.0000
   145 H82      -0.3121    0.5748    3.9348   H         1 RES1   0.0000
   146 H83       3.5923    0.8887    2.3327   H         1 RES1   0.0000
   147 H84       4.4402   -0.5743    2.8063   H         1 RES1   0.0000
   148 H85       5.6462    1.4242    3.4547   H         1 RES1   0.0000
   149 H86       5.2892    0.4133    4.8323   H         1 RES1   0.0000
   150 H87       4.9780    2.6210    5.5828   H         1 RES1   0.0000
   151 H88       3.3489    2.0167    5.3704   H         1 RES1   0.0000
   152 H89       3.0707    4.0190    4.3060   H         1 RES1   0.0000
   153 H90       3.6904    3.1222    2.9247   H         1 RES1   0.0000
   154 H91       5.3172    4.8995    4.7952   H         1 RES1   0.0000
   155 H92       4.6934    5.3673    3.2245   H         1 RES1   0.0000
   156 H93       6.8654    3.2987    3.7725   H         1 RES1   0.0000
   157 H94       7.0180    4.8397    2.9526   H         1 RES1   0.0000
   158 H95       6.1217    3.5360    2.1835   H         1 RES1   0.0000
   159 H96       1.9883    0.0993    5.7859   H         1 RES1   0.0000
   160 H97       3.6743   -0.3847    5.6083   H         1 RES1   0.0000
   161 H98       1.5595   -2.4285    4.8697   H         1 RES1   0.0000
   162 H99       1.9412   -2.0669    6.5597   H         1 RES1   0.0000
   163 H100      3.3032   -3.8662    6.0688   H         1 RES1   0.0000
   164 H101      4.4156   -2.5223    5.8837   H         1 RES1   0.0000
   165 H102      3.9029   -2.5758    3.3880   H         1 RES1   0.0000
   166 H103      2.9485   -4.0276    3.6827   H         1 RES1   0.0000
   167 H104      5.9065   -3.7400    4.3675   H         1 RES1   0.0000
   168 H105      5.3181   -4.4711    2.8808   H         1 RES1   0.0000
   169 H106      4.7538   -5.5361    5.6807   H         1 RES1   0.0000
   170 H107      5.8787   -6.2074    4.5165   H         1 RES1   0.0000
   171 H108      4.1542   -6.2343    4.1754   H         1 RES1   0.0000
   172 C55       3.3430   -6.8946   -3.3152   C.3       1 RES1   0.0000
   173 C56       2.0292   -7.2087   -2.6133   C.3       1 RES1   0.0000
   174 C57       2.1730   -7.5200   -1.1241   C.3       1 RES1   0.0000
   175 C58       2.8065   -6.4063   -0.2905   C.3       1 RES1   0.0000
   176 C59       1.9401   -5.1529   -0.1485   C.3       1 RES1   0.0000
   177 C60       2.5764   -4.0825    0.7544   C.3       1 RES1   0.0000
   178 N5        3.3090   -3.0251    0.0494   N.am      1 RES1   0.0000
   179 C61       4.7531   -2.9997    0.2396   C.3       1 RES1   0.0000
   180 C62       5.4690   -4.1803   -0.4174   C.3       1 RES1   0.0000
   181 C63       6.9582   -3.9297   -0.6567   C.3       1 RES1   0.0000
   182 C64       7.8165   -3.8487    0.6070   C.3       1 RES1   0.0000
   183 C65       7.8159   -2.4941    1.3091   C.3       1 RES1   0.0000
   184 C66       8.8621   -2.4538    2.4122   C.3       1 RES1   0.0000
   185 C67       2.5694   -2.0302   -0.4375   C.2       1 RES1   0.0000
   186 O5        1.3312   -2.0555   -0.3558   O.2       1 RES1   0.0000
   187 C68       3.2196   -0.7995   -1.0800   C.3       1 RES1   0.0000
   188 C69       2.3585   -0.3952   -2.2690   C.2       1 RES1   0.0000
   189 O6        1.1656   -0.1078   -2.0606   O.2       1 RES1   0.0000
   190 N6        2.8786   -0.3681   -3.4945   N.am      1 RES1   0.0000
   191 C70       2.0603    0.2044   -4.5620   C.3       1 RES1   0.0000
   192 C71       2.6455    1.5100   -5.0913   C.3       1 RES1   0.0000
   193 C72       2.7113    2.6318   -4.0590   C.3       1 RES1   0.0000
   194 C73       1.3628    3.2536   -3.6740   C.3       1 RES1   0.0000
   195 C74       1.3496    4.7889   -3.6906   C.3       1 RES1   0.0000
   196 C75       1.6944    5.4759   -5.0149   C.3       1 RES1   0.0000
   197 C76       4.2013   -0.8742   -3.8416   C.3       1 RES1   0.0000
   198 C77       4.3124   -2.4095   -3.7766   C.3       1 RES1   0.0000
   199 C78       3.8098   -3.1294   -5.0337   C.3       1 RES1   0.0000
   200 C79       2.2932   -3.3097   -5.0656   C.3       1 RES1   0.0000
   201 C80       1.7762   -3.6421   -6.4632   C.3       1 RES1   0.0000
   202 C81       2.1631   -5.0453   -6.9013   C.3       1 RES1   0.0000
   203 H109      3.1798   -6.7940   -4.3857   H         1 RES1   0.0000
   204 H110      4.0606   -7.6952   -3.1607   H         1 RES1   0.0000
   205 H111      3.7795   -5.9667   -2.9516   H         1 RES1   0.0000
   206 H112      1.5843   -8.0807   -3.0933   H         1 RES1   0.0000
   207 H113      1.3393   -6.3772   -2.7532   H         1 RES1   0.0000
   208 H114      2.7979   -8.4088   -1.0226   H         1 RES1   0.0000
   209 H115      1.1921   -7.7662   -0.7121   H         1 RES1   0.0000
   210 H116      3.7586   -6.1501   -0.7436   H         1 RES1   0.0000
   211 H117      3.0103   -6.8038    0.7081   H         1 RES1   0.0000
   212 H118      0.9868   -5.4436    0.2959   H         1 RES1   0.0000
   213 H119      1.7173   -4.7155   -1.1215   H         1 RES1   0.0000
   214 H120      3.2789   -4.5605    1.4358   H         1 RES1   0.0000
   215 H121      1.7879   -3.5702    1.3215   H         1 RES1   0.0000
   216 H122      4.9088   -3.0147    1.3213   H         1 RES1   0.0000
   217 H123      5.1771   -2.0745   -0.1462   H         1 RES1   0.0000
   218 H124      4.9925   -4.3785   -1.3813   H         1 RES1   0.0000
   219 H125      5.3531   -5.0660    0.2072   H         1 RES1   0.0000
   220 H126      7.0865   -3.0208   -1.2505   H         1 RES1   0.0000
   221 H127      7.3167   -4.7646   -1.2611   H         1 RES1   0.0000
   222 H128      8.8448   -4.0649    0.3179   H         1 RES1   0.0000
   223 H129      7.5120   -4.6282    1.3073   H         1 RES1   0.0000
   224 H130      6.8428   -2.2826    1.7502   H         1 RES1   0.0000
   225 H131      8.0281   -1.7091    0.5817   H         1 RES1   0.0000
   226 H132      8.6651   -3.2257    3.1518   H         1 RES1   0.0000
   227 H133      8.8613   -1.4883    2.9117   H         1 RES1   0.0000
   228 H134      9.8537   -2.6228    2.0042   H         1 RES1   0.0000
   229 H135      4.2517   -0.9515   -1.3621   H         1 RES1   0.0000
   230 H136      3.1524    0.0026   -0.3280   H         1 RES1   0.0000
   231 H137      1.0659    0.3807   -4.1453   H         1 RES1   0.0000
   232 H138      1.9913   -0.5145   -5.3800   H         1 RES1   0.0000
   233 H139      2.0516    1.8227   -5.9481   H         1 RES1   0.0000
   234 H140      3.6596    1.3201   -5.4439   H         1 RES1   0.0000
   235 H141      3.3619    3.3997   -4.4717   H         1 RES1   0.0000
   236 H142      3.1896    2.2414   -3.1580   H         1 RES1   0.0000
   237 H143      1.1031    2.9197   -2.6696   H         1 RES1   0.0000
   238 H144      0.5807    2.8731   -4.3180   H         1 RES1   0.0000
   239 H145      2.0522    5.1251   -2.9353   H         1 RES1   0.0000
   240 H146      0.3656    5.1343   -3.3713   H         1 RES1   0.0000
   241 H147      2.6169    5.0953   -5.4432   H         1 RES1   0.0000
   242 H148      1.8198    6.5463   -4.8568   H         1 RES1   0.0000
   243 H149      0.9166    5.3585   -5.7632   H         1 RES1   0.0000
   244 H150      4.9579   -0.4054   -3.2002   H         1 RES1   0.0000
   245 H151      4.4089   -0.5529   -4.8626   H         1 RES1   0.0000
   246 H152      3.7668   -2.7859   -2.9069   H         1 RES1   0.0000
   247 H153      5.3707   -2.6478   -3.6449   H         1 RES1   0.0000
   248 H154      4.2786   -4.1122   -5.0717   H         1 RES1   0.0000
   249 H155      4.1385   -2.5871   -5.9228   H         1 RES1   0.0000
   250 H156      1.8112   -2.4019   -4.7101   H         1 RES1   0.0000
   251 H157      2.0165   -4.1088   -4.3780   H         1 RES1   0.0000
   252 H158      2.1752   -2.9155   -7.1731   H         1 RES1   0.0000
   253 H159      0.6874   -3.5548   -6.4815   H         1 RES1   0.0000
   254 H160      3.2422   -5.1548   -6.9441   H         1 RES1   0.0000
   255 H161      1.7697   -5.2606   -7.8900   H         1 RES1   0.0000
   256 H162      1.7640   -5.7833   -6.2091   H         1 RES1   0.0000
   257 C82      -4.1171   -6.2264   -1.9877   C.3       1 RES1   0.0000
   258 C83      -2.6811   -6.6332   -1.6837   C.3       1 RES1   0.0000
   259 C84      -1.8042   -6.7246   -2.9331   C.3       1 RES1   0.0000
   260 C85      -1.6755   -5.4145   -3.7111   C.3       1 RES1   0.0000
   261 C86      -0.8795   -4.3314   -2.9845   C.3       1 RES1   0.0000
   262 C87      -0.9222   -2.9649   -3.6762   C.3       1 RES1   0.0000
   263 N7       -2.1393   -2.2128   -3.3707   N.am      1 RES1   0.0000
   264 C88      -2.9717   -1.8307   -4.5110   C.3       1 RES1   0.0000
   265 C89      -3.6023   -3.0366   -5.2096   C.3       1 RES1   0.0000
   266 C90      -4.6176   -2.7000   -6.3033   C.3       1 RES1   0.0000
   267 C91      -4.0651   -2.0290   -7.5628   C.3       1 RES1   0.0000
   268 C92      -3.9290   -0.5121   -7.4784   C.3       1 RES1   0.0000
   269 C93      -3.5820    0.0933   -8.8296   C.3       1 RES1   0.0000
   270 C94      -2.2136   -1.7206   -2.1295   C.2       1 RES1   0.0000
   271 O7       -1.3253   -1.9236   -1.2895   O.2       1 RES1   0.0000
   272 C95      -3.4117   -0.8534   -1.7634   C.3       1 RES1   0.0000
   273 C96      -3.4750   -0.5426   -0.2820   C.2       1 RES1   0.0000
   274 O8       -2.4583   -0.1416    0.3186   O.2       1 RES1   0.0000
   275 N8       -4.6540   -0.6359    0.3327   N.am      1 RES1   0.0000
   276 C97      -4.7704   -0.0880    1.6789   C.3       1 RES1   0.0000
   277 C98      -5.6359    1.1759    1.7405   C.3       1 RES1   0.0000
   278 C99      -5.1574    2.3681    0.9036   C.3       1 RES1   0.0000
   279 C100     -4.0233    3.1861    1.5270   C.3       1 RES1   0.0000
   280 C101     -4.4473    4.3133    2.4710   C.3       1 RES1   0.0000
   281 C102     -5.1320    3.8668    3.7543   C.3       1 RES1   0.0000
   282 C103     -5.8867   -1.0849   -0.3125   C.3       1 RES1   0.0000
   283 C104     -5.9017   -2.5276   -0.8577   C.3       1 RES1   0.0000
   284 C105     -6.3626   -3.5724    0.1556   C.3       1 RES1   0.0000
   285 C106     -5.2930   -3.8743    1.1961   C.3       1 RES1   0.0000
   286 C107     -5.7309   -4.9325    2.2041   C.3       1 RES1   0.0000
   287 C108     -5.8919   -6.3180    1.5986   C.3       1 RES1   0.0000
   288 H163     -4.7341   -6.3122   -1.0986   H         1 RES1   0.0000
   289 H164     -4.5431   -6.8708   -2.7519   H         1 RES1   0.0000
   290 H165     -4.1756   -5.1974   -2.3354   H         1 RES1   0.0000
   291 H166     -2.6927   -7.6177   -1.2146   H         1 RES1   0.0000
   292 H167     -2.2435   -5.9347   -0.9662   H         1 RES1   0.0000
   293 H168     -2.2394   -7.4680   -3.6038   H         1 RES1   0.0000
   294 H169     -0.8144   -7.0818   -2.6512   H         1 RES1   0.0000
   295 H170     -2.6789   -5.0577   -3.9142   H         1 RES1   0.0000
   296 H171     -1.1961   -5.6163   -4.6734   H         1 RES1   0.0000
   297 H172      0.1654   -4.6338   -2.9353   H         1 RES1   0.0000
   298 H173     -1.2284   -4.2121   -1.9592   H         1 RES1   0.0000
   299 H174     -0.8606   -3.0919   -4.7577   H         1 RES1   0.0000
   300 H175     -0.0793   -2.3543   -3.3206   H         1 RES1   0.0000
   301 H176     -2.3122   -1.2955   -5.2031   H         1 RES1   0.0000
   302 H177     -3.7657   -1.1529   -4.1982   H         1 RES1   0.0000
   303 H178     -4.1179   -3.6319   -4.4504   H         1 RES1   0.0000
   304 H179     -2.8133   -3.6494   -5.6443   H         1 RES1   0.0000
   305 H180     -5.4251   -2.0946   -5.8890   H         1 RES1   0.0000
   306 H181     -5.0583   -3.6541   -6.5950   H         1 RES1   0.0000
   307 H182     -4.7562   -2.2455   -8.3778   H         1 RES1   0.0000
   308 H183     -3.1069   -2.4751   -7.8326   H         1 RES1   0.0000
   309 H184     -3.1582   -0.2299   -6.7614   H         1 RES1   0.0000
   310 H185     -4.8751   -0.0927   -7.1387   H         1 RES1   0.0000
   311 H186     -2.6447   -0.3100   -9.2039   H         1 RES1   0.0000
   312 H187     -3.4872    1.1741   -8.7544   H         1 RES1   0.0000
   313 H188     -4.3592   -0.1265   -9.5552   H         1 RES1   0.0000
   314 H189     -4.3285   -1.2777   -2.1499   H         1 RES1   0.0000
   315 H190     -3.2218    0.1185   -2.2249   H         1 RES1   0.0000
   316 H191     -3.7589    0.1226    2.0331   H         1 RES1   0.0000
   317 H192     -5.2051   -0.8601    2.3203   H         1 RES1   0.0000
   318 H193     -5.6918    1.4610    2.7869   H         1 RES1   0.0000
   319 H194     -6.6431    0.9115    1.4224   H         1 RES1   0.0000
   320 H195     -6.0077    3.0311    0.7338   H         1 RES1   0.0000
   321 H196     -4.8329    1.9986   -0.0737   H         1 RES1   0.0000
   322 H197     -3.4631    3.6588    0.7160   H         1 RES1   0.0000
   323 H198     -3.3417    2.5128    2.0475   H         1 RES1   0.0000
   324 H199     -5.1063    4.9997    1.9382   H         1 RES1   0.0000
   325 H200     -3.5458    4.8709    2.7374   H         1 RES1   0.0000
   326 H201     -6.1227    3.4682    3.5591   H         1 RES1   0.0000
   327 H202     -5.2495    4.7165    4.4213   H         1 RES1   0.0000
   328 H203     -4.5426    3.1148    4.2759   H         1 RES1   0.0000
   329 H204     -6.1357   -0.3783   -1.1103   H         1 RES1   0.0000
   330 H205     -6.6677   -1.0144    0.4438   H         1 RES1   0.0000
   331 H206     -4.9195   -2.8440   -1.2124   H         1 RES1   0.0000
   332 H207     -6.5954   -2.5356   -1.7039   H         1 RES1   0.0000
   333 H208     -6.5920   -4.4812   -0.3981   H         1 RES1   0.0000
   334 H209     -7.2815   -3.2435    0.6421   H         1 RES1   0.0000
   335 H210     -5.0546   -2.9553    1.7325   H         1 RES1   0.0000
   336 H211     -4.3856   -4.2034    0.6848   H         1 RES1   0.0000
   337 H212     -6.6747   -4.6235    2.6536   H         1 RES1   0.0000
   338 H213     -4.9866   -4.9870    2.9997   H         1 RES1   0.0000
   339 H214     -6.6656   -6.3311    0.8371   H         1 RES1   0.0000
   340 H215     -6.1765   -7.0306    2.3666   H         1 RES1   0.0000
   341 H216     -4.9586   -6.6562    1.1544   H         1 RES1   0.0000
   342 O9       -0.9271    1.7346    1.6394   O.3       1 RES1   0.0000
   343 H217     -0.2385    2.0237    2.2527   H         1 RES1   0.0000
   344 H218     -1.6137    1.2854    2.1505   H         1 RES1   0.0000
@<TRIPOS>BOND
     1     1    16    1
     2     1    19    1
     3     1   101    1
     4     1   104    1
     5     1   186    1
     6     1   189    1
     7     1   271    1
     8     1   274    1
     9     1   342    1
    10     2     3    1
    11     2    33    1
    12     2    34    1
    13     2    35    1
    14     3     4    1
    15     3    36    1
    16     3    37    1
    17     4     5    1
    18     4    38    1
    19     4    39    1
    20     5     6    1
    21     5    40    1
    22     5    41    1
    23     6     7    1
    24     6    42    1
    25     6    43    1
    26     7     8    1
    27     7    44    1
    28     7    45    1
    29     8     9    1
    30     8    15    1
    31     9    10    1
    32     9    46    1
    33     9    47    1
    34    10    11    1
    35    10    48    1
    36    10    49    1
    37    11    12    1
    38    11    50    1
    39    11    51    1
    40    12    13    1
    41    12    52    1
    42    12    53    1
    43    13    14    1
    44    13    54    1
    45    13    55    1
    46    14    56    1
    47    14    57    1
    48    14    58    1
    49    15    16    2
    50    15    17    1
    51    17    18    1
    52    17    59    1
    53    17    60    1
    54    18    19    2
    55    18    20    1
    56    20    21    1
    57    20    27    1
    58    21    22    1
    59    21    61    1
    60    21    62    1
    61    22    23    1
    62    22    63    1
    63    22    64    1
    64    23    24    1
    65    23    65    1
    66    23    66    1
    67    24    25    1
    68    24    67    1
    69    24    68    1
    70    25    26    1
    71    25    69    1
    72    25    70    1
    73    26    71    1
    74    26    72    1
    75    26    73    1
    76    27    28    1
    77    27    74    1
    78    27    75    1
    79    28    29    1
    80    28    76    1
    81    28    77    1
    82    29    30    1
    83    29    78    1
    84    29    79    1
    85    30    31    1
    86    30    80    1
    87    30    81    1
    88    31    32    1
    89    31    82    1
    90    31    83    1
    91    32    84    1
    92    32    85    1
    93    32    86    1
    94    87    88    1
    95    87   118    1
    96    87   119    1
    97    87   120    1
    98    88    89    1
    99    88   121    1
   100    88   122    1
   101    89    90    1
   102    89   123    1
   103    89   124    1
   104    90    91    1
   105    90   125    1
   106    90   126    1
   107    91    92    1
   108    91   127    1
   109    91   128    1
   110    92    93    1
   111    92   129    1
   112    92   130    1
   113    93    94    1
   114    93   100    1
   115    94    95    1
   116    94   131    1
   117    94   132    1
   118    95    96    1
   119    95   133    1
   120    95   134    1
   121    96    97    1
   122    96   135    1
   123    96   136    1
   124    97    98    1
   125    97   137    1
   126    97   138    1
   127    98    99    1
   128    98   139    1
   129    98   140    1
   130    99   141    1
   131    99   142    1
   132    99   143    1
   133   100   101    2
   134   100   102    1
   135   102   103    1
   136   102   144    1
   137   102   145    1
   138   103   104    2
   139   103   105    1
   140   105   106    1
   141   105   112    1
   142   106   107    1
   143   106   146    1
   144   106   147    1
   145   107   108    1
   146   107   148    1
   147   107   149    1
   148   108   109    1
   149   108   150    1
   150   108   151    1
   151   109   110    1
   152   109   152    1
   153   109   153    1
   154   110   111    1
   155   110   154    1
   156   110   155    1
   157   111   156    1
   158   111   157    1
   159   111   158    1
   160   112   113    1
   161   112   159    1
   162   112   160    1
   163   113   114    1
   164   113   161    1
   165   113   162    1
   166   114   115    1
   167   114   163    1
   168   114   164    1
   169   115   116    1
   170   115   165    1
   171   115   166    1
   172   116   117    1
   173   116   167    1
   174   116   168    1
   175   117   169    1
   176   117   170    1
   177   117   171    1
   178   172   173    1
   179   172   203    1
   180   172   204    1
   181   172   205    1
   182   173   174    1
   183   173   206    1
   184   173   207    1
   185   174   175    1
   186   174   208    1
   187   174   209    1
   188   175   176    1
   189   175   210    1
   190   175   211    1
   191   176   177    1
   192   176   212    1
   193   176   213    1
   194   177   178    1
   195   177   214    1
   196   177   215    1
   197   178   179    1
   198   178   185    1
   199   179   180    1
   200   179   216    1
   201   179   217    1
   202   180   181    1
   203   180   218    1
   204   180   219    1
   205   181   182    1
   206   181   220    1
   207   181   221    1
   208   182   183    1
   209   182   222    1
   210   182   223    1
   211   183   184    1
   212   183   224    1
   213   183   225    1
   214   184   226    1
   215   184   227    1
   216   184   228    1
   217   185   186    2
   218   185   187    1
   219   187   188    1
   220   187   229    1
   221   187   230    1
   222   188   189    2
   223   188   190    1
   224   190   191    1
   225   190   197    1
   226   191   192    1
   227   191   231    1
   228   191   232    1
   229   192   193    1
   230   192   233    1
   231   192   234    1
   232   193   194    1
   233   193   235    1
   234   193   236    1
   235   194   195    1
   236   194   237    1
   237   194   238    1
   238   195   196    1
   239   195   239    1
   240   195   240    1
   241   196   241    1
   242   196   242    1
   243   196   243    1
   244   197   198    1
   245   197   244    1
   246   197   245    1
   247   198   199    1
   248   198   246    1
   249   198   247    1
   250   199   200    1
   251   199   248    1
   252   199   249    1
   253   200   201    1
   254   200   250    1
   255   200   251    1
   256   201   202    1
   257   201   252    1
   258   201   253    1
   259   202   254    1
   260   202   255    1
   261   202   256    1
   262   257   258    1
   263   257   288    1
   264   257   289    1
   265   257   290    1
   266   258   259    1
   267   258   291    1
   268   258   292    1
   269   259   260    1
   270   259   293    1
   271   259   294    1
   272   260   261    1
   273   260   295    1
   274   260   296    1
   275   261   262    1
   276   261   297    1
   277   261   298    1
   278   262   263    1
   279   262   299    1
   280   262   300    1
   281   263   264    1
   282   263   270    1
   283   264   265    1
   284   264   301    1
   285   264   302    1
   286   265   266    1
   287   265   303    1
   288   265   304    1
   289   266   267    1
   290   266   305    1
   291   266   306    1
   292   267   268    1
   293   267   307    1
   294   267   308    1
   295   268   269    1
   296   268   309    1
   297   268   310    1
   298   269   311    1
   299   269   312    1
   300   269   313    1
   301   270   271    2
   302   270   272    1
   303   272   273    1
   304   272   314    1
   305   272   315    1
   306   273   274    2
   307   273   275    1
   308   275   276    1
   309   275   282    1
   310   276   277    1
   311   276   316    1
   312   276   317    1
   313   277   278    1
   314   277   318    1
   315   277   319    1
   316   278   279    1
   317   278   320    1
   318   278   321    1
   319   279   280    1
   320   279   322    1
   321   279   323    1
   322   280   281    1
   323   280   324    1
   324   280   325    1
   325   281   326    1
   326   281   327    1
   327   281   328    1
   328   282   283    1
   329   282   329    1
   330   282   330    1
   331   283   284    1
   332   283   331    1
   333   283   332    1
   334   284   285    1
   335   284   333    1
   336   284   334    1
   337   285   286    1
   338   285   335    1
   339   285   336    1
   340   286   287    1
   341   286   337    1
   342   286   338    1
   343   287   339    1
   344   287   340    1
   345   287   341    1
   346   342   343    1
   347   342   344    1
@<TRIPOS>SUBSTRUCTURE
     1 RES1      344 GROUP             0 ****  ****    0  
