@<TRIPOS>MOLECULE
am_c3_9H2O_c0_0_nunpairedes_0_charge_3 Charge: 3 Unpaired_Electrons: 7 XTB_Unpaired_Electrons: 0 XTB_Charge: 3
   214   219     1     0     0
SMALL
NoCharges
****
Generated from Architector

@<TRIPOS>ATOM
     1 Gd1      -0.0814    0.2470   -0.0803   Gd        1 RES1   0.0000
     2 C1       -5.9770   -0.9988   -4.8147   C.3       1 RES1   0.0000
     3 C2       -5.2977   -0.0745   -3.8131   C.3       1 RES1   0.0000
     4 C3       -6.0747    1.2213   -3.5941   C.3       1 RES1   0.0000
     5 C4       -5.3651    2.1432   -2.6067   C.3       1 RES1   0.0000
     6 C5       -6.1638    3.4249   -2.3824   C.3       1 RES1   0.0000
     7 C6       -5.3979    4.4566   -1.5572   C.3       1 RES1   0.0000
     8 C7       -4.1739    5.0348   -2.2856   C.3       1 RES1   0.0000
     9 C8       -2.8753    4.9775   -1.4740   C.3       1 RES1   0.0000
    10 N1       -2.0852    3.7734   -1.7011   N.am      1 RES1   0.0000
    11 C9       -1.4055    3.6569   -2.9809   C.3       1 RES1   0.0000
    12 C10      -1.7243    2.8857   -0.7887   C.2       1 RES1   0.0000
    13 O1       -0.7892    2.0836   -1.0051   O.2       1 RES1   0.0000
    14 C11      -2.4523    2.7773    0.5484   C.3       1 RES1   0.0000
    15 O2       -2.2410    1.4708    1.0766   O.3       1 RES1   0.0000
    16 C12      -3.3908    0.6403    1.2291   C.3       1 RES1   0.0000
    17 C13      -3.1678   -0.6507    0.4265   C.2       1 RES1   0.0000
    18 O3       -2.2802   -0.6247   -0.4407   O.2       1 RES1   0.0000
    19 N2       -3.9059   -1.7366    0.6404   N.am      1 RES1   0.0000
    20 C14      -4.9648   -1.8732    1.6204   C.3       1 RES1   0.0000
    21 C15      -3.7280   -2.8964   -0.2402   C.3       1 RES1   0.0000
    22 C16      -2.8744   -4.0333    0.3677   C.3       1 RES1   0.0000
    23 C17      -2.0256   -4.6499   -0.7584   C.3       1 RES1   0.0000
    24 C18      -1.2083   -5.9789   -0.6602   C.3       1 RES1   0.0000
    25 C19      -0.4107   -6.6086    0.5156   C.3       1 RES1   0.0000
    26 C20       0.8894   -6.1036    1.1861   C.3       1 RES1   0.0000
    27 C21       2.1089   -5.7165    0.3511   C.3       1 RES1   0.0000
    28 C22       3.2084   -5.1292    1.2371   C.3       1 RES1   0.0000
    29 H1       -5.4132   -1.9219   -4.9252   H         1 RES1   0.0000
    30 H2       -6.0452   -0.5233   -5.7896   H         1 RES1   0.0000
    31 H3       -6.9825   -1.2417   -4.4824   H         1 RES1   0.0000
    32 H4       -4.2946    0.1761   -4.1715   H         1 RES1   0.0000
    33 H5       -5.1872   -0.5848   -2.8498   H         1 RES1   0.0000
    34 H6       -7.0772    0.9979   -3.2242   H         1 RES1   0.0000
    35 H7       -6.1897    1.7452   -4.5448   H         1 RES1   0.0000
    36 H8       -4.3702    2.3753   -2.9938   H         1 RES1   0.0000
    37 H9       -5.2254    1.6203   -1.6543   H         1 RES1   0.0000
    38 H10      -7.0888    3.1710   -1.8600   H         1 RES1   0.0000
    39 H11      -6.4401    3.8515   -3.3480   H         1 RES1   0.0000
    40 H12      -5.0935    3.9861   -0.6190   H         1 RES1   0.0000
    41 H13      -6.0817    5.2632   -1.2978   H         1 RES1   0.0000
    42 H14      -4.3688    6.0764   -2.5260   H         1 RES1   0.0000
    43 H15      -4.0288    4.5199   -3.2330   H         1 RES1   0.0000
    44 H16      -3.0811    5.0855   -0.4108   H         1 RES1   0.0000
    45 H17      -2.2382    5.8145   -1.7689   H         1 RES1   0.0000
    46 H18      -1.6582    4.5088   -3.6020   H         1 RES1   0.0000
    47 H19      -1.7029    2.7306   -3.4714   H         1 RES1   0.0000
    48 H20      -0.3302    3.6167   -2.8166   H         1 RES1   0.0000
    49 H21      -3.5131    3.0009    0.4275   H         1 RES1   0.0000
    50 H22      -2.0291    3.4921    1.2661   H         1 RES1   0.0000
    51 H23      -4.2869    1.1367    0.8418   H         1 RES1   0.0000
    52 H24      -3.5257    0.4418    2.2986   H         1 RES1   0.0000
    53 H25      -4.8284   -1.1989    2.4593   H         1 RES1   0.0000
    54 H26      -4.9592   -2.8950    1.9928   H         1 RES1   0.0000
    55 H27      -5.9490   -1.6877    1.1806   H         1 RES1   0.0000
    56 H28      -3.2469   -2.5304   -1.1490   H         1 RES1   0.0000
    57 H29      -4.7188   -3.2671   -0.5009   H         1 RES1   0.0000
    58 H30      -3.5071   -4.7724    0.8501   H         1 RES1   0.0000
    59 H31      -2.2389   -3.5853    1.1240   H         1 RES1   0.0000
    60 H32      -1.3906   -3.8397   -1.1016   H         1 RES1   0.0000
    61 H33      -2.7137   -4.8531   -1.5861   H         1 RES1   0.0000
    62 H34      -0.5396   -5.9399   -1.5220   H         1 RES1   0.0000
    63 H35      -1.9321   -6.7688   -0.8789   H         1 RES1   0.0000
    64 H36      -0.1727   -7.5947    0.1129   H         1 RES1   0.0000
    65 H37      -1.1124   -6.7809    1.3299   H         1 RES1   0.0000
    66 H38       1.1917   -6.9377    1.8213   H         1 RES1   0.0000
    67 H39       0.6986   -5.2881    1.8764   H         1 RES1   0.0000
    68 H40       1.8521   -4.9986   -0.4304   H         1 RES1   0.0000
    69 H41       2.5053   -6.6073   -0.1308   H         1 RES1   0.0000
    70 H42       2.8754   -4.2390    1.7712   H         1 RES1   0.0000
    71 H43       4.0806   -4.8632    0.6459   H         1 RES1   0.0000
    72 H44       3.5232   -5.8555    1.9798   H         1 RES1   0.0000
    73 C23       0.0159   -7.3462   -4.4461   C.3       1 RES1   0.0000
    74 C24       1.1307   -7.7264   -3.4805   C.3       1 RES1   0.0000
    75 C25       2.0114   -6.5658   -3.0178   C.3       1 RES1   0.0000
    76 C26       3.0222   -6.0538   -4.0369   C.3       1 RES1   0.0000
    77 C27       3.9288   -4.9598   -3.4431   C.3       1 RES1   0.0000
    78 C28       3.3888   -3.5444   -3.6864   C.3       1 RES1   0.0000
    79 C29       4.0701   -2.4402   -2.8611   C.3       1 RES1   0.0000
    80 C30       3.4986   -1.0717   -3.2630   C.3       1 RES1   0.0000
    81 N3        3.8694    0.0627   -2.4137   N.am      1 RES1   0.0000
    82 C31       5.1086    0.7533   -2.7146   C.3       1 RES1   0.0000
    83 C32       3.0168    0.4943   -1.4911   C.2       1 RES1   0.0000
    84 O4        2.0145   -0.1584   -1.1534   O.2       1 RES1   0.0000
    85 C33       3.2550    1.8493   -0.8119   C.3       1 RES1   0.0000
    86 O5        2.0075    2.2945   -0.2719   O.3       1 RES1   0.0000
    87 C34       2.0698    2.8244    1.0413   C.3       1 RES1   0.0000
    88 C35       1.8882    1.6658    2.0380   C.2       1 RES1   0.0000
    89 O6        1.4541    0.5959    1.5600   O.2       1 RES1   0.0000
    90 N4        2.2367    1.7823    3.3065   N.am      1 RES1   0.0000
    91 C36       2.3098    0.5798    4.1159   C.3       1 RES1   0.0000
    92 C37       2.5544    3.0251    3.9879   C.3       1 RES1   0.0000
    93 C38       1.5318    3.4024    5.0690   C.3       1 RES1   0.0000
    94 C39       0.0900    3.6240    4.5927   C.3       1 RES1   0.0000
    95 C40      -0.7856    2.3744    4.6967   C.3       1 RES1   0.0000
    96 C41      -2.2517    2.5624    4.2970   C.3       1 RES1   0.0000
    97 C42      -3.0550    3.5439    5.1568   C.3       1 RES1   0.0000
    98 C43      -3.0608    5.0099    4.7127   C.3       1 RES1   0.0000
    99 C44      -3.5499    5.2336    3.2838   C.3       1 RES1   0.0000
   100 H45      -0.5029   -8.2425   -4.7739   H         1 RES1   0.0000
   101 H46       0.4095   -6.8437   -5.3244   H         1 RES1   0.0000
   102 H47      -0.7193   -6.6986   -3.9691   H         1 RES1   0.0000
   103 H48       1.7614   -8.4829   -3.9423   H         1 RES1   0.0000
   104 H49       0.6799   -8.1792   -2.5965   H         1 RES1   0.0000
   105 H50       2.5751   -6.9162   -2.1554   H         1 RES1   0.0000
   106 H51       1.3822   -5.7389   -2.6820   H         1 RES1   0.0000
   107 H52       2.5215   -5.6720   -4.9256   H         1 RES1   0.0000
   108 H53       3.6399   -6.8922   -4.3482   H         1 RES1   0.0000
   109 H54       4.9164   -5.0354   -3.8938   H         1 RES1   0.0000
   110 H55       4.0555   -5.1344   -2.3725   H         1 RES1   0.0000
   111 H56       2.3181   -3.5303   -3.4735   H         1 RES1   0.0000
   112 H57       3.5211   -3.3126   -4.7450   H         1 RES1   0.0000
   113 H58       5.1425   -2.4605   -3.0534   H         1 RES1   0.0000
   114 H59       3.9230   -2.6150   -1.7912   H         1 RES1   0.0000
   115 H60       2.4072   -1.1151   -3.2584   H         1 RES1   0.0000
   116 H61       3.8218   -0.8438   -4.2805   H         1 RES1   0.0000
   117 H62       5.7353    0.1129   -3.3265   H         1 RES1   0.0000
   118 H63       5.6498    0.9912   -1.8024   H         1 RES1   0.0000
   119 H64       4.9188    1.6739   -3.2659   H         1 RES1   0.0000
   120 H65       3.6067    2.5916   -1.5382   H         1 RES1   0.0000
   121 H66       4.0120    1.7313   -0.0291   H         1 RES1   0.0000
   122 H67       1.2505    3.5461    1.1280   H         1 RES1   0.0000
   123 H68       3.0135    3.3560    1.1920   H         1 RES1   0.0000
   124 H69       2.0718   -0.2800    3.4932   H         1 RES1   0.0000
   125 H70       1.6117    0.6217    4.9463   H         1 RES1   0.0000
   126 H71       3.3200    0.4818    4.5106   H         1 RES1   0.0000
   127 H72       2.6226    3.8360    3.2660   H         1 RES1   0.0000
   128 H73       3.5259    2.9080    4.4747   H         1 RES1   0.0000
   129 H74       1.9027    4.3269    5.5097   H         1 RES1   0.0000
   130 H75       1.5328    2.6545    5.8606   H         1 RES1   0.0000
   131 H76       0.0899    4.0063    3.5699   H         1 RES1   0.0000
   132 H77      -0.3496    4.3892    5.2297   H         1 RES1   0.0000
   133 H78      -0.7728    2.0339    5.7334   H         1 RES1   0.0000
   134 H79      -0.3779    1.5748    4.0699   H         1 RES1   0.0000
   135 H80      -2.7261    1.5789    4.3821   H         1 RES1   0.0000
   136 H81      -2.3104    2.8546    3.2517   H         1 RES1   0.0000
   137 H82      -2.6924    3.4947    6.1836   H         1 RES1   0.0000
   138 H83      -4.0939    3.2100    5.1684   H         1 RES1   0.0000
   139 H84      -2.0748    5.4587    4.8174   H         1 RES1   0.0000
   140 H85      -3.7251    5.5408    5.3946   H         1 RES1   0.0000
   141 H86      -2.7460    5.1005    2.5624   H         1 RES1   0.0000
   142 H87      -3.9147    6.2490    3.1713   H         1 RES1   0.0000
   143 H88      -4.3616    4.5533    3.0369   H         1 RES1   0.0000
   144 C45      -6.7597   -5.6549   -1.1401   C.3       1 RES1   0.0000
   145 C46      -5.7193   -6.4182   -0.3307   C.3       1 RES1   0.0000
   146 C47      -5.9317   -6.2815    1.1742   C.3       1 RES1   0.0000
   147 C48      -4.7993   -6.9570    1.9603   C.3       1 RES1   0.0000
   148 C49      -4.4555   -6.2228    3.2725   C.3       1 RES1   0.0000
   149 C50      -2.9433   -5.9845    3.4429   C.3       1 RES1   0.0000
   150 C51      -2.5663   -4.5555    3.8682   C.3       1 RES1   0.0000
   151 C52      -1.1112   -4.2317    3.4699   C.3       1 RES1   0.0000
   152 N5       -0.9143   -2.8002    3.2483   N.am      1 RES1   0.0000
   153 C53      -1.2861   -1.9559    4.3729   C.3       1 RES1   0.0000
   154 C54      -0.5171   -2.1843    2.1355   C.2       1 RES1   0.0000
   155 O7       -0.6839   -0.9579    1.9844   O.2       1 RES1   0.0000
   156 C55       0.2315   -2.9131    1.0066   C.3       1 RES1   0.0000
   157 O8        0.0661   -2.0916   -0.1427   O.3       1 RES1   0.0000
   158 C56       0.5911   -2.5874   -1.3782   C.3       1 RES1   0.0000
   159 C57      -0.1875   -1.7614   -2.4223   C.2       1 RES1   0.0000
   160 O9       -0.3561   -0.5592   -2.1442   O.2       1 RES1   0.0000
   161 N6       -0.7148   -2.2880   -3.5197   N.am      1 RES1   0.0000
   162 C58      -0.4514   -3.6069   -4.0472   C.3       1 RES1   0.0000
   163 C59      -1.6243   -1.4503   -4.3086   C.3       1 RES1   0.0000
   164 C60      -0.9832   -0.6795   -5.4639   C.3       1 RES1   0.0000
   165 C61       0.1827    0.2116   -5.0275   C.3       1 RES1   0.0000
   166 C62       0.4293    1.3762   -5.9898   C.3       1 RES1   0.0000
   167 C63       1.8622    1.8982   -5.9142   C.3       1 RES1   0.0000
   168 C64       2.2194    2.5981   -4.6008   C.3       1 RES1   0.0000
   169 C65       1.8486    4.0807   -4.5930   C.3       1 RES1   0.0000
   170 C66       2.0946    4.7226   -3.2301   C.3       1 RES1   0.0000
   171 H89      -6.5065   -5.6687   -2.1975   H         1 RES1   0.0000
   172 H90      -6.8272   -4.6160   -0.8145   H         1 RES1   0.0000
   173 H91      -7.7389   -6.1073   -1.0210   H         1 RES1   0.0000
   174 H92      -4.7246   -6.0455   -0.5921   H         1 RES1   0.0000
   175 H93      -5.7519   -7.4723   -0.5992   H         1 RES1   0.0000
   176 H94      -6.8963   -6.7033    1.4511   H         1 RES1   0.0000
   177 H95      -5.9694   -5.2175    1.4213   H         1 RES1   0.0000
   178 H96      -3.9173   -6.9759    1.3163   H         1 RES1   0.0000
   179 H97      -5.0514   -7.9970    2.1556   H         1 RES1   0.0000
   180 H98      -4.8463   -6.7717    4.1263   H         1 RES1   0.0000
   181 H99      -4.9636   -5.2577    3.2644   H         1 RES1   0.0000
   182 H100     -2.4737   -6.1808    2.4768   H         1 RES1   0.0000
   183 H101     -2.5285   -6.6992    4.1534   H         1 RES1   0.0000
   184 H102     -2.7212   -4.4396    4.9397   H         1 RES1   0.0000
   185 H103     -3.2217   -3.8485    3.3568   H         1 RES1   0.0000
   186 H104     -0.9124   -4.7575    2.5424   H         1 RES1   0.0000
   187 H105     -0.4040   -4.5942    4.2221   H         1 RES1   0.0000
   188 H106     -0.9660   -2.4400    5.2902   H         1 RES1   0.0000
   189 H107     -2.3611   -1.7984    4.4139   H         1 RES1   0.0000
   190 H108     -0.7853   -0.9960    4.2746   H         1 RES1   0.0000
   191 H109     -0.1593   -3.9053    0.7950   H         1 RES1   0.0000
   192 H110      1.2971   -2.9849    1.2759   H         1 RES1   0.0000
   193 H111      0.4583   -3.6649   -1.4678   H         1 RES1   0.0000
   194 H112      1.6633   -2.3628   -1.4324   H         1 RES1   0.0000
   195 H113     -0.0475   -4.2744   -3.2944   H         1 RES1   0.0000
   196 H114      0.2555   -3.5477   -4.8754   H         1 RES1   0.0000
   197 H115     -1.3778   -4.0445   -4.4134   H         1 RES1   0.0000
   198 H116     -2.0690   -0.7390   -3.6099   H         1 RES1   0.0000
   199 H117     -2.4121   -2.0958   -4.7028   H         1 RES1   0.0000
   200 H118     -1.7752   -0.0664   -5.8970   H         1 RES1   0.0000
   201 H119     -0.6482   -1.3695   -6.2390   H         1 RES1   0.0000
   202 H120      1.0850   -0.4007   -4.9751   H         1 RES1   0.0000
   203 H121     -0.0179    0.5996   -4.0281   H         1 RES1   0.0000
   204 H122     -0.2699    2.1832   -5.7745   H         1 RES1   0.0000
   205 H123      0.2394    1.0494   -7.0129   H         1 RES1   0.0000
   206 H124      2.0253    2.5902   -6.7385   H         1 RES1   0.0000
   207 H125      2.5373    1.0558   -6.0673   H         1 RES1   0.0000
   208 H126      3.2984    2.5267   -4.4528   H         1 RES1   0.0000
   209 H127      1.7333    2.0922   -3.7613   H         1 RES1   0.0000
   210 H128      0.8030    4.2030   -4.8788   H         1 RES1   0.0000
   211 H129      2.4488    4.6035   -5.3385   H         1 RES1   0.0000
   212 H130      1.5265    4.2145   -2.4485   H         1 RES1   0.0000
   213 H131      1.8082    5.7721   -3.2458   H         1 RES1   0.0000
   214 H132      3.1494    4.6685   -2.9675   H         1 RES1   0.0000
@<TRIPOS>BOND
     1     1    13    1
     2     1    15    1
     3     1    18    1
     4     1    84    1
     5     1    86    1
     6     1    89    1
     7     1   155    1
     8     1   157    1
     9     1   160    1
    10     2     3    1
    11     2    29    1
    12     2    30    1
    13     2    31    1
    14     3     4    1
    15     3    32    1
    16     3    33    1
    17     4     5    1
    18     4    34    1
    19     4    35    1
    20     5     6    1
    21     5    36    1
    22     5    37    1
    23     6     7    1
    24     6    38    1
    25     6    39    1
    26     7     8    1
    27     7    40    1
    28     7    41    1
    29     8     9    1
    30     8    42    1
    31     8    43    1
    32     9    10    1
    33     9    44    1
    34     9    45    1
    35    10    11    1
    36    10    12    1
    37    11    46    1
    38    11    47    1
    39    11    48    1
    40    12    13    2
    41    12    14    1
    42    14    15    1
    43    14    49    1
    44    14    50    1
    45    15    16    1
    46    16    17    1
    47    16    51    1
    48    16    52    1
    49    17    18    2
    50    17    19    1
    51    19    20    1
    52    19    21    1
    53    20    53    1
    54    20    54    1
    55    20    55    1
    56    21    22    1
    57    21    56    1
    58    21    57    1
    59    22    23    1
    60    22    58    1
    61    22    59    1
    62    23    24    1
    63    23    60    1
    64    23    61    1
    65    24    25    1
    66    24    62    1
    67    24    63    1
    68    25    26    1
    69    25    64    1
    70    25    65    1
    71    26    27    1
    72    26    66    1
    73    26    67    1
    74    27    28    1
    75    27    68    1
    76    27    69    1
    77    28    70    1
    78    28    71    1
    79    28    72    1
    80    73    74    1
    81    73   100    1
    82    73   101    1
    83    73   102    1
    84    74    75    1
    85    74   103    1
    86    74   104    1
    87    75    76    1
    88    75   105    1
    89    75   106    1
    90    76    77    1
    91    76   107    1
    92    76   108    1
    93    77    78    1
    94    77   109    1
    95    77   110    1
    96    78    79    1
    97    78   111    1
    98    78   112    1
    99    79    80    1
   100    79   113    1
   101    79   114    1
   102    80    81    1
   103    80   115    1
   104    80   116    1
   105    81    82    1
   106    81    83    1
   107    82   117    1
   108    82   118    1
   109    82   119    1
   110    83    84    2
   111    83    85    1
   112    85    86    1
   113    85   120    1
   114    85   121    1
   115    86    87    1
   116    87    88    1
   117    87   122    1
   118    87   123    1
   119    88    89    2
   120    88    90    1
   121    90    91    1
   122    90    92    1
   123    91   124    1
   124    91   125    1
   125    91   126    1
   126    92    93    1
   127    92   127    1
   128    92   128    1
   129    93    94    1
   130    93   129    1
   131    93   130    1
   132    94    95    1
   133    94   131    1
   134    94   132    1
   135    95    96    1
   136    95   133    1
   137    95   134    1
   138    96    97    1
   139    96   135    1
   140    96   136    1
   141    97    98    1
   142    97   137    1
   143    97   138    1
   144    98    99    1
   145    98   139    1
   146    98   140    1
   147    99   141    1
   148    99   142    1
   149    99   143    1
   150   144   145    1
   151   144   171    1
   152   144   172    1
   153   144   173    1
   154   145   146    1
   155   145   174    1
   156   145   175    1
   157   146   147    1
   158   146   176    1
   159   146   177    1
   160   147   148    1
   161   147   178    1
   162   147   179    1
   163   148   149    1
   164   148   180    1
   165   148   181    1
   166   149   150    1
   167   149   182    1
   168   149   183    1
   169   150   151    1
   170   150   184    1
   171   150   185    1
   172   151   152    1
   173   151   186    1
   174   151   187    1
   175   152   153    1
   176   152   154    1
   177   153   188    1
   178   153   189    1
   179   153   190    1
   180   154   155    2
   181   154   156    1
   182   156   157    1
   183   156   191    1
   184   156   192    1
   185   157   158    1
   186   158   159    1
   187   158   193    1
   188   158   194    1
   189   159   160    2
   190   159   161    1
   191   161   162    1
   192   161   163    1
   193   162   195    1
   194   162   196    1
   195   162   197    1
   196   163   164    1
   197   163   198    1
   198   163   199    1
   199   164   165    1
   200   164   200    1
   201   164   201    1
   202   165   166    1
   203   165   202    1
   204   165   203    1
   205   166   167    1
   206   166   204    1
   207   166   205    1
   208   167   168    1
   209   167   206    1
   210   167   207    1
   211   168   169    1
   212   168   208    1
   213   168   209    1
   214   169   170    1
   215   169   210    1
   216   169   211    1
   217   170   212    1
   218   170   213    1
   219   170   214    1
@<TRIPOS>SUBSTRUCTURE
     1 RES1      214 GROUP             0 ****  ****    0  
