@<TRIPOS>MOLECULE
am_c3_9H2O_c0_0_nunpairedes_0_charge_3 Charge: 3 Unpaired_Electrons: 7 XTB_Unpaired_Electrons: 0 XTB_Charge: 3
   148   161     1     0     0
SMALL
NoCharges
****
Generated from Architector

@<TRIPOS>ATOM
     1 Gd1      -0.0920   -0.0194   -0.0230   Gd        1 RES1   0.0000
     2 C1       -0.2112    2.4604    6.2789   C.3       1 RES1   0.0000
     3 C2       -0.6511    2.6981    4.8392   C.3       1 RES1   0.0000
     4 N1        0.2676    2.1485    3.8325   N.am      1 RES1   0.0000
     5 C3       -0.0809    1.2601    2.8976   C.2       1 RES1   0.0000
     6 O1        0.6391    1.0329    1.8914   O.2       1 RES1   0.0000
     7 C4       -1.3634    0.4670    3.0018   C.ar      1 RES1   0.0000
     8 C5       -1.9875    0.0760    4.1875   C.ar      1 RES1   0.0000
     9 C6       -3.2121   -0.5667    4.0941   C.ar      1 RES1   0.0000
    10 C7       -3.6786   -0.9792    2.8605   C.ar      1 RES1   0.0000
    11 C8       -2.8852   -0.7504    1.7378   C.ar      1 RES1   0.0000
    12 C9       -3.1621   -1.4274    0.4474   C.ar      1 RES1   0.0000
    13 C10      -4.4127   -1.9802    0.1671   C.ar      1 RES1   0.0000
    14 C11      -4.6387   -2.5221   -1.0827   C.ar      1 RES1   0.0000
    15 C12      -3.6257   -2.5206   -2.0296   C.ar      1 RES1   0.0000
    16 C13      -2.3782   -2.0334   -1.6530   C.ar      1 RES1   0.0000
    17 C14      -1.2346   -1.7809   -2.6011   C.2       1 RES1   0.0000
    18 O2       -0.5654   -0.7504   -2.3343   O.2       1 RES1   0.0000
    19 N2       -0.9744   -2.5404   -3.6698   N.am      1 RES1   0.0000
    20 C15      -1.6192   -3.8227   -3.9567   C.3       1 RES1   0.0000
    21 C16      -2.5067   -3.7721   -5.1982   C.3       1 RES1   0.0000
    22 C17      -0.1303   -1.9962   -4.7068   C.ar      1 RES1   0.0000
    23 C18      -0.3837   -0.6711   -5.0735   C.ar      1 RES1   0.0000
    24 C19       0.3162   -0.0455   -6.0838   C.ar      1 RES1   0.0000
    25 C20       1.3003   -0.7334   -6.7811   C.ar      1 RES1   0.0000
    26 C21       2.0667   -0.1037   -7.8940   C.3       1 RES1   0.0000
    27 C22       1.5337   -2.0518   -6.4213   C.ar      1 RES1   0.0000
    28 C23       0.8507   -2.7175   -5.4063   C.ar      1 RES1   0.0000
    29 C24       1.2267   -4.1563   -5.1787   C.3       1 RES1   0.0000
    30 N3       -2.1655   -1.4923   -0.4419   N.ar      1 RES1   0.0000
    31 N4       -1.8131    0.0469    1.8108   N.ar      1 RES1   0.0000
    32 C25       1.5508    2.7977    3.7388   C.ar      1 RES1   0.0000
    33 C26       1.5873    4.1883    3.8859   C.ar      1 RES1   0.0000
    34 C27       2.7568    4.9043    3.7797   C.ar      1 RES1   0.0000
    35 C28       3.9543    4.2652    3.4899   C.ar      1 RES1   0.0000
    36 C29       5.2093    5.0483    3.2998   C.3       1 RES1   0.0000
    37 C30       3.9230    2.8826    3.3890   C.ar      1 RES1   0.0000
    38 C31       2.7615    2.1204    3.5249   C.ar      1 RES1   0.0000
    39 C32       2.9423    0.6273    3.4673   C.3       1 RES1   0.0000
    40 H1       -0.9527    2.9045    6.9379   H         1 RES1   0.0000
    41 H2        0.7451    2.9279    6.4902   H         1 RES1   0.0000
    42 H3       -0.1235    1.4031    6.5124   H         1 RES1   0.0000
    43 H4       -0.7261    3.7739    4.6666   H         1 RES1   0.0000
    44 H5       -1.6467    2.2916    4.6809   H         1 RES1   0.0000
    45 H6       -1.5235    0.2152    5.1497   H         1 RES1   0.0000
    46 H7       -3.7742   -0.7758    4.9878   H         1 RES1   0.0000
    47 H8       -4.6006   -1.5281    2.8081   H         1 RES1   0.0000
    48 H9       -5.2216   -1.9145    0.8705   H         1 RES1   0.0000
    49 H10      -5.6122   -2.9038   -1.3336   H         1 RES1   0.0000
    50 H11      -3.8402   -2.8281   -3.0392   H         1 RES1   0.0000
    51 H12      -2.1758   -4.1336   -3.0743   H         1 RES1   0.0000
    52 H13      -0.8375   -4.5640   -4.1179   H         1 RES1   0.0000
    53 H14      -3.2708   -3.0014   -5.1305   H         1 RES1   0.0000
    54 H15      -2.9935   -4.7361   -5.3118   H         1 RES1   0.0000
    55 H16      -1.9210   -3.5800   -6.0935   H         1 RES1   0.0000
    56 H17      -1.1683   -0.1225   -4.5711   H         1 RES1   0.0000
    57 H18       0.0729    0.9666   -6.3675   H         1 RES1   0.0000
    58 H19       1.7541    0.9264   -8.0464   H         1 RES1   0.0000
    59 H20       1.9071   -0.6637   -8.8151   H         1 RES1   0.0000
    60 H21       3.1347   -0.1341   -7.6807   H         1 RES1   0.0000
    61 H22       2.2766   -2.5963   -6.9825   H         1 RES1   0.0000
    62 H23       2.1647   -4.3723   -5.6899   H         1 RES1   0.0000
    63 H24       0.4770   -4.8186   -5.6163   H         1 RES1   0.0000
    64 H25       1.3381   -4.3867   -4.1187   H         1 RES1   0.0000
    65 H26       0.6923    4.7580    4.0733   H         1 RES1   0.0000
    66 H27       2.7392    5.9709    3.9270   H         1 RES1   0.0000
    67 H28       5.0152    6.1112    3.4275   H         1 RES1   0.0000
    68 H29       5.6067    4.8774    2.2994   H         1 RES1   0.0000
    69 H30       5.9708    4.7388    4.0143   H         1 RES1   0.0000
    70 H31       4.8605    2.3760    3.2148   H         1 RES1   0.0000
    71 H32       3.7694    0.3583    4.1279   H         1 RES1   0.0000
    72 H33       3.2119    0.3293    2.4490   H         1 RES1   0.0000
    73 H34       2.0506    0.0778    3.7638   H         1 RES1   0.0000
    74 C33       3.2729   -3.3046    3.3387   C.3       1 RES1   0.0000
    75 C34       2.0159   -4.1580    3.3894   C.3       1 RES1   0.0000
    76 N5        0.8364   -3.3870    2.9819   N.am      1 RES1   0.0000
    77 C35       0.7234   -2.7486    1.8218   C.2       1 RES1   0.0000
    78 O3       -0.1983   -1.9340    1.5913   O.2       1 RES1   0.0000
    79 C36       1.6463   -2.9737    0.6533   C.ar      1 RES1   0.0000
    80 C37       2.0941   -4.2232    0.2382   C.ar      1 RES1   0.0000
    81 C38       2.8029   -4.3089   -0.9477   C.ar      1 RES1   0.0000
    82 C39       3.0231   -3.1675   -1.6946   C.ar      1 RES1   0.0000
    83 C40       2.4834   -1.9590   -1.2559   C.ar      1 RES1   0.0000
    84 C41       2.5897   -0.7296   -2.0711   C.ar      1 RES1   0.0000
    85 C42       3.4733   -0.6270   -3.1443   C.ar      1 RES1   0.0000
    86 C43       3.5724    0.5840   -3.8038   C.ar      1 RES1   0.0000
    87 C44       2.7156    1.6211   -3.4677   C.ar      1 RES1   0.0000
    88 C45       1.7590    1.3943   -2.4777   C.ar      1 RES1   0.0000
    89 C46       0.6565    2.3352   -2.0646   C.2       1 RES1   0.0000
    90 O4        0.2131    2.2093   -0.8977   O.2       1 RES1   0.0000
    91 N6        0.1335    3.2226   -2.9218   N.am      1 RES1   0.0000
    92 C47       0.2267    3.1194   -4.3785   C.3       1 RES1   0.0000
    93 C48       0.7883    4.3577   -5.0620   C.3       1 RES1   0.0000
    94 C49      -0.7622    4.2321   -2.4277   C.ar      1 RES1   0.0000
    95 C50      -1.9754    4.4631   -3.0861   C.ar      1 RES1   0.0000
    96 C51      -2.8405    5.4571   -2.6798   C.ar      1 RES1   0.0000
    97 C52      -2.5443    6.2457   -1.5736   C.ar      1 RES1   0.0000
    98 C53      -3.4825    7.3021   -1.0965   C.3       1 RES1   0.0000
    99 C54      -1.3337    6.0187   -0.9350   C.ar      1 RES1   0.0000
   100 C55      -0.4185    5.0496   -1.3420   C.ar      1 RES1   0.0000
   101 C56       0.8865    4.9937   -0.6056   C.3       1 RES1   0.0000
   102 N7        1.7660    0.2711   -1.7485   N.ar      1 RES1   0.0000
   103 N8        1.8010   -1.8759   -0.1053   N.ar      1 RES1   0.0000
   104 C57      -0.1444   -3.1644    4.0092   C.ar      1 RES1   0.0000
   105 C58       0.2964   -2.7131    5.2536   C.ar      1 RES1   0.0000
   106 C59      -0.5771   -2.5824    6.3152   C.ar      1 RES1   0.0000
   107 C60      -1.9249   -2.8873    6.1610   C.ar      1 RES1   0.0000
   108 C61      -2.8819   -2.7807    7.3034   C.3       1 RES1   0.0000
   109 C62      -2.3517   -3.3186    4.9105   C.ar      1 RES1   0.0000
   110 C63      -1.4945   -3.4785    3.8261   C.ar      1 RES1   0.0000
   111 C64      -2.0336   -4.0313    2.5416   C.3       1 RES1   0.0000
   112 H35       4.1250   -3.8895    3.6634   H         1 RES1   0.0000
   113 H36       3.1767   -2.4433    3.9924   H         1 RES1   0.0000
   114 H37       3.4534   -2.9495    2.3279   H         1 RES1   0.0000
   115 H38       1.8273   -4.5181    4.4029   H         1 RES1   0.0000
   116 H39       2.1168   -5.0413    2.7583   H         1 RES1   0.0000
   117 H40       1.8367   -5.1222    0.7720   H         1 RES1   0.0000
   118 H41       3.1493   -5.2687   -1.2924   H         1 RES1   0.0000
   119 H42       3.5337   -3.2448   -2.6364   H         1 RES1   0.0000
   120 H43       4.1016   -1.4477   -3.4388   H         1 RES1   0.0000
   121 H44       4.3014    0.7117   -4.5863   H         1 RES1   0.0000
   122 H45       2.8016    2.5756   -3.9608   H         1 RES1   0.0000
   123 H46      -0.7907    2.9567   -4.7474   H         1 RES1   0.0000
   124 H47       0.8094    2.2333   -4.6196   H         1 RES1   0.0000
   125 H48       0.1684    5.2270   -4.8655   H         1 RES1   0.0000
   126 H49       0.7854    4.1758   -6.1325   H         1 RES1   0.0000
   127 H50       1.8026    4.5861   -4.7490   H         1 RES1   0.0000
   128 H51      -2.2736    3.8765   -3.9419   H         1 RES1   0.0000
   129 H52      -3.7468    5.6321   -3.2374   H         1 RES1   0.0000
   130 H53      -4.3682    7.3475   -1.7261   H         1 RES1   0.0000
   131 H54      -2.9895    8.2736   -1.1048   H         1 RES1   0.0000
   132 H55      -3.7825    7.0962   -0.0688   H         1 RES1   0.0000
   133 H56      -1.0775    6.6502   -0.0975   H         1 RES1   0.0000
   134 H57       1.2897    6.0047   -0.5422   H         1 RES1   0.0000
   135 H58       1.6227    4.3496   -1.0812   H         1 RES1   0.0000
   136 H59       0.7185    4.6258    0.4091   H         1 RES1   0.0000
   137 H60       1.3380   -2.4750    5.4109   H         1 RES1   0.0000
   138 H61      -0.2016   -2.2726    7.2785   H         1 RES1   0.0000
   139 H62      -2.3660   -2.4730    8.2103   H         1 RES1   0.0000
   140 H63      -3.3589   -3.7452    7.4765   H         1 RES1   0.0000
   141 H64      -3.6749   -2.0640    7.0850   H         1 RES1   0.0000
   142 H65      -3.3912   -3.5844    4.7897   H         1 RES1   0.0000
   143 H66      -3.1020   -4.2108    2.6398   H         1 RES1   0.0000
   144 H67      -1.5421   -4.9739    2.3004   H         1 RES1   0.0000
   145 H68      -1.8614   -3.3341    1.7212   H         1 RES1   0.0000
   146 O5       -2.2442    1.3395   -0.7404   O.3       1 RES1   0.0000
   147 H69      -2.2268    2.2265   -0.3498   H         1 RES1   0.0000
   148 H70      -2.3121    1.4878   -1.6937   H         1 RES1   0.0000
@<TRIPOS>BOND
     1     1     6    1
     2     1    18    1
     3     1    30    1
     4     1    31    1
     5     1    78    1
     6     1    90    1
     7     1   102    1
     8     1   103    1
     9     1   146    1
    10     2     3    1
    11     2    40    1
    12     2    41    1
    13     2    42    1
    14     3     4    1
    15     3    43    1
    16     3    44    1
    17     4     5    1
    18     4    32    1
    19     5     6    2
    20     5     7    1
    21     7     8    1
    22     7    31    2
    23     8     9    2
    24     8    45    1
    25     9    10    1
    26     9    46    1
    27    10    11    2
    28    10    47    1
    29    11    12    1
    30    11    31    1
    31    12    13    1
    32    12    30    2
    33    13    14    2
    34    13    48    1
    35    14    15    1
    36    14    49    1
    37    15    16    2
    38    15    50    1
    39    16    17    1
    40    16    30    1
    41    17    18    2
    42    17    19    1
    43    19    20    1
    44    19    22    1
    45    20    21    1
    46    20    51    1
    47    20    52    1
    48    21    53    1
    49    21    54    1
    50    21    55    1
    51    22    23    1
    52    22    28    2
    53    23    24    2
    54    23    56    1
    55    24    25    1
    56    24    57    1
    57    25    26    1
    58    25    27    2
    59    26    58    1
    60    26    59    1
    61    26    60    1
    62    27    28    1
    63    27    61    1
    64    28    29    1
    65    29    62    1
    66    29    63    1
    67    29    64    1
    68    32    33    1
    69    32    38    2
    70    33    34    2
    71    33    65    1
    72    34    35    1
    73    34    66    1
    74    35    36    1
    75    35    37    2
    76    36    67    1
    77    36    68    1
    78    36    69    1
    79    37    38    1
    80    37    70    1
    81    38    39    1
    82    39    71    1
    83    39    72    1
    84    39    73    1
    85    74    75    1
    86    74   112    1
    87    74   113    1
    88    74   114    1
    89    75    76    1
    90    75   115    1
    91    75   116    1
    92    76    77    1
    93    76   104    1
    94    77    78    2
    95    77    79    1
    96    79    80    1
    97    79   103    2
    98    80    81    2
    99    80   117    1
   100    81    82    1
   101    81   118    1
   102    82    83    2
   103    82   119    1
   104    83    84    1
   105    83   103    1
   106    84    85    1
   107    84   102    2
   108    85    86    2
   109    85   120    1
   110    86    87    1
   111    86   121    1
   112    87    88    2
   113    87   122    1
   114    88    89    1
   115    88   102    1
   116    89    90    2
   117    89    91    1
   118    91    92    1
   119    91    94    1
   120    92    93    1
   121    92   123    1
   122    92   124    1
   123    93   125    1
   124    93   126    1
   125    93   127    1
   126    94    95    1
   127    94   100    2
   128    95    96    2
   129    95   128    1
   130    96    97    1
   131    96   129    1
   132    97    98    1
   133    97    99    2
   134    98   130    1
   135    98   131    1
   136    98   132    1
   137    99   100    1
   138    99   133    1
   139   100   101    1
   140   101   134    1
   141   101   135    1
   142   101   136    1
   143   104   105    1
   144   104   110    2
   145   105   106    2
   146   105   137    1
   147   106   107    1
   148   106   138    1
   149   107   108    1
   150   107   109    2
   151   108   139    1
   152   108   140    1
   153   108   141    1
   154   109   110    1
   155   109   142    1
   156   110   111    1
   157   111   143    1
   158   111   144    1
   159   111   145    1
   160   146   147    1
   161   146   148    1
@<TRIPOS>SUBSTRUCTURE
     1 RES1      148 GROUP             0 ****  ****    0  
