@<TRIPOS>MOLECULE
am_c3_9H2O_c0_0_nunpairedes_0_charge_3 Charge: 3 Unpaired_Electrons: 7 XTB_Unpaired_Electrons: 0 XTB_Charge: 3
   328   333     1     0     0
SMALL
NoCharges
****
Generated from Architector

@<TRIPOS>ATOM
     1 Gd1      -0.0782    0.0240   -0.2248   Gd        1 RES1   0.0000
     2 C1       -7.6087    4.6892    1.8880   C.3       1 RES1   0.0000
     3 C2       -7.9448    3.5040    0.9930   C.3       1 RES1   0.0000
     4 C3       -7.5311    2.1471    1.5982   C.3       1 RES1   0.0000
     5 C4       -6.4268    1.4308    0.8101   C.3       1 RES1   0.0000
     6 C5       -5.0234    1.5512    1.3998   C.3       1 RES1   0.0000
     7 C6       -4.6953    0.6497    2.6123   C.3       1 RES1   0.0000
     8 N1       -3.4486   -0.1202    2.4751   N.am      1 RES1   0.0000
     9 C7       -3.4611   -1.5752    2.7121   C.3       1 RES1   0.0000
    10 C8       -4.3079   -2.1408    3.8606   C.3       1 RES1   0.0000
    11 C9       -3.5650   -2.9402    4.9540   C.3       1 RES1   0.0000
    12 C10      -2.5162   -3.8995    4.3854   C.3       1 RES1   0.0000
    13 C11      -4.5923   -3.7458    5.7724   C.3       1 RES1   0.0000
    14 C12      -4.1346   -3.9440    7.2219   C.3       1 RES1   0.0000
    15 C13      -3.9683   -2.6208    7.9068   C.2       1 RES1   0.0000
    16 C14      -2.8729   -2.1705    8.5074   C.2       1 RES1   0.0000
    17 C15      -2.8441   -0.8230    9.1613   C.3       1 RES1   0.0000
    18 C16      -1.5996   -2.9650    8.6206   C.3       1 RES1   0.0000
    19 C17      -2.3354    0.3607    1.9487   C.2       1 RES1   0.0000
    20 O1       -1.3004   -0.3291    1.7610   O.2       1 RES1   0.0000
    21 C18      -2.1936    1.8111    1.5257   C.3       1 RES1   0.0000
    22 O2       -2.0771    1.7604    0.0947   O.3       1 RES1   0.0000
    23 C19      -1.7494    2.9778   -0.5812   C.3       1 RES1   0.0000
    24 C20      -0.7329    2.6769   -1.6900   C.2       1 RES1   0.0000
    25 O3       -0.6012    1.4774   -2.0118   O.2       1 RES1   0.0000
    26 N2       -0.1611    3.6837   -2.3520   N.am      1 RES1   0.0000
    27 C21       0.1687    3.4620   -3.7632   C.3       1 RES1   0.0000
    28 C22      -1.1006    3.4301   -4.6260   C.3       1 RES1   0.0000
    29 C23      -1.9165    4.7241   -4.6513   C.3       1 RES1   0.0000
    30 C24      -3.0766    4.6500   -5.6520   C.3       1 RES1   0.0000
    31 C25      -4.3030    3.9108   -5.1062   C.3       1 RES1   0.0000
    32 C26      -5.2839    3.5197   -6.2101   C.3       1 RES1   0.0000
    33 C27      -0.1215    5.0541   -1.8422   C.3       1 RES1   0.0000
    34 C28       1.1558    5.8566   -2.1349   C.3       1 RES1   0.0000
    35 C29       2.3984    5.3895   -1.3640   C.3       1 RES1   0.0000
    36 C30       2.2571    5.6823    0.1303   C.3       1 RES1   0.0000
    37 C31       3.6749    6.1093   -1.8271   C.3       1 RES1   0.0000
    38 C32       4.0571    5.9409   -3.3061   C.3       1 RES1   0.0000
    39 C33       3.9084    4.5387   -3.8210   C.2       1 RES1   0.0000
    40 C34       4.6264    3.4757   -3.4804   C.2       1 RES1   0.0000
    41 C35       4.3251    2.1299   -4.0754   C.3       1 RES1   0.0000
    42 C36       5.7565    3.5152   -2.4952   C.3       1 RES1   0.0000
    43 H1       -7.9061    5.6239    1.4223   H         1 RES1   0.0000
    44 H2       -8.1268    4.6139    2.8386   H         1 RES1   0.0000
    45 H3       -6.5413    4.7338    2.0765   H         1 RES1   0.0000
    46 H4       -9.0178    3.5008    0.8081   H         1 RES1   0.0000
    47 H5       -7.4629    3.6449    0.0237   H         1 RES1   0.0000
    48 H6       -7.2003    2.2904    2.6259   H         1 RES1   0.0000
    49 H7       -8.4073    1.4979    1.6450   H         1 RES1   0.0000
    50 H8       -6.6620    0.3809    0.6797   H         1 RES1   0.0000
    51 H9       -6.3685    1.8503   -0.1943   H         1 RES1   0.0000
    52 H10      -4.3280    1.3040    0.5949   H         1 RES1   0.0000
    53 H11      -4.8937    2.5989    1.6676   H         1 RES1   0.0000
    54 H12      -4.6266    1.2340    3.5362   H         1 RES1   0.0000
    55 H13      -5.5002   -0.0717    2.7552   H         1 RES1   0.0000
    56 H14      -3.8313   -2.0032    1.7796   H         1 RES1   0.0000
    57 H15      -2.4156   -1.8552    2.8432   H         1 RES1   0.0000
    58 H16      -4.8481   -1.3404    4.3580   H         1 RES1   0.0000
    59 H17      -5.0433   -2.8164    3.4165   H         1 RES1   0.0000
    60 H18      -3.0701   -2.2398    5.6344   H         1 RES1   0.0000
    61 H19      -2.8988   -4.3964    3.4946   H         1 RES1   0.0000
    62 H20      -1.5909   -3.3803    4.1381   H         1 RES1   0.0000
    63 H21      -2.2650   -4.6664    5.1144   H         1 RES1   0.0000
    64 H22      -5.5473   -3.2202    5.7838   H         1 RES1   0.0000
    65 H23      -4.7490   -4.7163    5.2951   H         1 RES1   0.0000
    66 H24      -4.8970   -4.5283    7.7463   H         1 RES1   0.0000
    67 H25      -3.2015   -4.5069    7.2307   H         1 RES1   0.0000
    68 H26      -4.8514   -1.9944    7.8983   H         1 RES1   0.0000
    69 H27      -3.7822   -0.2977    9.0079   H         1 RES1   0.0000
    70 H28      -2.6710   -0.9321   10.2304   H         1 RES1   0.0000
    71 H29      -2.0307   -0.2195    8.7597   H         1 RES1   0.0000
    72 H30      -1.7587   -3.8647    9.2127   H         1 RES1   0.0000
    73 H31      -1.2261   -3.2705    7.6431   H         1 RES1   0.0000
    74 H32      -0.8251   -2.3812    9.1096   H         1 RES1   0.0000
    75 H33      -2.9745    2.4824    1.8628   H         1 RES1   0.0000
    76 H34      -1.2447    2.1215    1.9600   H         1 RES1   0.0000
    77 H35      -2.6414    3.3647   -1.0974   H         1 RES1   0.0000
    78 H36      -1.4090    3.7306    0.1208   H         1 RES1   0.0000
    79 H37       0.8257    4.2588   -4.1056   H         1 RES1   0.0000
    80 H38       0.6885    2.5044   -3.8514   H         1 RES1   0.0000
    81 H39      -0.7797    3.2134   -5.6453   H         1 RES1   0.0000
    82 H40      -1.7319    2.6056   -4.2939   H         1 RES1   0.0000
    83 H41      -2.3335    4.9362   -3.6649   H         1 RES1   0.0000
    84 H42      -1.2675    5.5553   -4.9278   H         1 RES1   0.0000
    85 H43      -3.3792    5.6612   -5.9270   H         1 RES1   0.0000
    86 H44      -2.7343    4.1577   -6.5630   H         1 RES1   0.0000
    87 H45      -3.9869    3.0061   -4.5753   H         1 RES1   0.0000
    88 H46      -4.8311    4.5525   -4.3947   H         1 RES1   0.0000
    89 H47      -4.8255    2.8292   -6.9165   H         1 RES1   0.0000
    90 H48      -6.1641    3.0376   -5.7852   H         1 RES1   0.0000
    91 H49      -5.6132    4.3991   -6.7594   H         1 RES1   0.0000
    92 H50      -0.9683    5.6178   -2.2381   H         1 RES1   0.0000
    93 H51      -0.2313    5.0207   -0.7628   H         1 RES1   0.0000
    94 H52       1.3701    5.8661   -3.2008   H         1 RES1   0.0000
    95 H53       0.9407    6.8922   -1.8586   H         1 RES1   0.0000
    96 H54       2.5215    4.3111   -1.5286   H         1 RES1   0.0000
    97 H55       2.1827    6.7588    0.2783   H         1 RES1   0.0000
    98 H56       1.3826    5.2016    0.5549   H         1 RES1   0.0000
    99 H57       3.1379    5.3416    0.6708   H         1 RES1   0.0000
   100 H58       3.5735    7.1772   -1.6195   H         1 RES1   0.0000
   101 H59       4.4955    5.7441   -1.2063   H         1 RES1   0.0000
   102 H60       3.4478    6.6094   -3.9154   H         1 RES1   0.0000
   103 H61       5.0921    6.2779   -3.4133   H         1 RES1   0.0000
   104 H62       3.1383    4.4038   -4.5692   H         1 RES1   0.0000
   105 H63       3.6492    2.2228   -4.9203   H         1 RES1   0.0000
   106 H64       5.2381    1.6520   -4.4211   H         1 RES1   0.0000
   107 H65       3.8612    1.4795   -3.3320   H         1 RES1   0.0000
   108 H66       6.1433    4.5233   -2.3873   H         1 RES1   0.0000
   109 H67       5.4375    3.1644   -1.5116   H         1 RES1   0.0000
   110 H68       6.5693    2.8721   -2.8247   H         1 RES1   0.0000
   111 C37      -0.0912   -6.6488   -1.4992   C.3       1 RES1   0.0000
   112 C38       0.0398   -5.4239   -2.4054   C.3       1 RES1   0.0000
   113 C39       1.2454   -4.5762   -1.9881   C.3       1 RES1   0.0000
   114 C40       1.2824   -3.1553   -2.5814   C.3       1 RES1   0.0000
   115 C41       2.6821   -2.8420   -3.1287   C.3       1 RES1   0.0000
   116 C42       3.0676   -1.3617   -3.1495   C.3       1 RES1   0.0000
   117 N3        3.6228   -0.8518   -1.8888   N.am      1 RES1   0.0000
   118 C43       4.9553   -1.3291   -1.5584   C.3       1 RES1   0.0000
   119 C44       6.1179   -0.6560   -2.3055   C.3       1 RES1   0.0000
   120 C45       7.4211   -0.8477   -1.5033   C.3       1 RES1   0.0000
   121 C46       8.6273   -0.9264   -2.4354   C.3       1 RES1   0.0000
   122 C47       7.6021    0.2873   -0.4817   C.3       1 RES1   0.0000
   123 C48       8.3725   -0.1642    0.7663   C.3       1 RES1   0.0000
   124 C49       7.5140   -0.8199    1.8064   C.2       1 RES1   0.0000
   125 C50       7.7381   -1.9634    2.4487   C.2       1 RES1   0.0000
   126 C51       6.9287   -2.3358    3.6586   C.3       1 RES1   0.0000
   127 C52       8.8243   -2.9331    2.1092   C.3       1 RES1   0.0000
   128 C53       2.9270    0.0181   -1.1770   C.2       1 RES1   0.0000
   129 O4        1.7356    0.2890   -1.4498   O.2       1 RES1   0.0000
   130 C54       3.5509    0.8174   -0.0236   C.3       1 RES1   0.0000
   131 O5        2.5569    0.9178    0.9877   O.3       1 RES1   0.0000
   132 C55       2.6492    2.0522    1.8420   C.3       1 RES1   0.0000
   133 C56       1.2795    2.7463    1.7922   C.2       1 RES1   0.0000
   134 O6        0.4808    2.2785    0.9522   O.2       1 RES1   0.0000
   135 N4        0.9960    3.7827    2.5811   N.am      1 RES1   0.0000
   136 C57       1.9285    4.2943    3.5744   C.3       1 RES1   0.0000
   137 C58       1.5396    3.9940    5.0231   C.3       1 RES1   0.0000
   138 C59       1.6024    2.5248    5.4404   C.3       1 RES1   0.0000
   139 C60       0.4316    1.6591    4.9634   C.3       1 RES1   0.0000
   140 C61       0.4475    0.2913    5.6531   C.3       1 RES1   0.0000
   141 C62      -0.7581   -0.5544    5.2562   C.3       1 RES1   0.0000
   142 C63      -0.3710    4.3536    2.6063   C.3       1 RES1   0.0000
   143 C64      -0.5363    5.8911    2.6560   C.3       1 RES1   0.0000
   144 C65      -1.4695    6.5203    1.5772   C.3       1 RES1   0.0000
   145 C66      -0.7893    7.7351    0.9364   C.3       1 RES1   0.0000
   146 C67      -2.8487    7.0075    2.0657   C.3       1 RES1   0.0000
   147 C68      -3.9719    5.9617    2.1288   C.3       1 RES1   0.0000
   148 C69      -4.1380    5.1874    0.8504   C.2       1 RES1   0.0000
   149 C70      -4.8059    5.5236   -0.2510   C.2       1 RES1   0.0000
   150 C71      -4.9108    4.5735   -1.4176   C.3       1 RES1   0.0000
   151 C72      -5.5243    6.8142   -0.4753   C.3       1 RES1   0.0000
   152 H69      -0.7006   -7.4178   -1.9657   H         1 RES1   0.0000
   153 H70      -0.5394   -6.3897   -0.5379   H         1 RES1   0.0000
   154 H71       0.8932   -7.0771   -1.3148   H         1 RES1   0.0000
   155 H72      -0.8771   -4.8265   -2.3818   H         1 RES1   0.0000
   156 H73       0.1831   -5.7568   -3.4359   H         1 RES1   0.0000
   157 H74       2.1320   -5.1254   -2.3094   H         1 RES1   0.0000
   158 H75       1.2930   -4.5153   -0.8984   H         1 RES1   0.0000
   159 H76       0.9933   -2.4163   -1.8153   H         1 RES1   0.0000
   160 H77       0.5580   -3.0797   -3.3941   H         1 RES1   0.0000
   161 H78       2.7381   -3.2115   -4.1533   H         1 RES1   0.0000
   162 H79       3.4214   -3.4031   -2.5560   H         1 RES1   0.0000
   163 H80       2.1929   -0.7587   -3.3988   H         1 RES1   0.0000
   164 H81       3.8382   -1.1977   -3.9082   H         1 RES1   0.0000
   165 H82       4.9681   -2.3926   -1.7976   H         1 RES1   0.0000
   166 H83       5.1189   -1.2355   -0.4834   H         1 RES1   0.0000
   167 H84       5.9277    0.4108   -2.4260   H         1 RES1   0.0000
   168 H85       6.2385   -1.0905   -3.3009   H         1 RES1   0.0000
   169 H86       7.3582   -1.7955   -0.9548   H         1 RES1   0.0000
   170 H87       8.6871   -0.0450   -3.0703   H         1 RES1   0.0000
   171 H88       8.5656   -1.8087   -3.0664   H         1 RES1   0.0000
   172 H89       9.5470   -0.9943   -1.8613   H         1 RES1   0.0000
   173 H90       6.6264    0.6745   -0.1674   H         1 RES1   0.0000
   174 H91       8.1404    1.1081   -0.9633   H         1 RES1   0.0000
   175 H92       8.8111    0.7189    1.2423   H         1 RES1   0.0000
   176 H93       9.1958   -0.8121    0.4718   H         1 RES1   0.0000
   177 H94       6.6812   -0.2054    2.1388   H         1 RES1   0.0000
   178 H95       6.0038   -1.7654    3.7185   H         1 RES1   0.0000
   179 H96       7.5177   -2.1131    4.5469   H         1 RES1   0.0000
   180 H97       6.7031   -3.3984    3.6857   H         1 RES1   0.0000
   181 H98       9.2728   -2.7229    1.1445   H         1 RES1   0.0000
   182 H99       8.4347   -3.9498    2.0977   H         1 RES1   0.0000
   183 H100      9.6042   -2.8947    2.8662   H         1 RES1   0.0000
   184 H101      3.7583    1.8146   -0.4355   H         1 RES1   0.0000
   185 H102      4.4877    0.4156    0.3851   H         1 RES1   0.0000
   186 H103      3.4262    2.7417    1.4945   H         1 RES1   0.0000
   187 H104      2.9079    1.7158    2.8531   H         1 RES1   0.0000
   188 H105      1.9721    5.3781    3.4632   H         1 RES1   0.0000
   189 H106      2.9208    3.9038    3.3652   H         1 RES1   0.0000
   190 H107      0.5427    4.3818    5.2291   H         1 RES1   0.0000
   191 H108      2.2433    4.5437    5.6481   H         1 RES1   0.0000
   192 H109      1.6053    2.4914    6.5329   H         1 RES1   0.0000
   193 H110      2.5440    2.0798    5.1102   H         1 RES1   0.0000
   194 H111      0.4579    1.4966    3.8768   H         1 RES1   0.0000
   195 H112     -0.5114    2.1573    5.2135   H         1 RES1   0.0000
   196 H113      0.4459    0.4392    6.7361   H         1 RES1   0.0000
   197 H114      1.3685   -0.2377    5.3876   H         1 RES1   0.0000
   198 H115     -1.6834   -0.0425    5.5188   H         1 RES1   0.0000
   199 H116     -0.7322   -1.5070    5.7796   H         1 RES1   0.0000
   200 H117     -0.7524   -0.7386    4.1808   H         1 RES1   0.0000
   201 H118     -0.8938    3.8925    3.4515   H         1 RES1   0.0000
   202 H119     -0.8398    4.0097    1.6926   H         1 RES1   0.0000
   203 H120      0.4388    6.3517    2.5235   H         1 RES1   0.0000
   204 H121     -0.8980    6.1900    3.6397   H         1 RES1   0.0000
   205 H122     -1.6555    5.7872    0.7859   H         1 RES1   0.0000
   206 H123     -0.7087    8.5466    1.6541   H         1 RES1   0.0000
   207 H124     -1.3784    8.0871    0.0938   H         1 RES1   0.0000
   208 H125      0.2011    7.5002    0.5657   H         1 RES1   0.0000
   209 H126     -3.1847    7.7625    1.3521   H         1 RES1   0.0000
   210 H127     -2.7555    7.4981    3.0365   H         1 RES1   0.0000
   211 H128     -4.8940    6.4996    2.3565   H         1 RES1   0.0000
   212 H129     -3.8003    5.2595    2.9499   H         1 RES1   0.0000
   213 H130     -3.6554    4.2183    0.8574   H         1 RES1   0.0000
   214 H131     -4.6799    3.5410   -1.1440   H         1 RES1   0.0000
   215 H132     -4.2546    4.8737   -2.2390   H         1 RES1   0.0000
   216 H133     -5.9267    4.5989   -1.8100   H         1 RES1   0.0000
   217 H134     -5.4990    7.4619    0.3922   H         1 RES1   0.0000
   218 H135     -6.5644    6.6194   -0.7310   H         1 RES1   0.0000
   219 H136     -5.0839    7.3429   -1.3190   H         1 RES1   0.0000
   220 C73       6.3483   -4.8887   -3.0405   C.3       1 RES1   0.0000
   221 C74       5.6016   -5.5433   -1.8850   C.3       1 RES1   0.0000
   222 C75       5.8134   -4.8318   -0.5381   C.3       1 RES1   0.0000
   223 C76       4.4986   -4.5358    0.1888   C.3       1 RES1   0.0000
   224 C77       4.7303   -3.7292    1.4714   C.3       1 RES1   0.0000
   225 C78       3.6085   -2.7396    1.7936   C.3       1 RES1   0.0000
   226 N5        2.2788   -3.3239    1.9151   N.am      1 RES1   0.0000
   227 C79       2.0683   -4.2325    3.0354   C.3       1 RES1   0.0000
   228 C80       2.3724   -5.7162    2.7973   C.3       1 RES1   0.0000
   229 C81       2.1033   -6.5536    4.0641   C.3       1 RES1   0.0000
   230 C82       2.6526   -5.8687    5.3196   C.3       1 RES1   0.0000
   231 C83       2.7477   -7.9441    3.9531   C.3       1 RES1   0.0000
   232 C84       2.1380   -8.8774    2.8966   C.3       1 RES1   0.0000
   233 C85       2.5582   -8.5971    1.4833   C.2       1 RES1   0.0000
   234 C86       3.7408   -8.8854    0.9537   C.2       1 RES1   0.0000
   235 C87       4.0314   -8.6394   -0.4951   C.3       1 RES1   0.0000
   236 C88       4.8855   -9.4737    1.7160   C.3       1 RES1   0.0000
   237 C89       1.3001   -2.7651    1.2170   C.2       1 RES1   0.0000
   238 O7        1.4605   -1.7529    0.4999   O.2       1 RES1   0.0000
   239 C90      -0.0895   -3.3977    1.2438   C.3       1 RES1   0.0000
   240 O8       -0.8388   -2.6329    0.3216   O.3       1 RES1   0.0000
   241 C91      -2.1280   -3.1382    0.0290   C.3       1 RES1   0.0000
   242 C92      -2.8263   -1.9823   -0.6912   C.2       1 RES1   0.0000
   243 O9       -2.1178   -1.0006   -1.0064   O.2       1 RES1   0.0000
   244 N6       -4.1098   -2.0481   -1.0112   N.am      1 RES1   0.0000
   245 C93      -4.5613   -1.0562   -1.9902   C.3       1 RES1   0.0000
   246 C94      -3.7802   -1.1883   -3.3014   C.3       1 RES1   0.0000
   247 C95      -4.5386   -0.6477   -4.5085   C.3       1 RES1   0.0000
   248 C96      -3.6979   -0.7648   -5.7812   C.3       1 RES1   0.0000
   249 C97      -2.5953    0.2861   -5.8848   C.3       1 RES1   0.0000
   250 C98      -1.9704    0.2923   -7.2717   C.3       1 RES1   0.0000
   251 C99      -5.1146   -3.0002   -0.5376   C.3       1 RES1   0.0000
   252 C100     -6.2011   -2.2430    0.2473   C.3       1 RES1   0.0000
   253 C101     -7.1804   -3.0429    1.1353   C.3       1 RES1   0.0000
   254 C102     -8.1166   -3.9111    0.2974   C.3       1 RES1   0.0000
   255 C103     -8.0154   -2.0148    1.9493   C.3       1 RES1   0.0000
   256 C104     -7.9001   -2.0275    3.4906   C.3       1 RES1   0.0000
   257 C105     -8.1380   -0.6274    3.9966   C.2       1 RES1   0.0000
   258 C106     -7.6076    0.0466    5.0115   C.2       1 RES1   0.0000
   259 C107     -7.9885    1.4808    5.2459   C.3       1 RES1   0.0000
   260 C108     -6.6400   -0.4640    6.0397   C.3       1 RES1   0.0000
   261 H137      6.1951   -5.4647   -3.9479   H         1 RES1   0.0000
   262 H138      7.4154   -4.8543   -2.8417   H         1 RES1   0.0000
   263 H139      5.9963   -3.8749   -3.2220   H         1 RES1   0.0000
   264 H140      5.9288   -6.5785   -1.8156   H         1 RES1   0.0000
   265 H141      4.5353   -5.5693   -2.1184   H         1 RES1   0.0000
   266 H142      6.3500   -3.8949   -0.7010   H         1 RES1   0.0000
   267 H143      6.4420   -5.4381    0.1134   H         1 RES1   0.0000
   268 H144      4.0025   -5.4812    0.4137   H         1 RES1   0.0000
   269 H145      3.8384   -3.9694   -0.4716   H         1 RES1   0.0000
   270 H146      5.6357   -3.1283    1.3504   H         1 RES1   0.0000
   271 H147      4.9046   -4.4005    2.3120   H         1 RES1   0.0000
   272 H148      3.5335   -2.0025    0.9938   H         1 RES1   0.0000
   273 H149      3.8525   -2.2143    2.7226   H         1 RES1   0.0000
   274 H150      1.0372   -4.1361    3.3810   H         1 RES1   0.0000
   275 H151      2.7233   -3.8788    3.8347   H         1 RES1   0.0000
   276 H152      3.4192   -5.8524    2.5339   H         1 RES1   0.0000
   277 H153      1.7668   -6.0914    1.9721   H         1 RES1   0.0000
   278 H154      1.0198   -6.6775    4.1775   H         1 RES1   0.0000
   279 H155      3.7000   -5.6083    5.1816   H         1 RES1   0.0000
   280 H156      2.5855   -6.5415    6.1691   H         1 RES1   0.0000
   281 H157      2.0881   -4.9746    5.5707   H         1 RES1   0.0000
   282 H158      2.6382   -8.4316    4.9235   H         1 RES1   0.0000
   283 H159      3.8171   -7.8325    3.7661   H         1 RES1   0.0000
   284 H160      1.0503   -8.8307    2.9740   H         1 RES1   0.0000
   285 H161      2.4354   -9.8970    3.1549   H         1 RES1   0.0000
   286 H162      1.7909   -8.1879    0.8380   H         1 RES1   0.0000
   287 H163      3.2835   -8.0006   -0.9584   H         1 RES1   0.0000
   288 H164      4.0427   -9.5866   -1.0311   H         1 RES1   0.0000
   289 H165      5.0124   -8.1872   -0.6142   H         1 RES1   0.0000
   290 H166      4.5581   -9.9818    2.6155   H         1 RES1   0.0000
   291 H167      5.5901   -8.6942    2.0044   H         1 RES1   0.0000
   292 H168      5.4227  -10.1802    1.0904   H         1 RES1   0.0000
   293 H169     -0.5315   -3.3310    2.2489   H         1 RES1   0.0000
   294 H170     -0.0587   -4.4561    0.9462   H         1 RES1   0.0000
   295 H171     -2.6454   -3.4559    0.9403   H         1 RES1   0.0000
   296 H172     -2.0553   -3.9984   -0.6567   H         1 RES1   0.0000
   297 H173     -4.4255   -0.0578   -1.5698   H         1 RES1   0.0000
   298 H174     -5.6188   -1.2294   -2.1669   H         1 RES1   0.0000
   299 H175     -3.5739   -2.2466   -3.4637   H         1 RES1   0.0000
   300 H176     -2.8215   -0.6762   -3.2184   H         1 RES1   0.0000
   301 H177     -4.8098    0.3950   -4.3353   H         1 RES1   0.0000
   302 H178     -5.4621   -1.2150   -4.6360   H         1 RES1   0.0000
   303 H179     -4.3550   -0.6614   -6.6443   H         1 RES1   0.0000
   304 H180     -3.2570   -1.7622   -5.8298   H         1 RES1   0.0000
   305 H181     -3.0289    1.2662   -5.6876   H         1 RES1   0.0000
   306 H182     -1.8200    0.1059   -5.1357   H         1 RES1   0.0000
   307 H183     -1.5316   -0.6735   -7.5033   H         1 RES1   0.0000
   308 H184     -1.1935    1.0479   -7.3433   H         1 RES1   0.0000
   309 H185     -2.7263    0.5034   -8.0219   H         1 RES1   0.0000
   310 H186     -4.6429   -3.7730    0.0672   H         1 RES1   0.0000
   311 H187     -5.5576   -3.4764   -1.4115   H         1 RES1   0.0000
   312 H188     -6.8224   -1.7019   -0.4669   H         1 RES1   0.0000
   313 H189     -5.6917   -1.5100    0.8757   H         1 RES1   0.0000
   314 H190     -6.6224   -3.6920    1.8196   H         1 RES1   0.0000
   315 H191     -8.5749   -3.3142   -0.4870   H         1 RES1   0.0000
   316 H192     -8.9080   -4.3163    0.9235   H         1 RES1   0.0000
   317 H193     -7.5896   -4.7444   -0.1563   H         1 RES1   0.0000
   318 H194     -9.0707   -2.1269    1.7043   H         1 RES1   0.0000
   319 H195     -7.7360   -1.0177    1.6124   H         1 RES1   0.0000
   320 H196     -6.9323   -2.4046    3.8110   H         1 RES1   0.0000
   321 H197     -8.6517   -2.7079    3.9033   H         1 RES1   0.0000
   322 H198     -8.8610   -0.0946    3.3921   H         1 RES1   0.0000
   323 H199     -8.8512    1.7697    4.6542   H         1 RES1   0.0000
   324 H200     -7.1568    2.1411    4.9947   H         1 RES1   0.0000
   325 H201     -8.2180    1.6325    6.2976   H         1 RES1   0.0000
   326 H202     -5.6533   -0.0018    5.9177   H         1 RES1   0.0000
   327 H203     -7.0032   -0.1763    7.0276   H         1 RES1   0.0000
   328 H204     -6.5425   -1.5467    6.0166   H         1 RES1   0.0000
@<TRIPOS>BOND
     1     1    20    1
     2     1    22    1
     3     1    25    1
     4     1   129    1
     5     1   131    1
     6     1   134    1
     7     1   238    1
     8     1   240    1
     9     1   243    1
    10     2     3    1
    11     2    43    1
    12     2    44    1
    13     2    45    1
    14     3     4    1
    15     3    46    1
    16     3    47    1
    17     4     5    1
    18     4    48    1
    19     4    49    1
    20     5     6    1
    21     5    50    1
    22     5    51    1
    23     6     7    1
    24     6    52    1
    25     6    53    1
    26     7     8    1
    27     7    54    1
    28     7    55    1
    29     8     9    1
    30     8    19    1
    31     9    10    1
    32     9    56    1
    33     9    57    1
    34    10    11    1
    35    10    58    1
    36    10    59    1
    37    11    12    1
    38    11    13    1
    39    11    60    1
    40    12    61    1
    41    12    62    1
    42    12    63    1
    43    13    14    1
    44    13    64    1
    45    13    65    1
    46    14    15    1
    47    14    66    1
    48    14    67    1
    49    15    16    2
    50    15    68    1
    51    16    17    1
    52    16    18    1
    53    17    69    1
    54    17    70    1
    55    17    71    1
    56    18    72    1
    57    18    73    1
    58    18    74    1
    59    19    20    2
    60    19    21    1
    61    21    22    1
    62    21    75    1
    63    21    76    1
    64    22    23    1
    65    23    24    1
    66    23    77    1
    67    23    78    1
    68    24    25    2
    69    24    26    1
    70    26    27    1
    71    26    33    1
    72    27    28    1
    73    27    79    1
    74    27    80    1
    75    28    29    1
    76    28    81    1
    77    28    82    1
    78    29    30    1
    79    29    83    1
    80    29    84    1
    81    30    31    1
    82    30    85    1
    83    30    86    1
    84    31    32    1
    85    31    87    1
    86    31    88    1
    87    32    89    1
    88    32    90    1
    89    32    91    1
    90    33    34    1
    91    33    92    1
    92    33    93    1
    93    34    35    1
    94    34    94    1
    95    34    95    1
    96    35    36    1
    97    35    37    1
    98    35    96    1
    99    36    97    1
   100    36    98    1
   101    36    99    1
   102    37    38    1
   103    37   100    1
   104    37   101    1
   105    38    39    1
   106    38   102    1
   107    38   103    1
   108    39    40    2
   109    39   104    1
   110    40    41    1
   111    40    42    1
   112    41   105    1
   113    41   106    1
   114    41   107    1
   115    42   108    1
   116    42   109    1
   117    42   110    1
   118   111   112    1
   119   111   152    1
   120   111   153    1
   121   111   154    1
   122   112   113    1
   123   112   155    1
   124   112   156    1
   125   113   114    1
   126   113   157    1
   127   113   158    1
   128   114   115    1
   129   114   159    1
   130   114   160    1
   131   115   116    1
   132   115   161    1
   133   115   162    1
   134   116   117    1
   135   116   163    1
   136   116   164    1
   137   117   118    1
   138   117   128    1
   139   118   119    1
   140   118   165    1
   141   118   166    1
   142   119   120    1
   143   119   167    1
   144   119   168    1
   145   120   121    1
   146   120   122    1
   147   120   169    1
   148   121   170    1
   149   121   171    1
   150   121   172    1
   151   122   123    1
   152   122   173    1
   153   122   174    1
   154   123   124    1
   155   123   175    1
   156   123   176    1
   157   124   125    2
   158   124   177    1
   159   125   126    1
   160   125   127    1
   161   126   178    1
   162   126   179    1
   163   126   180    1
   164   127   181    1
   165   127   182    1
   166   127   183    1
   167   128   129    2
   168   128   130    1
   169   130   131    1
   170   130   184    1
   171   130   185    1
   172   131   132    1
   173   132   133    1
   174   132   186    1
   175   132   187    1
   176   133   134    2
   177   133   135    1
   178   135   136    1
   179   135   142    1
   180   136   137    1
   181   136   188    1
   182   136   189    1
   183   137   138    1
   184   137   190    1
   185   137   191    1
   186   138   139    1
   187   138   192    1
   188   138   193    1
   189   139   140    1
   190   139   194    1
   191   139   195    1
   192   140   141    1
   193   140   196    1
   194   140   197    1
   195   141   198    1
   196   141   199    1
   197   141   200    1
   198   142   143    1
   199   142   201    1
   200   142   202    1
   201   143   144    1
   202   143   203    1
   203   143   204    1
   204   144   145    1
   205   144   146    1
   206   144   205    1
   207   145   206    1
   208   145   207    1
   209   145   208    1
   210   146   147    1
   211   146   209    1
   212   146   210    1
   213   147   148    1
   214   147   211    1
   215   147   212    1
   216   148   149    2
   217   148   213    1
   218   149   150    1
   219   149   151    1
   220   150   214    1
   221   150   215    1
   222   150   216    1
   223   151   217    1
   224   151   218    1
   225   151   219    1
   226   220   221    1
   227   220   261    1
   228   220   262    1
   229   220   263    1
   230   221   222    1
   231   221   264    1
   232   221   265    1
   233   222   223    1
   234   222   266    1
   235   222   267    1
   236   223   224    1
   237   223   268    1
   238   223   269    1
   239   224   225    1
   240   224   270    1
   241   224   271    1
   242   225   226    1
   243   225   272    1
   244   225   273    1
   245   226   227    1
   246   226   237    1
   247   227   228    1
   248   227   274    1
   249   227   275    1
   250   228   229    1
   251   228   276    1
   252   228   277    1
   253   229   230    1
   254   229   231    1
   255   229   278    1
   256   230   279    1
   257   230   280    1
   258   230   281    1
   259   231   232    1
   260   231   282    1
   261   231   283    1
   262   232   233    1
   263   232   284    1
   264   232   285    1
   265   233   234    2
   266   233   286    1
   267   234   235    1
   268   234   236    1
   269   235   287    1
   270   235   288    1
   271   235   289    1
   272   236   290    1
   273   236   291    1
   274   236   292    1
   275   237   238    2
   276   237   239    1
   277   239   240    1
   278   239   293    1
   279   239   294    1
   280   240   241    1
   281   241   242    1
   282   241   295    1
   283   241   296    1
   284   242   243    2
   285   242   244    1
   286   244   245    1
   287   244   251    1
   288   245   246    1
   289   245   297    1
   290   245   298    1
   291   246   247    1
   292   246   299    1
   293   246   300    1
   294   247   248    1
   295   247   301    1
   296   247   302    1
   297   248   249    1
   298   248   303    1
   299   248   304    1
   300   249   250    1
   301   249   305    1
   302   249   306    1
   303   250   307    1
   304   250   308    1
   305   250   309    1
   306   251   252    1
   307   251   310    1
   308   251   311    1
   309   252   253    1
   310   252   312    1
   311   252   313    1
   312   253   254    1
   313   253   255    1
   314   253   314    1
   315   254   315    1
   316   254   316    1
   317   254   317    1
   318   255   256    1
   319   255   318    1
   320   255   319    1
   321   256   257    1
   322   256   320    1
   323   256   321    1
   324   257   258    2
   325   257   322    1
   326   258   259    1
   327   258   260    1
   328   259   323    1
   329   259   324    1
   330   259   325    1
   331   260   326    1
   332   260   327    1
   333   260   328    1
@<TRIPOS>SUBSTRUCTURE
     1 RES1      328 GROUP             0 ****  ****    0  
