@<TRIPOS>MOLECULE
am_c3_9H2O_c0_0_nunpairedes_0_charge_3 Charge: 3 Unpaired_Electrons: 7 XTB_Unpaired_Electrons: 0 XTB_Charge: 3
   148   161     1     0     0
SMALL
NoCharges
****
Generated from Architector

@<TRIPOS>ATOM
     1 Gd1       0.0648    0.0144    0.0428   Gd        1 RES1   0.0000
     2 C1       -3.0500   -3.0586    3.3583   C.3       1 RES1   0.0000
     3 C2       -1.8466   -3.9932    3.2930   C.3       1 RES1   0.0000
     4 N1       -1.0963   -3.7678    2.0477   N.am      1 RES1   0.0000
     5 C3       -0.5270   -2.5857    1.7823   C.2       1 RES1   0.0000
     6 O1       -0.1803   -2.2548    0.6217   O.2       1 RES1   0.0000
     7 C4       -0.2446   -1.5543    2.8711   C.ar      1 RES1   0.0000
     8 C5        0.1298   -1.8186    4.1876   C.ar      1 RES1   0.0000
     9 C6        0.3541   -0.7545    5.0454   C.ar      1 RES1   0.0000
    10 C7        0.3517    0.5389    4.5601   C.ar      1 RES1   0.0000
    11 C8        0.1388    0.7238    3.1952   C.ar      1 RES1   0.0000
    12 C9        0.3870    2.0473    2.5681   C.ar      1 RES1   0.0000
    13 C10       0.4537    3.2307    3.3084   C.ar      1 RES1   0.0000
    14 C11       0.6497    4.4245    2.6372   C.ar      1 RES1   0.0000
    15 C12       0.7993    4.4307    1.2603   C.ar      1 RES1   0.0000
    16 C13       0.8321    3.2022    0.6025   C.ar      1 RES1   0.0000
    17 C14       1.0175    3.0097   -0.8803   C.2       1 RES1   0.0000
    18 O2        0.8860    1.8534   -1.3368   O.2       1 RES1   0.0000
    19 N2        1.2260    4.0699   -1.6722   N.am      1 RES1   0.0000
    20 C15       1.1281    3.8746   -3.1202   C.3       1 RES1   0.0000
    21 C16      -0.3200    3.8703   -3.5900   C.3       1 RES1   0.0000
    22 C17       1.9954    5.1875   -1.2193   C.ar      1 RES1   0.0000
    23 C18       3.1969    4.8738   -0.5828   C.ar      1 RES1   0.0000
    24 C19       4.0110    5.8604   -0.0609   C.ar      1 RES1   0.0000
    25 C20       5.2716    5.5392    0.6685   C.3       1 RES1   0.0000
    26 C21       3.6064    7.1839   -0.2198   C.ar      1 RES1   0.0000
    27 C22       2.4459    7.4937   -0.8950   C.ar      1 RES1   0.0000
    28 C23       1.6037    6.5126   -1.4121   C.ar      1 RES1   0.0000
    29 C24       0.3314    6.8980   -2.0982   C.3       1 RES1   0.0000
    30 N3        0.6007    2.0501    1.2472   N.ar      1 RES1   0.0000
    31 N4       -0.2191   -0.2959    2.4010   N.ar      1 RES1   0.0000
    32 C25      -1.3321   -4.7651    1.0241   C.ar      1 RES1   0.0000
    33 C26      -2.5934   -5.3732    1.0023   C.ar      1 RES1   0.0000
    34 C27      -2.9282   -6.3956    0.1284   C.ar      1 RES1   0.0000
    35 C28      -4.2689   -7.0524    0.1878   C.3       1 RES1   0.0000
    36 C29      -1.9767   -6.7984   -0.7983   C.ar      1 RES1   0.0000
    37 C30      -0.7316   -6.2177   -0.7851   C.ar      1 RES1   0.0000
    38 C31      -0.3610   -5.2256    0.1211   C.ar      1 RES1   0.0000
    39 C32       1.0853   -4.8386    0.1006   C.3       1 RES1   0.0000
    40 H1       -3.6599   -3.2882    4.2229   H         1 RES1   0.0000
    41 H2       -3.6830   -3.1525    2.4837   H         1 RES1   0.0000
    42 H3       -2.7197   -2.0239    3.4087   H         1 RES1   0.0000
    43 H4       -2.1261   -5.0488    3.3185   H         1 RES1   0.0000
    44 H5       -1.2212   -3.8304    4.1648   H         1 RES1   0.0000
    45 H6        0.2942   -2.8151    4.5562   H         1 RES1   0.0000
    46 H7        0.5917   -0.9409    6.0775   H         1 RES1   0.0000
    47 H8        0.5891    1.3638    5.2124   H         1 RES1   0.0000
    48 H9        0.3161    3.2432    4.3774   H         1 RES1   0.0000
    49 H10       0.6745    5.3547    3.1790   H         1 RES1   0.0000
    50 H11       0.8853    5.3653    0.7315   H         1 RES1   0.0000
    51 H12       1.5951    2.9144   -3.3613   H         1 RES1   0.0000
    52 H13       1.6911    4.6711   -3.6058   H         1 RES1   0.0000
    53 H14      -0.8632    3.0686   -3.1006   H         1 RES1   0.0000
    54 H15      -0.3397    3.7181   -4.6631   H         1 RES1   0.0000
    55 H16      -0.8129    4.8134   -3.3808   H         1 RES1   0.0000
    56 H17       3.4846    3.8331   -0.5049   H         1 RES1   0.0000
    57 H18       5.4596    4.4688    0.7020   H         1 RES1   0.0000
    58 H19       5.2056    5.9186    1.6875   H         1 RES1   0.0000
    59 H20       6.1115    6.0300    0.1810   H         1 RES1   0.0000
    60 H21       4.2140    7.9727    0.1950   H         1 RES1   0.0000
    61 H22       2.1720    8.5287   -1.0086   H         1 RES1   0.0000
    62 H23       0.1576    7.9642   -1.9850   H         1 RES1   0.0000
    63 H24      -0.5082    6.3526   -1.6701   H         1 RES1   0.0000
    64 H25       0.3921    6.6803   -3.1630   H         1 RES1   0.0000
    65 H26      -3.3704   -5.0775    1.6871   H         1 RES1   0.0000
    66 H27      -4.4167   -7.5350    1.1544   H         1 RES1   0.0000
    67 H28      -4.3504   -7.8083   -0.5897   H         1 RES1   0.0000
    68 H29      -5.0668   -6.3221    0.0566   H         1 RES1   0.0000
    69 H30      -2.2078   -7.5720   -1.5129   H         1 RES1   0.0000
    70 H31       0.0018   -6.5746   -1.4907   H         1 RES1   0.0000
    71 H32       1.5698   -5.2813   -0.7685   H         1 RES1   0.0000
    72 H33       1.5698   -5.2366    0.9883   H         1 RES1   0.0000
    73 H34       1.2143   -3.7595    0.0651   H         1 RES1   0.0000
    74 C33       5.9089   -1.6331   -0.0862   C.3       1 RES1   0.0000
    75 C34       5.1608   -2.6013    0.8201   C.3       1 RES1   0.0000
    76 N5        3.9163   -1.9975    1.3128   N.am      1 RES1   0.0000
    77 C35       2.9478   -1.4453    0.5714   C.2       1 RES1   0.0000
    78 O3        2.1643   -0.6015    1.0635   O.2       1 RES1   0.0000
    79 C36       2.6623   -1.8485   -0.8786   C.ar      1 RES1   0.0000
    80 C37       3.3458   -2.7797   -1.6590   C.ar      1 RES1   0.0000
    81 C38       2.9002   -3.0456   -2.9444   C.ar      1 RES1   0.0000
    82 C39       1.7598   -2.4383   -3.4258   C.ar      1 RES1   0.0000
    83 C40       1.0972   -1.5371   -2.5907   C.ar      1 RES1   0.0000
    84 C41      -0.1128   -0.8286   -3.0885   C.ar      1 RES1   0.0000
    85 C42      -0.4495   -0.8312   -4.4475   C.ar      1 RES1   0.0000
    86 C43      -1.4623   -0.0010   -4.8915   C.ar      1 RES1   0.0000
    87 C44      -2.1013    0.8406   -3.9960   C.ar      1 RES1   0.0000
    88 C45      -1.7884    0.7128   -2.6449   C.ar      1 RES1   0.0000
    89 C46      -2.3582    1.5712   -1.5466   C.2       1 RES1   0.0000
    90 O4       -1.7780    1.5477   -0.4341   O.2       1 RES1   0.0000
    91 N6       -3.4051    2.3778   -1.7373   N.am      1 RES1   0.0000
    92 C47      -3.7757    3.2374   -0.6088   C.3       1 RES1   0.0000
    93 C48      -2.7662    4.3478   -0.3554   C.3       1 RES1   0.0000
    94 C49      -4.3596    2.2353   -2.7927   C.ar      1 RES1   0.0000
    95 C50      -4.8750    0.9539   -3.0055   C.ar      1 RES1   0.0000
    96 C51      -5.7396    0.6869   -4.0500   C.ar      1 RES1   0.0000
    97 C52      -6.2007   -0.6971   -4.3586   C.3       1 RES1   0.0000
    98 C53      -6.1432    1.7567   -4.8461   C.ar      1 RES1   0.0000
    99 C54      -5.7023    3.0330   -4.5818   C.ar      1 RES1   0.0000
   100 C55      -4.7943    3.3161   -3.5633   C.ar      1 RES1   0.0000
   101 C56      -4.3229    4.7245   -3.3834   C.3       1 RES1   0.0000
   102 N7       -0.8326   -0.1228   -2.2084   N.ar      1 RES1   0.0000
   103 N8        1.5640   -1.2425   -1.3684   N.ar      1 RES1   0.0000
   104 C57       3.9343   -1.8616    2.7622   C.ar      1 RES1   0.0000
   105 C58       4.8549   -1.0133    3.3700   C.ar      1 RES1   0.0000
   106 C59       5.0776   -1.0502    4.7445   C.ar      1 RES1   0.0000
   107 C60       6.1802   -0.2821    5.3984   C.3       1 RES1   0.0000
   108 C61       4.2940   -1.9028    5.5127   C.ar      1 RES1   0.0000
   109 C62       3.3801   -2.7412    4.9168   C.ar      1 RES1   0.0000
   110 C63       3.2140   -2.7727    3.5383   C.ar      1 RES1   0.0000
   111 C64       2.3877   -3.8570    2.9294   C.3       1 RES1   0.0000
   112 H35       6.8136   -2.1026   -0.4514   H         1 RES1   0.0000
   113 H36       6.1970   -0.7471    0.4704   H         1 RES1   0.0000
   114 H37       5.3034   -1.3211   -0.9322   H         1 RES1   0.0000
   115 H38       5.7691   -2.8268    1.7010   H         1 RES1   0.0000
   116 H39       4.9579   -3.5621    0.3403   H         1 RES1   0.0000
   117 H40       4.2013   -3.3278   -1.3175   H         1 RES1   0.0000
   118 H41       3.4466   -3.7370   -3.5613   H         1 RES1   0.0000
   119 H42       1.4058   -2.6806   -4.4154   H         1 RES1   0.0000
   120 H43       0.0873   -1.4298   -5.1653   H         1 RES1   0.0000
   121 H44      -1.7180    0.0318   -5.9372   H         1 RES1   0.0000
   122 H45      -2.8111    1.5714   -4.3443   H         1 RES1   0.0000
   123 H46      -3.8437    2.6056    0.2843   H         1 RES1   0.0000
   124 H47      -4.7640    3.6404   -0.8204   H         1 RES1   0.0000
   125 H48      -1.7997    3.9230   -0.1013   H         1 RES1   0.0000
   126 H49      -3.1217    4.9505    0.4719   H         1 RES1   0.0000
   127 H50      -2.6567    4.9932   -1.2192   H         1 RES1   0.0000
   128 H51      -4.5756    0.1497   -2.3457   H         1 RES1   0.0000
   129 H52      -5.7997   -1.4257   -3.6578   H         1 RES1   0.0000
   130 H53      -5.8774   -0.9623   -5.3650   H         1 RES1   0.0000
   131 H54      -7.2873   -0.7438   -4.3366   H         1 RES1   0.0000
   132 H55      -6.8049    1.5767   -5.6786   H         1 RES1   0.0000
   133 H56      -6.0517    3.8396   -5.2029   H         1 RES1   0.0000
   134 H57      -4.7092    5.3420   -4.1895   H         1 RES1   0.0000
   135 H58      -3.2363    4.7655   -3.3966   H         1 RES1   0.0000
   136 H59      -4.6827    5.1443   -2.4461   H         1 RES1   0.0000
   137 H60       5.4564   -0.3574    2.7568   H         1 RES1   0.0000
   138 H61       7.1434   -0.5852    4.9865   H         1 RES1   0.0000
   139 H62       6.1835   -0.4910    6.4660   H         1 RES1   0.0000
   140 H63       6.0734    0.7900    5.2456   H         1 RES1   0.0000
   141 H64       4.4431   -1.9502    6.5799   H         1 RES1   0.0000
   142 H65       2.8363   -3.4404    5.5335   H         1 RES1   0.0000
   143 H66       1.8982   -4.4429    3.7043   H         1 RES1   0.0000
   144 H67       3.0465   -4.5271    2.3771   H         1 RES1   0.0000
   145 H68       1.6451   -3.4410    2.2560   H         1 RES1   0.0000
   146 O5       -2.4972   -0.7061    0.6557   O.3       1 RES1   0.0000
   147 H69      -2.9231    0.0050    1.1558   H         1 RES1   0.0000
   148 H70      -3.0983   -0.9220   -0.0693   H         1 RES1   0.0000
@<TRIPOS>BOND
     1     1     6    1
     2     1    18    1
     3     1    30    1
     4     1    31    1
     5     1    78    1
     6     1    90    1
     7     1   102    1
     8     1   103    1
     9     1   146    1
    10     2     3    1
    11     2    40    1
    12     2    41    1
    13     2    42    1
    14     3     4    1
    15     3    43    1
    16     3    44    1
    17     4     5    1
    18     4    32    1
    19     5     6    2
    20     5     7    1
    21     7     8    1
    22     7    31    2
    23     8     9    2
    24     8    45    1
    25     9    10    1
    26     9    46    1
    27    10    11    2
    28    10    47    1
    29    11    12    1
    30    11    31    1
    31    12    13    1
    32    12    30    2
    33    13    14    2
    34    13    48    1
    35    14    15    1
    36    14    49    1
    37    15    16    2
    38    15    50    1
    39    16    17    1
    40    16    30    1
    41    17    18    2
    42    17    19    1
    43    19    20    1
    44    19    22    1
    45    20    21    1
    46    20    51    1
    47    20    52    1
    48    21    53    1
    49    21    54    1
    50    21    55    1
    51    22    23    1
    52    22    28    2
    53    23    24    2
    54    23    56    1
    55    24    25    1
    56    24    26    1
    57    25    57    1
    58    25    58    1
    59    25    59    1
    60    26    27    2
    61    26    60    1
    62    27    28    1
    63    27    61    1
    64    28    29    1
    65    29    62    1
    66    29    63    1
    67    29    64    1
    68    32    33    1
    69    32    38    2
    70    33    34    2
    71    33    65    1
    72    34    35    1
    73    34    36    1
    74    35    66    1
    75    35    67    1
    76    35    68    1
    77    36    37    2
    78    36    69    1
    79    37    38    1
    80    37    70    1
    81    38    39    1
    82    39    71    1
    83    39    72    1
    84    39    73    1
    85    74    75    1
    86    74   112    1
    87    74   113    1
    88    74   114    1
    89    75    76    1
    90    75   115    1
    91    75   116    1
    92    76    77    1
    93    76   104    1
    94    77    78    2
    95    77    79    1
    96    79    80    1
    97    79   103    2
    98    80    81    2
    99    80   117    1
   100    81    82    1
   101    81   118    1
   102    82    83    2
   103    82   119    1
   104    83    84    1
   105    83   103    1
   106    84    85    1
   107    84   102    2
   108    85    86    2
   109    85   120    1
   110    86    87    1
   111    86   121    1
   112    87    88    2
   113    87   122    1
   114    88    89    1
   115    88   102    1
   116    89    90    2
   117    89    91    1
   118    91    92    1
   119    91    94    1
   120    92    93    1
   121    92   123    1
   122    92   124    1
   123    93   125    1
   124    93   126    1
   125    93   127    1
   126    94    95    1
   127    94   100    2
   128    95    96    2
   129    95   128    1
   130    96    97    1
   131    96    98    1
   132    97   129    1
   133    97   130    1
   134    97   131    1
   135    98    99    2
   136    98   132    1
   137    99   100    1
   138    99   133    1
   139   100   101    1
   140   101   134    1
   141   101   135    1
   142   101   136    1
   143   104   105    1
   144   104   110    2
   145   105   106    2
   146   105   137    1
   147   106   107    1
   148   106   108    1
   149   107   138    1
   150   107   139    1
   151   107   140    1
   152   108   109    2
   153   108   141    1
   154   109   110    1
   155   109   142    1
   156   110   111    1
   157   111   143    1
   158   111   144    1
   159   111   145    1
   160   146   147    1
   161   146   148    1
@<TRIPOS>SUBSTRUCTURE
     1 RES1      148 GROUP             0 ****  ****    0  
