@<TRIPOS>MOLECULE
am_c3_9H2O_c0_0_nunpairedes_0_charge_3 Charge: 3 Unpaired_Electrons: 7 XTB_Unpaired_Electrons: 0 XTB_Charge: 3
   361   369     1     0     0
SMALL
NoCharges
****
Generated from Architector

@<TRIPOS>ATOM
     1 Gd1       0.0529   -0.0720   -0.0090   Gd        1 RES1   0.0000
     2 C1       -8.8748    1.9365   -5.1045   C.3       1 RES1   0.0000
     3 C2       -8.5989    3.4030   -4.7985   C.3       1 RES1   0.0000
     4 C3       -7.1143    3.6689   -4.5679   C.3       1 RES1   0.0000
     5 C4       -6.8617    5.1079   -4.1221   C.3       1 RES1   0.0000
     6 C5       -5.3812    5.4171   -3.8964   C.3       1 RES1   0.0000
     7 C6       -4.7982    4.5147   -2.8088   C.3       1 RES1   0.0000
     8 C7       -3.4637    4.9930   -2.2508   C.3       1 RES1   0.0000
     9 C8       -2.7644    3.8915   -1.4592   C.3       1 RES1   0.0000
    10 P1       -2.1023    2.4005   -2.3308   P.3       1 RES1   0.0000
    11 O1       -0.8971    1.9088   -1.5960   O.2       1 RES1   0.0000
    12 C9       -1.8475    3.1049   -4.0235   C.3       1 RES1   0.0000
    13 C10      -1.0296    2.3665   -5.0692   C.3       1 RES1   0.0000
    14 C11      -1.7197    1.1142   -5.5960   C.3       1 RES1   0.0000
    15 C12      -2.8853    1.2901   -6.5717   C.3       1 RES1   0.0000
    16 C13      -3.3749   -0.1030   -6.9767   C.3       1 RES1   0.0000
    17 C14      -4.3765   -0.1652   -8.1285   C.3       1 RES1   0.0000
    18 C15      -5.8102    0.2494   -7.7756   C.3       1 RES1   0.0000
    19 C16      -6.1146    1.7100   -8.0901   C.3       1 RES1   0.0000
    20 C17      -3.3250    0.9846   -2.2746   C.3       1 RES1   0.0000
    21 C18      -4.0117    0.8898   -0.9542   C.ar      1 RES1   0.0000
    22 C19      -5.2188    1.5281   -0.7350   C.ar      1 RES1   0.0000
    23 C20      -5.8660    1.4454    0.4832   C.ar      1 RES1   0.0000
    24 C21      -5.2785    0.6818    1.4751   C.ar      1 RES1   0.0000
    25 C22      -4.0816    0.0226    1.2368   C.ar      1 RES1   0.0000
    26 C23      -3.4573   -0.7518    2.3534   C.3       1 RES1   0.0000
    27 P2       -2.0237   -1.9260    2.1646   P.3       1 RES1   0.0000
    28 O2       -0.6862   -1.4230    1.7154   O.2       1 RES1   0.0000
    29 C24      -1.6997   -2.6252    3.8437   C.3       1 RES1   0.0000
    30 C25      -2.7618   -3.4304    4.5829   C.3       1 RES1   0.0000
    31 C26      -3.7586   -2.5640    5.3455   C.3       1 RES1   0.0000
    32 C27      -4.8984   -3.3948    5.9335   C.3       1 RES1   0.0000
    33 C28      -6.0716   -2.5357    6.4093   C.3       1 RES1   0.0000
    34 C29      -6.8544   -1.9027    5.2558   C.3       1 RES1   0.0000
    35 C30      -8.1052   -1.1467    5.7107   C.3       1 RES1   0.0000
    36 C31      -7.7814    0.1145    6.5027   C.3       1 RES1   0.0000
    37 C32      -2.5848   -3.3210    1.1284   C.3       1 RES1   0.0000
    38 C33      -4.0584   -3.7403    1.1747   C.3       1 RES1   0.0000
    39 C34      -4.2575   -5.1730    0.6623   C.3       1 RES1   0.0000
    40 C35      -5.7227   -5.6135    0.6651   C.3       1 RES1   0.0000
    41 C36      -6.5661   -4.9256   -0.4101   C.3       1 RES1   0.0000
    42 C37      -6.2096   -5.3871   -1.8336   C.3       1 RES1   0.0000
    43 C38      -5.6368   -4.2761   -2.7110   C.3       1 RES1   0.0000
    44 C39      -5.4336   -4.7461   -4.1465   C.3       1 RES1   0.0000
    45 N1       -3.4610    0.1385    0.0407   N.ar      1 RES1   0.0000
    46 O3       -2.3578   -0.5012   -0.1513   O.co2     1 RES1   0.0000
    47 H1       -9.9352    1.7833   -5.2818   H         1 RES1   0.0000
    48 H2       -8.5697    1.3000   -4.2743   H         1 RES1   0.0000
    49 H3       -8.3326    1.6223   -5.9926   H         1 RES1   0.0000
    50 H4       -9.1600    3.7013   -3.9105   H         1 RES1   0.0000
    51 H5       -8.9460    4.0201   -5.6270   H         1 RES1   0.0000
    52 H6       -6.5636    3.4747   -5.4909   H         1 RES1   0.0000
    53 H7       -6.7538    2.9708   -3.8067   H         1 RES1   0.0000
    54 H8       -7.3971    5.2970   -3.1880   H         1 RES1   0.0000
    55 H9       -7.2598    5.7866   -4.8776   H         1 RES1   0.0000
    56 H10      -5.2790    6.4602   -3.5957   H         1 RES1   0.0000
    57 H11      -4.8251    5.2903   -4.8283   H         1 RES1   0.0000
    58 H12      -4.6699    3.5107   -3.2195   H         1 RES1   0.0000
    59 H13      -5.5168    4.4511   -1.9894   H         1 RES1   0.0000
    60 H14      -3.6326    5.8349   -1.5734   H         1 RES1   0.0000
    61 H15      -2.8329    5.3591   -3.0590   H         1 RES1   0.0000
    62 H16      -3.4383    3.5346   -0.6804   H         1 RES1   0.0000
    63 H17      -1.8771    4.3141   -0.9778   H         1 RES1   0.0000
    64 H18      -1.3624    4.0629   -3.8019   H         1 RES1   0.0000
    65 H19      -2.8369    3.3275   -4.4241   H         1 RES1   0.0000
    66 H20      -0.0677    2.0710   -4.6414   H         1 RES1   0.0000
    67 H21      -0.8299    3.0580   -5.8914   H         1 RES1   0.0000
    68 H22      -2.0816    0.5464   -4.7367   H         1 RES1   0.0000
    69 H23      -0.9631    0.5089   -6.0969   H         1 RES1   0.0000
    70 H24      -2.5552    1.8310   -7.4588   H         1 RES1   0.0000
    71 H25      -3.7023    1.8506   -6.1162   H         1 RES1   0.0000
    72 H26      -3.8007   -0.5975   -6.0986   H         1 RES1   0.0000
    73 H27      -2.4967   -0.6764   -7.2828   H         1 RES1   0.0000
    74 H28      -4.3983   -1.1982   -8.4787   H         1 RES1   0.0000
    75 H29      -4.0120    0.4490   -8.9515   H         1 RES1   0.0000
    76 H30      -6.0081    0.0511   -6.7171   H         1 RES1   0.0000
    77 H31      -6.5024   -0.3667   -8.3533   H         1 RES1   0.0000
    78 H32      -5.5212    2.3818   -7.4739   H         1 RES1   0.0000
    79 H33      -7.1686    1.9229   -7.9225   H         1 RES1   0.0000
    80 H34      -5.8994    1.9269   -9.1333   H         1 RES1   0.0000
    81 H35      -2.6946    0.1029   -2.4313   H         1 RES1   0.0000
    82 H36      -4.0670    1.0564   -3.0678   H         1 RES1   0.0000
    83 H37      -5.6463    2.0975   -1.5422   H         1 RES1   0.0000
    84 H38      -6.8032    1.9523    0.6361   H         1 RES1   0.0000
    85 H39      -5.7485    0.5989    2.4421   H         1 RES1   0.0000
    86 H40      -4.2534   -1.3478    2.8090   H         1 RES1   0.0000
    87 H41      -3.1429   -0.0261    3.1080   H         1 RES1   0.0000
    88 H42      -1.3209   -1.8298    4.4901   H         1 RES1   0.0000
    89 H43      -0.8522   -3.2849    3.6258   H         1 RES1   0.0000
    90 H44      -2.2575   -4.0860    5.2963   H         1 RES1   0.0000
    91 H45      -3.2960   -4.0767    3.8875   H         1 RES1   0.0000
    92 H46      -4.1792   -1.8189    4.6740   H         1 RES1   0.0000
    93 H47      -3.2444   -2.0276    6.1457   H         1 RES1   0.0000
    94 H48      -4.5143   -3.9820    6.7677   H         1 RES1   0.0000
    95 H49      -5.2566   -4.0957    5.1767   H         1 RES1   0.0000
    96 H50      -5.6962   -1.7548    7.0730   H         1 RES1   0.0000
    97 H51      -6.7529   -3.1687    6.9795   H         1 RES1   0.0000
    98 H52      -7.1541   -2.6890    4.5560   H         1 RES1   0.0000
    99 H53      -6.2127   -1.1992    4.7146   H         1 RES1   0.0000
   100 H54      -8.7244   -1.8071    6.3188   H         1 RES1   0.0000
   101 H55      -8.6862   -0.8716    4.8256   H         1 RES1   0.0000
   102 H56      -7.3019   -0.1299    7.4455   H         1 RES1   0.0000
   103 H57      -8.6923    0.6611    6.7257   H         1 RES1   0.0000
   104 H58      -7.1204    0.7697    5.9366   H         1 RES1   0.0000
   105 H59      -1.9475   -4.1695    1.4089   H         1 RES1   0.0000
   106 H60      -2.3056   -2.9952    0.1259   H         1 RES1   0.0000
   107 H61      -4.6420   -3.0565    0.5565   H         1 RES1   0.0000
   108 H62      -4.4471   -3.6860    2.1932   H         1 RES1   0.0000
   109 H63      -3.6800   -5.8535    1.2922   H         1 RES1   0.0000
   110 H64      -3.8682   -5.2610   -0.3503   H         1 RES1   0.0000
   111 H65      -6.1493   -5.4192    1.6500   H         1 RES1   0.0000
   112 H66      -5.7654   -6.6932    0.5054   H         1 RES1   0.0000
   113 H67      -6.4575   -3.8392   -0.3353   H         1 RES1   0.0000
   114 H68      -7.6111   -5.1549   -0.2017   H         1 RES1   0.0000
   115 H69      -7.0987   -5.7865   -2.3183   H         1 RES1   0.0000
   116 H70      -5.4856   -6.2022   -1.7881   H         1 RES1   0.0000
   117 H71      -4.6842   -3.9356   -2.2943   H         1 RES1   0.0000
   118 H72      -6.3158   -3.4213   -2.7044   H         1 RES1   0.0000
   119 H73      -4.8336   -5.6527   -4.1744   H         1 RES1   0.0000
   120 H74      -4.9419   -3.9804   -4.7439   H         1 RES1   0.0000
   121 H75      -6.3918   -4.9695   -4.6056   H         1 RES1   0.0000
   122 C40       3.1537   -8.7296   -5.7124   C.3       1 RES1   0.0000
   123 C41       1.8034   -9.2879   -5.2850   C.3       1 RES1   0.0000
   124 C42       0.8296   -8.1737   -4.9215   C.3       1 RES1   0.0000
   125 C43      -0.4872   -8.7252   -4.3820   C.3       1 RES1   0.0000
   126 C44      -1.5138   -7.6252   -4.1200   C.3       1 RES1   0.0000
   127 C45      -0.9914   -6.6236   -3.0883   C.3       1 RES1   0.0000
   128 C46      -2.0683   -5.6453   -2.6565   C.3       1 RES1   0.0000
   129 C47      -1.5992   -4.5452   -1.7090   C.3       1 RES1   0.0000
   130 P3       -0.5012   -3.1999   -2.3211   P.3       1 RES1   0.0000
   131 O4       -0.7340   -1.9493   -1.5350   O.2       1 RES1   0.0000
   132 C48      -1.0094   -3.0965   -4.0674   C.3       1 RES1   0.0000
   133 C49      -0.6772   -1.7621   -4.6977   C.3       1 RES1   0.0000
   134 C50       0.7767   -1.6291   -5.1301   C.3       1 RES1   0.0000
   135 C51       1.1975   -2.6140   -6.2139   C.3       1 RES1   0.0000
   136 C52       2.6237   -2.3512   -6.6867   C.3       1 RES1   0.0000
   137 C53       2.9843   -3.1430   -7.9415   C.3       1 RES1   0.0000
   138 C54       2.9985   -4.6660   -7.7557   C.3       1 RES1   0.0000
   139 C55       1.6876   -5.3578   -8.1226   C.3       1 RES1   0.0000
   140 C56       1.3121   -3.5627   -2.1223   C.3       1 RES1   0.0000
   141 C57       1.4738   -4.0781   -0.7414   C.ar      1 RES1   0.0000
   142 C58       1.3410   -5.4308   -0.4793   C.ar      1 RES1   0.0000
   143 C59       1.4392   -5.9204    0.8085   C.ar      1 RES1   0.0000
   144 C60       1.7183   -5.0150    1.8155   C.ar      1 RES1   0.0000
   145 C61       1.8304   -3.6603    1.5386   C.ar      1 RES1   0.0000
   146 C62       2.0574   -2.6833    2.6340   C.3       1 RES1   0.0000
   147 P4        2.6986   -0.9552    2.3804   P.3       1 RES1   0.0000
   148 O5        1.7456    0.0483    1.8038   O.2       1 RES1   0.0000
   149 C63       2.9106   -0.4473    4.1387   C.3       1 RES1   0.0000
   150 C64       4.0785   -0.9460    4.9873   C.3       1 RES1   0.0000
   151 C65       3.7520   -2.2401    5.7258   C.3       1 RES1   0.0000
   152 C66       4.9452   -2.8494    6.4618   C.3       1 RES1   0.0000
   153 C67       4.6824   -4.3115    6.8395   C.3       1 RES1   0.0000
   154 C68       4.6375   -5.2408    5.6236   C.3       1 RES1   0.0000
   155 C69       4.4934   -6.7193    5.9877   C.3       1 RES1   0.0000
   156 C70       3.1360   -7.0486    6.5989   C.3       1 RES1   0.0000
   157 C71       4.4002   -0.8603    1.6776   C.3       1 RES1   0.0000
   158 C72       5.2355   -2.1146    1.4213   C.3       1 RES1   0.0000
   159 C73       6.6667   -1.6891    1.0618   C.3       1 RES1   0.0000
   160 C74       7.6090   -2.8491    0.7391   C.3       1 RES1   0.0000
   161 C75       7.2958   -3.5769   -0.5697   C.3       1 RES1   0.0000
   162 C76       7.4491   -2.6929   -1.8178   C.3       1 RES1   0.0000
   163 C77       6.1194   -2.2487   -2.4252   C.3       1 RES1   0.0000
   164 C78       6.3303   -1.4511   -3.7066   C.3       1 RES1   0.0000
   165 N2        1.6808   -3.2007    0.2761   N.ar      1 RES1   0.0000
   166 O6        1.7920   -1.9259    0.0620   O.co2     1 RES1   0.0000
   167 H76       3.8297   -9.5373   -5.9743   H         1 RES1   0.0000
   168 H77       3.6039   -8.1522   -4.9061   H         1 RES1   0.0000
   169 H78       3.0418   -8.0802   -6.5780   H         1 RES1   0.0000
   170 H79       1.9335   -9.9434   -4.4213   H         1 RES1   0.0000
   171 H80       1.3804   -9.8867   -6.0918   H         1 RES1   0.0000
   172 H81       0.6292   -7.5605   -5.8037   H         1 RES1   0.0000
   173 H82       1.3036   -7.5358   -4.1706   H         1 RES1   0.0000
   174 H83      -0.3032   -9.2683   -3.4512   H         1 RES1   0.0000
   175 H84      -0.8968   -9.4325   -5.1042   H         1 RES1   0.0000
   176 H85      -2.4387   -8.0778   -3.7541   H         1 RES1   0.0000
   177 H86      -1.7442   -7.1055   -5.0539   H         1 RES1   0.0000
   178 H87      -0.1520   -6.0737   -3.5186   H         1 RES1   0.0000
   179 H88      -0.6320   -7.1806   -2.2200   H         1 RES1   0.0000
   180 H89      -2.8530   -6.2028   -2.1389   H         1 RES1   0.0000
   181 H90      -2.5267   -5.2057   -3.5415   H         1 RES1   0.0000
   182 H91      -1.1878   -4.9637   -0.7890   H         1 RES1   0.0000
   183 H92      -2.4916   -3.9683   -1.4537   H         1 RES1   0.0000
   184 H93      -2.0960   -3.2192   -4.0419   H         1 RES1   0.0000
   185 H94      -0.5896   -3.9319   -4.6200   H         1 RES1   0.0000
   186 H95      -0.8790   -0.9842   -3.9536   H         1 RES1   0.0000
   187 H96      -1.3299   -1.6176   -5.5612   H         1 RES1   0.0000
   188 H97       1.4220   -1.7322   -4.2556   H         1 RES1   0.0000
   189 H98       0.9119   -0.6177   -5.5165   H         1 RES1   0.0000
   190 H99       0.5175   -2.5252   -7.0640   H         1 RES1   0.0000
   191 H100      1.1388   -3.6350   -5.8399   H         1 RES1   0.0000
   192 H101      3.3282   -2.5891   -5.8841   H         1 RES1   0.0000
   193 H102      2.7254   -1.2860   -6.9084   H         1 RES1   0.0000
   194 H103      3.9763   -2.8208   -8.2560   H         1 RES1   0.0000
   195 H104      2.2850   -2.8796   -8.7364   H         1 RES1   0.0000
   196 H105      3.2587   -4.9105   -6.7222   H         1 RES1   0.0000
   197 H106      3.7816   -5.0859   -8.3890   H         1 RES1   0.0000
   198 H107      0.8876   -5.1168   -7.4267   H         1 RES1   0.0000
   199 H108      1.8233   -6.4375   -8.1200   H         1 RES1   0.0000
   200 H109      1.3647   -5.0677   -9.1192   H         1 RES1   0.0000
   201 H110      1.7909   -2.5855   -2.2313   H         1 RES1   0.0000
   202 H111      1.7128   -4.2613   -2.8512   H         1 RES1   0.0000
   203 H112      1.1635   -6.0963   -1.3079   H         1 RES1   0.0000
   204 H113      1.3191   -6.9719    1.0041   H         1 RES1   0.0000
   205 H114      1.8603   -5.3594    2.8263   H         1 RES1   0.0000
   206 H115      2.7460   -3.1285    3.3522   H         1 RES1   0.0000
   207 H116      1.1132   -2.4989    3.1639   H         1 RES1   0.0000
   208 H117      1.9772   -0.6859    4.6512   H         1 RES1   0.0000
   209 H118      2.9512    0.6423    4.0559   H         1 RES1   0.0000
   210 H119      4.3154   -0.1772    5.7249   H         1 RES1   0.0000
   211 H120      4.9702   -1.0984    4.3821   H         1 RES1   0.0000
   212 H121      3.3937   -2.9783    5.0115   H         1 RES1   0.0000
   213 H122      2.9443   -2.0642    6.4396   H         1 RES1   0.0000
   214 H123      5.1422   -2.2722    7.3657   H         1 RES1   0.0000
   215 H124      5.8356   -2.7948    5.8310   H         1 RES1   0.0000
   216 H125      3.7365   -4.3738    7.3827   H         1 RES1   0.0000
   217 H126      5.4794   -4.6517    7.5027   H         1 RES1   0.0000
   218 H127      5.5524   -5.1065    5.0400   H         1 RES1   0.0000
   219 H128      3.7938   -4.9733    4.9798   H         1 RES1   0.0000
   220 H129      5.2811   -6.9951    6.6893   H         1 RES1   0.0000
   221 H130      4.6305   -7.3153    5.0803   H         1 RES1   0.0000
   222 H131      3.0142   -6.5635    7.5629   H         1 RES1   0.0000
   223 H132      3.0448   -8.1195    6.7530   H         1 RES1   0.0000
   224 H133      2.3262   -6.7283    5.9436   H         1 RES1   0.0000
   225 H134      4.9321   -0.2277    2.3992   H         1 RES1   0.0000
   226 H135      4.3159   -0.3148    0.7411   H         1 RES1   0.0000
   227 H136      4.7949   -2.6753    0.5951   H         1 RES1   0.0000
   228 H137      5.2588   -2.7637    2.2983   H         1 RES1   0.0000
   229 H138      6.6311   -1.0102    0.2083   H         1 RES1   0.0000
   230 H139      7.0820   -1.1291    1.9048   H         1 RES1   0.0000
   231 H140      7.5912   -3.5658    1.5635   H         1 RES1   0.0000
   232 H141      8.6223   -2.4468    0.6771   H         1 RES1   0.0000
   233 H142      6.2863   -3.9946   -0.5334   H         1 RES1   0.0000
   234 H143      7.9854   -4.4184   -0.6389   H         1 RES1   0.0000
   235 H144      8.0025   -3.2398   -2.5809   H         1 RES1   0.0000
   236 H145      8.0380   -1.8072   -1.5738   H         1 RES1   0.0000
   237 H146      5.5649   -1.6404   -1.7062   H         1 RES1   0.0000
   238 H147      5.5082   -3.1279   -2.6428   H         1 RES1   0.0000
   239 H148      6.9454   -0.5744   -3.5172   H         1 RES1   0.0000
   240 H149      5.3813   -1.1238   -4.1273   H         1 RES1   0.0000
   241 H150      6.8415   -2.0574   -4.4486   H         1 RES1   0.0000
   242 C79       1.6807    8.7481    5.0816   C.3       1 RES1   0.0000
   243 C80       0.2199    9.0589    4.7838   C.3       1 RES1   0.0000
   244 C81      -0.6161    7.7850    4.7146   C.3       1 RES1   0.0000
   245 C82      -2.0493    8.0641    4.2685   C.3       1 RES1   0.0000
   246 C83      -2.9022    6.7979    4.1799   C.3       1 RES1   0.0000
   247 C84      -2.2977    5.8047    3.1890   C.3       1 RES1   0.0000
   248 C85      -3.2574    4.7089    2.7517   C.3       1 RES1   0.0000
   249 C86      -2.5698    3.7225    1.8130   C.3       1 RES1   0.0000
   250 P5       -1.3099    2.5364    2.4554   P.3       1 RES1   0.0000
   251 O7       -1.3311    1.3109    1.5981   O.2       1 RES1   0.0000
   252 C87      -1.8716    2.3200    4.1940   C.3       1 RES1   0.0000
   253 C88      -1.4232    1.0858    4.9560   C.3       1 RES1   0.0000
   254 C89       0.0570    1.0985    5.3089   C.3       1 RES1   0.0000
   255 C90       0.4663    2.2141    6.2666   C.3       1 RES1   0.0000
   256 C91       1.9616    2.1740    6.5664   C.3       1 RES1   0.0000
   257 C92       2.3852    3.1570    7.6564   C.3       1 RES1   0.0000
   258 C93       2.2969    4.6354    7.2522   C.3       1 RES1   0.0000
   259 C94       0.9913    5.3221    7.6470   C.3       1 RES1   0.0000
   260 C95       0.4254    3.2114    2.3466   C.3       1 RES1   0.0000
   261 C96       0.6631    3.9527    1.0746   C.ar      1 RES1   0.0000
   262 C97       0.5021    5.3228    0.9829   C.ar      1 RES1   0.0000
   263 C98       0.7416    5.9926   -0.2020   C.ar      1 RES1   0.0000
   264 C99       1.1680    5.2542   -1.2908   C.ar      1 RES1   0.0000
   265 C100      1.3379    3.8826   -1.1841   C.ar      1 RES1   0.0000
   266 C101      1.7795    3.0774   -2.3572   C.3       1 RES1   0.0000
   267 P6        2.2707    1.2819   -2.2174   P.3       1 RES1   0.0000
   268 O8        1.2520    0.2263   -1.9115   O.2       1 RES1   0.0000
   269 C102      2.7697    0.8514   -3.9353   C.3       1 RES1   0.0000
   270 C103      3.8996    1.5083   -4.7161   C.3       1 RES1   0.0000
   271 C104      3.4765    2.8221   -5.3594   C.3       1 RES1   0.0000
   272 C105      4.5748    3.4092   -6.2399   C.3       1 RES1   0.0000
   273 C106      4.1743    4.7482   -6.8594   C.3       1 RES1   0.0000
   274 C107      3.9782    5.8507   -5.8187   C.3       1 RES1   0.0000
   275 C108      3.5291    7.1822   -6.4219   C.3       1 RES1   0.0000
   276 C109      2.1054    7.1344   -6.9665   C.3       1 RES1   0.0000
   277 C110      3.7544    1.1446   -1.1598   C.3       1 RES1   0.0000
   278 C111      4.8160    2.2443   -1.2591   C.3       1 RES1   0.0000
   279 C112      6.2041    1.7459   -0.8401   C.3       1 RES1   0.0000
   280 C113      7.2344    2.8750   -0.7853   C.3       1 RES1   0.0000
   281 C114      7.0012    3.8794    0.3459   C.3       1 RES1   0.0000
   282 C115      7.1308    3.2639    1.7476   C.3       1 RES1   0.0000
   283 C116      5.7924    2.9963    2.4356   C.3       1 RES1   0.0000
   284 C117      5.9935    2.3553    3.8040   C.3       1 RES1   0.0000
   285 N3        1.0777    3.2573   -0.0160   N.ar      1 RES1   0.0000
   286 O9        1.2640    1.9815    0.0472   O.co2     1 RES1   0.0000
   287 H151      2.2620    9.6639    5.1259   H         1 RES1   0.0000
   288 H152      2.1053    8.1075    4.3089   H         1 RES1   0.0000
   289 H153      1.7737    8.2382    6.0378   H         1 RES1   0.0000
   290 H154      0.1438    9.5929    3.8339   H         1 RES1   0.0000
   291 H155     -0.1816    9.7121    5.5582   H         1 RES1   0.0000
   292 H156     -0.6310    7.3055    5.6957   H         1 RES1   0.0000
   293 H157     -0.1326    7.0974    4.0143   H         1 RES1   0.0000
   294 H158     -2.0367    8.5466    3.2869   H         1 RES1   0.0000
   295 H159     -2.5097    8.7570    4.9736   H         1 RES1   0.0000
   296 H160     -3.9060    7.0702    3.8507   H         1 RES1   0.0000
   297 H161     -2.9896    6.3362    5.1655   H         1 RES1   0.0000
   298 H162     -1.4181    5.3415    3.6409   H         1 RES1   0.0000
   299 H163     -1.9747    6.3564    2.3027   H         1 RES1   0.0000
   300 H164     -4.0900    5.1577    2.2038   H         1 RES1   0.0000
   301 H165     -3.6786    4.2128    3.6251   H         1 RES1   0.0000
   302 H166     -2.0873    4.2851    1.0155   H         1 RES1   0.0000
   303 H167     -3.3211    3.0680    1.3609   H         1 RES1   0.0000
   304 H168     -2.9631    2.3070    4.1085   H         1 RES1   0.0000
   305 H169     -1.6021    3.2245    4.7370   H         1 RES1   0.0000
   306 H170     -1.6123    0.2014    4.3446   H         1 RES1   0.0000
   307 H171     -2.0261    1.0111    5.8646   H         1 RES1   0.0000
   308 H172      0.6234    1.1729    4.3771   H         1 RES1   0.0000
   309 H173      0.2973    0.1400    5.7755   H         1 RES1   0.0000
   310 H174     -0.0852    2.1073    7.2020   H         1 RES1   0.0000
   311 H175      0.2198    3.1868    5.8420   H         1 RES1   0.0000
   312 H176      2.5208    2.3840    5.6502   H         1 RES1   0.0000
   313 H177      2.2275    1.1653    6.8890   H         1 RES1   0.0000
   314 H178      3.4196    2.9316    7.9165   H         1 RES1   0.0000
   315 H179      1.7807    2.9859    8.5476   H         1 RES1   0.0000
   316 H180      2.4442    4.7312    6.1716   H         1 RES1   0.0000
   317 H181      3.1130    5.1756    7.7364   H         1 RES1   0.0000
   318 H182      0.1391    4.9328    7.0941   H         1 RES1   0.0000
   319 H183      1.0621    6.3904    7.4522   H         1 RES1   0.0000
   320 H184      0.7933    5.1914    8.7076   H         1 RES1   0.0000
   321 H185      1.0383    2.3017    2.3650   H         1 RES1   0.0000
   322 H186      0.6720    3.8396    3.1981   H         1 RES1   0.0000
   323 H187      0.1875    5.8669    1.8582   H         1 RES1   0.0000
   324 H188      0.6127    7.0608   -0.2596   H         1 RES1   0.0000
   325 H189      1.3780    5.7407   -2.2276   H         1 RES1   0.0000
   326 H190      2.6600    3.5674   -2.7819   H         1 RES1   0.0000
   327 H191      0.9996    3.1223   -3.1245   H         1 RES1   0.0000
   328 H192      1.8495    0.9269   -4.5222   H         1 RES1   0.0000
   329 H193      2.9762   -0.2183   -3.8329   H         1 RES1   0.0000
   330 H194      4.1973    0.8195   -5.5114   H         1 RES1   0.0000
   331 H195      4.7738    1.6675   -4.0883   H         1 RES1   0.0000
   332 H196      3.2363    3.5458   -4.5834   H         1 RES1   0.0000
   333 H197      2.5729    2.6624   -5.9544   H         1 RES1   0.0000
   334 H198      4.8012    2.6996   -7.0363   H         1 RES1   0.0000
   335 H199      5.4771    3.5412   -5.6389   H         1 RES1   0.0000
   336 H200      3.2547    4.6137   -7.4317   H         1 RES1   0.0000
   337 H201      4.9601    5.0566   -7.5499   H         1 RES1   0.0000
   338 H202      4.9188    5.9993   -5.2819   H         1 RES1   0.0000
   339 H203      3.2225    5.5414   -5.0907   H         1 RES1   0.0000
   340 H204      4.2116    7.4686   -7.2223   H         1 RES1   0.0000
   341 H205      3.5856    7.9498   -5.6457   H         1 RES1   0.0000
   342 H206      2.0414    6.4954   -7.8424   H         1 RES1   0.0000
   343 H207      1.7827    8.1293   -7.2576   H         1 RES1   0.0000
   344 H208      1.4140    6.7585   -6.2125   H         1 RES1   0.0000
   345 H209      4.1827    0.1746   -1.4449   H         1 RES1   0.0000
   346 H210      3.3664    1.0691   -0.1396   H         1 RES1   0.0000
   347 H211      4.5326    3.0768   -0.6138   H         1 RES1   0.0000
   348 H212      4.8854    2.6247   -2.2785   H         1 RES1   0.0000
   349 H213      6.5415    0.9950   -1.5586   H         1 RES1   0.0000
   350 H214      6.1524    1.2646    0.1369   H         1 RES1   0.0000
   351 H215      7.2383    3.4021   -1.7418   H         1 RES1   0.0000
   352 H216      8.2256    2.4347   -0.6606   H         1 RES1   0.0000
   353 H217      6.0192    4.3492    0.2415   H         1 RES1   0.0000
   354 H218      7.7443    4.6685    0.2252   H         1 RES1   0.0000
   355 H219      7.7077    3.9359    2.3819   H         1 RES1   0.0000
   356 H220      7.6893    2.3285    1.6847   H         1 RES1   0.0000
   357 H221      5.1747    2.3414    1.8162   H         1 RES1   0.0000
   358 H222      5.2519    3.9385    2.5553   H         1 RES1   0.0000
   359 H223      6.5557    1.4283    3.7148   H         1 RES1   0.0000
   360 H224      5.0393    2.1366    4.2794   H         1 RES1   0.0000
   361 H225      6.5532    3.0184    4.4569   H         1 RES1   0.0000
@<TRIPOS>BOND
     1     1    11    1
     2     1    28    1
     3     1    46    1
     4     1   131    1
     5     1   148    1
     6     1   166    1
     7     1   251    1
     8     1   268    1
     9     1   286    1
    10     2     3    1
    11     2    47    1
    12     2    48    1
    13     2    49    1
    14     3     4    1
    15     3    50    1
    16     3    51    1
    17     4     5    1
    18     4    52    1
    19     4    53    1
    20     5     6    1
    21     5    54    1
    22     5    55    1
    23     6     7    1
    24     6    56    1
    25     6    57    1
    26     7     8    1
    27     7    58    1
    28     7    59    1
    29     8     9    1
    30     8    60    1
    31     8    61    1
    32     9    10    1
    33     9    62    1
    34     9    63    1
    35    10    11    2
    36    10    12    1
    37    10    20    1
    38    12    13    1
    39    12    64    1
    40    12    65    1
    41    13    14    1
    42    13    66    1
    43    13    67    1
    44    14    15    1
    45    14    68    1
    46    14    69    1
    47    15    16    1
    48    15    70    1
    49    15    71    1
    50    16    17    1
    51    16    72    1
    52    16    73    1
    53    17    18    1
    54    17    74    1
    55    17    75    1
    56    18    19    1
    57    18    76    1
    58    18    77    1
    59    19    78    1
    60    19    79    1
    61    19    80    1
    62    20    21    1
    63    20    81    1
    64    20    82    1
    65    21    22    1
    66    21    45    2
    67    22    23    2
    68    22    83    1
    69    23    24    1
    70    23    84    1
    71    24    25    2
    72    24    85    1
    73    25    26    1
    74    25    45    1
    75    26    27    1
    76    26    86    1
    77    26    87    1
    78    27    28    2
    79    27    29    1
    80    27    37    1
    81    29    30    1
    82    29    88    1
    83    29    89    1
    84    30    31    1
    85    30    90    1
    86    30    91    1
    87    31    32    1
    88    31    92    1
    89    31    93    1
    90    32    33    1
    91    32    94    1
    92    32    95    1
    93    33    34    1
    94    33    96    1
    95    33    97    1
    96    34    35    1
    97    34    98    1
    98    34    99    1
    99    35    36    1
   100    35   100    1
   101    35   101    1
   102    36   102    1
   103    36   103    1
   104    36   104    1
   105    37    38    1
   106    37   105    1
   107    37   106    1
   108    38    39    1
   109    38   107    1
   110    38   108    1
   111    39    40    1
   112    39   109    1
   113    39   110    1
   114    40    41    1
   115    40   111    1
   116    40   112    1
   117    41    42    1
   118    41   113    1
   119    41   114    1
   120    42    43    1
   121    42   115    1
   122    42   116    1
   123    43    44    1
   124    43   117    1
   125    43   118    1
   126    44   119    1
   127    44   120    1
   128    44   121    1
   129    45    46    1
   130   122   123    1
   131   122   167    1
   132   122   168    1
   133   122   169    1
   134   123   124    1
   135   123   170    1
   136   123   171    1
   137   124   125    1
   138   124   172    1
   139   124   173    1
   140   125   126    1
   141   125   174    1
   142   125   175    1
   143   126   127    1
   144   126   176    1
   145   126   177    1
   146   127   128    1
   147   127   178    1
   148   127   179    1
   149   128   129    1
   150   128   180    1
   151   128   181    1
   152   129   130    1
   153   129   182    1
   154   129   183    1
   155   130   131    2
   156   130   132    1
   157   130   140    1
   158   132   133    1
   159   132   184    1
   160   132   185    1
   161   133   134    1
   162   133   186    1
   163   133   187    1
   164   134   135    1
   165   134   188    1
   166   134   189    1
   167   135   136    1
   168   135   190    1
   169   135   191    1
   170   136   137    1
   171   136   192    1
   172   136   193    1
   173   137   138    1
   174   137   194    1
   175   137   195    1
   176   138   139    1
   177   138   196    1
   178   138   197    1
   179   139   198    1
   180   139   199    1
   181   139   200    1
   182   140   141    1
   183   140   201    1
   184   140   202    1
   185   141   142    1
   186   141   165    2
   187   142   143    2
   188   142   203    1
   189   143   144    1
   190   143   204    1
   191   144   145    2
   192   144   205    1
   193   145   146    1
   194   145   165    1
   195   146   147    1
   196   146   206    1
   197   146   207    1
   198   147   148    2
   199   147   149    1
   200   147   157    1
   201   149   150    1
   202   149   208    1
   203   149   209    1
   204   150   151    1
   205   150   210    1
   206   150   211    1
   207   151   152    1
   208   151   212    1
   209   151   213    1
   210   152   153    1
   211   152   214    1
   212   152   215    1
   213   153   154    1
   214   153   216    1
   215   153   217    1
   216   154   155    1
   217   154   218    1
   218   154   219    1
   219   155   156    1
   220   155   220    1
   221   155   221    1
   222   156   222    1
   223   156   223    1
   224   156   224    1
   225   157   158    1
   226   157   225    1
   227   157   226    1
   228   158   159    1
   229   158   227    1
   230   158   228    1
   231   159   160    1
   232   159   229    1
   233   159   230    1
   234   160   161    1
   235   160   231    1
   236   160   232    1
   237   161   162    1
   238   161   233    1
   239   161   234    1
   240   162   163    1
   241   162   235    1
   242   162   236    1
   243   163   164    1
   244   163   237    1
   245   163   238    1
   246   164   239    1
   247   164   240    1
   248   164   241    1
   249   165   166    1
   250   242   243    1
   251   242   287    1
   252   242   288    1
   253   242   289    1
   254   243   244    1
   255   243   290    1
   256   243   291    1
   257   244   245    1
   258   244   292    1
   259   244   293    1
   260   245   246    1
   261   245   294    1
   262   245   295    1
   263   246   247    1
   264   246   296    1
   265   246   297    1
   266   247   248    1
   267   247   298    1
   268   247   299    1
   269   248   249    1
   270   248   300    1
   271   248   301    1
   272   249   250    1
   273   249   302    1
   274   249   303    1
   275   250   251    2
   276   250   252    1
   277   250   260    1
   278   252   253    1
   279   252   304    1
   280   252   305    1
   281   253   254    1
   282   253   306    1
   283   253   307    1
   284   254   255    1
   285   254   308    1
   286   254   309    1
   287   255   256    1
   288   255   310    1
   289   255   311    1
   290   256   257    1
   291   256   312    1
   292   256   313    1
   293   257   258    1
   294   257   314    1
   295   257   315    1
   296   258   259    1
   297   258   316    1
   298   258   317    1
   299   259   318    1
   300   259   319    1
   301   259   320    1
   302   260   261    1
   303   260   321    1
   304   260   322    1
   305   261   262    1
   306   261   285    2
   307   262   263    2
   308   262   323    1
   309   263   264    1
   310   263   324    1
   311   264   265    2
   312   264   325    1
   313   265   266    1
   314   265   285    1
   315   266   267    1
   316   266   326    1
   317   266   327    1
   318   267   268    2
   319   267   269    1
   320   267   277    1
   321   269   270    1
   322   269   328    1
   323   269   329    1
   324   270   271    1
   325   270   330    1
   326   270   331    1
   327   271   272    1
   328   271   332    1
   329   271   333    1
   330   272   273    1
   331   272   334    1
   332   272   335    1
   333   273   274    1
   334   273   336    1
   335   273   337    1
   336   274   275    1
   337   274   338    1
   338   274   339    1
   339   275   276    1
   340   275   340    1
   341   275   341    1
   342   276   342    1
   343   276   343    1
   344   276   344    1
   345   277   278    1
   346   277   345    1
   347   277   346    1
   348   278   279    1
   349   278   347    1
   350   278   348    1
   351   279   280    1
   352   279   349    1
   353   279   350    1
   354   280   281    1
   355   280   351    1
   356   280   352    1
   357   281   282    1
   358   281   353    1
   359   281   354    1
   360   282   283    1
   361   282   355    1
   362   282   356    1
   363   283   284    1
   364   283   357    1
   365   283   358    1
   366   284   359    1
   367   284   360    1
   368   284   361    1
   369   285   286    1
@<TRIPOS>SUBSTRUCTURE
     1 RES1      361 GROUP             0 ****  ****    0  
