@<TRIPOS>MOLECULE
am_c3_9H2O_c0_0_nunpairedes_0_charge_3 Charge: 3 Unpaired_Electrons: 7 XTB_Unpaired_Electrons: 0 XTB_Charge: 3
   130   141     1     0     0
SMALL
NoCharges
****
Generated from Architector

@<TRIPOS>ATOM
     1 Gd1      -0.0340    0.2104   -0.0734   Gd        1 RES1   0.0000
     2 C1       -1.7418    2.8136    3.6734   C.3       1 RES1   0.0000
     3 N1       -2.5894    1.7282    3.1943   N.am      1 RES1   0.0000
     4 C2       -2.1703    1.1388    2.0813   C.2       1 RES1   0.0000
     5 O1       -1.1293    1.5170    1.5007   O.2       1 RES1   0.0000
     6 C3       -2.9107   -0.0658    1.4962   C.3       1 RES1   0.0000
     7 O2       -2.4979   -0.3138    0.1598   O.3       1 RES1   0.0000
     8 C4       -3.3027    0.2810   -0.8558   C.3       1 RES1   0.0000
     9 C5       -2.4647    1.2758   -1.6826   C.2       1 RES1   0.0000
    10 O3       -1.2795    1.4234   -1.3402   O.2       1 RES1   0.0000
    11 N2       -3.0404    1.8886   -2.7145   N.am      1 RES1   0.0000
    12 C6       -4.4692    1.7504   -2.9599   C.3       1 RES1   0.0000
    13 C7       -2.3483    2.7896   -3.6001   C.ar      1 RES1   0.0000
    14 C8       -0.9617    2.9561   -3.5866   C.ar      1 RES1   0.0000
    15 C9       -0.3552    3.8611   -4.4456   C.ar      1 RES1   0.0000
    16 C10      -1.0936    4.6015   -5.3502   C.ar      1 RES1   0.0000
    17 C11      -2.4644    4.4206   -5.3856   C.ar      1 RES1   0.0000
    18 C12      -3.0862    3.5342   -4.5231   C.ar      1 RES1   0.0000
    19 C13      -3.7957    1.4301    3.8978   C.ar      1 RES1   0.0000
    20 C14      -4.5598    2.4875    4.3846   C.ar      1 RES1   0.0000
    21 C15      -5.7254    2.2375    5.0869   C.ar      1 RES1   0.0000
    22 C16      -6.1742    0.9419    5.2703   C.ar      1 RES1   0.0000
    23 C17      -5.4152   -0.1086    4.7851   C.ar      1 RES1   0.0000
    24 C18      -4.2177    0.1237    4.1284   C.ar      1 RES1   0.0000
    25 H1       -0.7464    2.4145    3.8806   H         1 RES1   0.0000
    26 H2       -2.1531    3.2343    4.5841   H         1 RES1   0.0000
    27 H3       -1.6465    3.5882    2.9085   H         1 RES1   0.0000
    28 H4       -3.9968    0.0368    1.5720   H         1 RES1   0.0000
    29 H5       -2.5802   -0.9575    2.0400   H         1 RES1   0.0000
    30 H6       -4.1662    0.7798   -0.4129   H         1 RES1   0.0000
    31 H7       -3.6422   -0.5309   -1.5106   H         1 RES1   0.0000
    32 H8       -4.9233    0.9698   -2.3605   H         1 RES1   0.0000
    33 H9       -4.6344    1.5055   -4.0096   H         1 RES1   0.0000
    34 H10      -4.9698    2.6949   -2.7301   H         1 RES1   0.0000
    35 H11      -0.3289    2.3948   -2.9146   H         1 RES1   0.0000
    36 H12       0.7145    3.9881   -4.3924   H         1 RES1   0.0000
    37 H13      -0.6192    5.3058   -6.0164   H         1 RES1   0.0000
    38 H14      -3.0588    4.9833   -6.0875   H         1 RES1   0.0000
    39 H15      -4.1553    3.4559   -4.6041   H         1 RES1   0.0000
    40 H16      -4.2517    3.5091    4.2170   H         1 RES1   0.0000
    41 H17      -6.2800    3.0687    5.4864   H         1 RES1   0.0000
    42 H18      -7.0998    0.7504    5.7892   H         1 RES1   0.0000
    43 H19      -5.7606   -1.1182    4.9273   H         1 RES1   0.0000
    44 H20      -3.6119   -0.7193    3.8363   H         1 RES1   0.0000
    45 C19       3.6381   -0.8786   -3.2008   C.3       1 RES1   0.0000
    46 N3        3.9160   -0.9090   -1.7708   N.am      1 RES1   0.0000
    47 C20       2.9854   -0.4217   -0.9601   C.2       1 RES1   0.0000
    48 O4        1.8367   -0.1534   -1.3563   O.2       1 RES1   0.0000
    49 C21       3.3533   -0.1375    0.5018   C.3       1 RES1   0.0000
    50 O5        2.1847    0.2761    1.2135   O.3       1 RES1   0.0000
    51 C22       2.2470    1.5597    1.8328   C.3       1 RES1   0.0000
    52 C23       1.5973    2.6341    0.9289   C.2       1 RES1   0.0000
    53 O6        1.1352    2.2345   -0.1506   O.2       1 RES1   0.0000
    54 N4        1.5293    3.8783    1.4023   N.am      1 RES1   0.0000
    55 C24       2.3384    4.3035    2.5367   C.3       1 RES1   0.0000
    56 C25       0.7719    4.9323    0.7869   C.ar      1 RES1   0.0000
    57 C26      -0.2846    4.6682   -0.0837   C.ar      1 RES1   0.0000
    58 C27      -1.0071    5.7140   -0.6396   C.ar      1 RES1   0.0000
    59 C28      -0.7197    7.0310   -0.3251   C.ar      1 RES1   0.0000
    60 C29       0.3172    7.2932    0.5522   C.ar      1 RES1   0.0000
    61 C30       1.0612    6.2618    1.0990   C.ar      1 RES1   0.0000
    62 C31       5.1205   -1.5304   -1.3240   C.ar      1 RES1   0.0000
    63 C32       6.3338   -1.1670   -1.8907   C.ar      1 RES1   0.0000
    64 C33       7.4909   -1.8198   -1.5002   C.ar      1 RES1   0.0000
    65 C34       7.4478   -2.8073   -0.5329   C.ar      1 RES1   0.0000
    66 C35       6.2324   -3.1722    0.0225   C.ar      1 RES1   0.0000
    67 C36       5.0631   -2.5559   -0.3842   C.ar      1 RES1   0.0000
    68 H21       2.7229   -1.4292   -3.4241   H         1 RES1   0.0000
    69 H22       4.4725   -1.3179   -3.7387   H         1 RES1   0.0000
    70 H23       3.4946    0.1533   -3.5258   H         1 RES1   0.0000
    71 H24       4.1342    0.6315    0.5143   H         1 RES1   0.0000
    72 H25       3.7511   -1.0228    1.0097   H         1 RES1   0.0000
    73 H26       3.2823    1.7984    2.0838   H         1 RES1   0.0000
    74 H27       1.6403    1.4809    2.7454   H         1 RES1   0.0000
    75 H28       2.7627    3.4752    3.0922   H         1 RES1   0.0000
    76 H29       1.7246    4.8950    3.2174   H         1 RES1   0.0000
    77 H30       3.1633    4.9190    2.1665   H         1 RES1   0.0000
    78 H31      -0.5534    3.6517   -0.3382   H         1 RES1   0.0000
    79 H32      -1.7998    5.4917   -1.3371   H         1 RES1   0.0000
    80 H33      -1.2862    7.8448   -0.7525   H         1 RES1   0.0000
    81 H34       0.5556    8.3128    0.8093   H         1 RES1   0.0000
    82 H35       1.8622    6.5352    1.7632   H         1 RES1   0.0000
    83 H36       6.3697   -0.3853   -2.6352   H         1 RES1   0.0000
    84 H37       8.4232   -1.5548   -1.9659   H         1 RES1   0.0000
    85 H38       8.3499   -3.3041   -0.2164   H         1 RES1   0.0000
    86 H39       6.1976   -3.9542    0.7611   H         1 RES1   0.0000
    87 H40       4.1057   -2.8938   -0.0018   H         1 RES1   0.0000
    88 C37      -0.5852   -1.8011    4.6438   C.3       1 RES1   0.0000
    89 N5        0.2159   -2.5578    3.6930   N.am      1 RES1   0.0000
    90 C38       0.3261   -2.0659    2.4659   C.2       1 RES1   0.0000
    91 O7       -0.1606   -0.9620    2.1438   O.2       1 RES1   0.0000
    92 C39       0.9844   -2.8894    1.3576   C.3       1 RES1   0.0000
    93 O8        0.4433   -2.3424    0.1630   O.3       1 RES1   0.0000
    94 C40       0.6416   -3.1229   -1.0042   C.3       1 RES1   0.0000
    95 C41      -0.2699   -2.4724   -2.0677   C.2       1 RES1   0.0000
    96 O9       -0.7762   -1.3816   -1.7576   O.2       1 RES1   0.0000
    97 N6       -0.4580   -3.1390   -3.2059   N.am      1 RES1   0.0000
    98 C42       0.2936   -4.3524   -3.4920   C.3       1 RES1   0.0000
    99 C43      -1.4403   -2.7999   -4.1952   C.ar      1 RES1   0.0000
   100 C44      -2.1728   -1.6163   -4.1360   C.ar      1 RES1   0.0000
   101 C45      -3.1782   -1.3649   -5.0553   C.ar      1 RES1   0.0000
   102 C46      -3.4650   -2.2616   -6.0673   C.ar      1 RES1   0.0000
   103 C47      -2.7103   -3.4166   -6.1560   C.ar      1 RES1   0.0000
   104 C48      -1.7153   -3.6915   -5.2344   C.ar      1 RES1   0.0000
   105 C49       0.8969   -3.7165    4.1768   C.ar      1 RES1   0.0000
   106 C50       0.2361   -4.6045    5.0209   C.ar      1 RES1   0.0000
   107 C51       0.9180   -5.6908    5.5425   C.ar      1 RES1   0.0000
   108 C52       2.2423   -5.9189    5.2151   C.ar      1 RES1   0.0000
   109 C53       2.8982   -5.0273    4.3836   C.ar      1 RES1   0.0000
   110 C54       2.2410   -3.9183    3.8795   C.ar      1 RES1   0.0000
   111 H41      -0.2530   -0.7628    4.6799   H         1 RES1   0.0000
   112 H42      -0.4822   -2.2503    5.6255   H         1 RES1   0.0000
   113 H43      -1.6355   -1.8142    4.3490   H         1 RES1   0.0000
   114 H44       0.7465   -3.9553    1.4627   H         1 RES1   0.0000
   115 H45       2.0752   -2.7649    1.3511   H         1 RES1   0.0000
   116 H46       0.3504   -4.1641   -0.8229   H         1 RES1   0.0000
   117 H47       1.6962   -3.0864   -1.3156   H         1 RES1   0.0000
   118 H48       1.1373   -4.4969   -2.8251   H         1 RES1   0.0000
   119 H49       0.6774   -4.2710   -4.5097   H         1 RES1   0.0000
   120 H50      -0.3652   -5.2207   -3.4152   H         1 RES1   0.0000
   121 H51      -1.9560   -0.8783   -3.3829   H         1 RES1   0.0000
   122 H52      -3.7445   -0.4516   -4.9768   H         1 RES1   0.0000
   123 H53      -4.2563   -2.0724   -6.7761   H         1 RES1   0.0000
   124 H54      -2.9040   -4.1188   -6.9501   H         1 RES1   0.0000
   125 H55      -1.1819   -4.6155   -5.3666   H         1 RES1   0.0000
   126 H56      -0.8014   -4.4564    5.2833   H         1 RES1   0.0000
   127 H57       0.4063   -6.3535    6.2176   H         1 RES1   0.0000
   128 H58       2.7675   -6.7727    5.6117   H         1 RES1   0.0000
   129 H59       3.9351   -5.1892    4.1442   H         1 RES1   0.0000
   130 H60       2.7877   -3.1865    3.3011   H         1 RES1   0.0000
@<TRIPOS>BOND
     1     1     5    1
     2     1     7    1
     3     1    10    1
     4     1    48    1
     5     1    50    1
     6     1    53    1
     7     1    91    1
     8     1    93    1
     9     1    96    1
    10     2     3    1
    11     2    25    1
    12     2    26    1
    13     2    27    1
    14     3     4    1
    15     3    19    1
    16     4     5    2
    17     4     6    1
    18     6     7    1
    19     6    28    1
    20     6    29    1
    21     7     8    1
    22     8     9    1
    23     8    30    1
    24     8    31    1
    25     9    10    2
    26     9    11    1
    27    11    12    1
    28    11    13    1
    29    12    32    1
    30    12    33    1
    31    12    34    1
    32    13    14    1
    33    13    18    2
    34    14    15    2
    35    14    35    1
    36    15    16    1
    37    15    36    1
    38    16    17    2
    39    16    37    1
    40    17    18    1
    41    17    38    1
    42    18    39    1
    43    19    20    1
    44    19    24    2
    45    20    21    2
    46    20    40    1
    47    21    22    1
    48    21    41    1
    49    22    23    2
    50    22    42    1
    51    23    24    1
    52    23    43    1
    53    24    44    1
    54    45    46    1
    55    45    68    1
    56    45    69    1
    57    45    70    1
    58    46    47    1
    59    46    62    1
    60    47    48    2
    61    47    49    1
    62    49    50    1
    63    49    71    1
    64    49    72    1
    65    50    51    1
    66    51    52    1
    67    51    73    1
    68    51    74    1
    69    52    53    2
    70    52    54    1
    71    54    55    1
    72    54    56    1
    73    55    75    1
    74    55    76    1
    75    55    77    1
    76    56    57    1
    77    56    61    2
    78    57    58    2
    79    57    78    1
    80    58    59    1
    81    58    79    1
    82    59    60    2
    83    59    80    1
    84    60    61    1
    85    60    81    1
    86    61    82    1
    87    62    63    1
    88    62    67    2
    89    63    64    2
    90    63    83    1
    91    64    65    1
    92    64    84    1
    93    65    66    2
    94    65    85    1
    95    66    67    1
    96    66    86    1
    97    67    87    1
    98    88    89    1
    99    88   111    1
   100    88   112    1
   101    88   113    1
   102    89    90    1
   103    89   105    1
   104    90    91    2
   105    90    92    1
   106    92    93    1
   107    92   114    1
   108    92   115    1
   109    93    94    1
   110    94    95    1
   111    94   116    1
   112    94   117    1
   113    95    96    2
   114    95    97    1
   115    97    98    1
   116    97    99    1
   117    98   118    1
   118    98   119    1
   119    98   120    1
   120    99   100    1
   121    99   104    2
   122   100   101    2
   123   100   121    1
   124   101   102    1
   125   101   122    1
   126   102   103    2
   127   102   123    1
   128   103   104    1
   129   103   124    1
   130   104   125    1
   131   105   106    1
   132   105   110    2
   133   106   107    2
   134   106   126    1
   135   107   108    1
   136   107   127    1
   137   108   109    2
   138   108   128    1
   139   109   110    1
   140   109   129    1
   141   110   130    1
@<TRIPOS>SUBSTRUCTURE
     1 RES1      130 GROUP             0 ****  ****    0  
