@<TRIPOS>MOLECULE
am_c3_9H2O_c0_0_nunpairedes_0_charge_3 Charge: 3 Unpaired_Electrons: 7 XTB_Unpaired_Electrons: 0 XTB_Charge: 3
   340   345     1     0     0
SMALL
NoCharges
****
Generated from Architector

@<TRIPOS>ATOM
     1 Gd1      -0.0507   -0.0310    0.1302   Gd        1 RES1   0.0000
     2 C1        4.6571    2.9716   -7.7257   C.3       1 RES1   0.0000
     3 C2        3.7114    3.8167   -8.5717   C.3       1 RES1   0.0000
     4 C3        2.2575    3.3217   -8.5187   C.3       1 RES1   0.0000
     5 C4        1.4458    3.9929   -7.4031   C.3       1 RES1   0.0000
     6 C5        0.1936    3.2042   -7.0233   C.3       1 RES1   0.0000
     7 C6       -0.5612    3.7585   -5.8017   C.3       1 RES1   0.0000
     8 C7       -1.0123    2.6411   -4.8495   C.3       1 RES1   0.0000
     9 C8       -1.9402    3.1794   -3.7655   C.3       1 RES1   0.0000
    10 N1       -2.7151    2.1553   -3.0488   N.am      1 RES1   0.0000
    11 C9       -4.1180    1.9847   -3.4616   C.3       1 RES1   0.0000
    12 C10      -4.6521    0.5460   -3.4636   C.3       1 RES1   0.0000
    13 C11      -5.7629    0.3063   -4.4918   C.3       1 RES1   0.0000
    14 C12      -6.6735   -0.8367   -4.0258   C.3       1 RES1   0.0000
    15 C13      -5.9526   -2.1346   -3.6504   C.3       1 RES1   0.0000
    16 C14      -6.8859   -3.0899   -2.8991   C.3       1 RES1   0.0000
    17 C15      -6.1658   -4.2890   -2.2735   C.3       1 RES1   0.0000
    18 C16      -5.7020   -5.3095   -3.3069   C.3       1 RES1   0.0000
    19 C17      -2.1997    1.5557   -1.9808   C.2       1 RES1   0.0000
    20 O1       -0.9929    1.5861   -1.6663   O.2       1 RES1   0.0000
    21 C18      -3.1758    0.8527   -1.0255   C.3       1 RES1   0.0000
    22 O2       -2.5727    0.6623    0.2447   O.3       1 RES1   0.0000
    23 C19      -2.9232    1.6206    1.2406   C.3       1 RES1   0.0000
    24 C20      -1.6374    2.2531    1.7908   C.2       1 RES1   0.0000
    25 O3       -0.5474    1.8640    1.3212   O.2       1 RES1   0.0000
    26 N2       -1.7115    3.1701    2.7432   N.am      1 RES1   0.0000
    27 C21      -2.9669    3.7088    3.2503   C.3       1 RES1   0.0000
    28 C22      -3.6395    4.7235    2.2983   C.3       1 RES1   0.0000
    29 C23      -5.1714    4.5647    2.2502   C.3       1 RES1   0.0000
    30 C24      -5.9347    5.3724    3.3113   C.3       1 RES1   0.0000
    31 C25      -6.0743    6.8568    2.9628   C.3       1 RES1   0.0000
    32 C26      -6.8611    7.6524    4.0088   C.3       1 RES1   0.0000
    33 C27      -6.1401    7.8430    5.3455   C.3       1 RES1   0.0000
    34 C28      -4.8600    8.6692    5.2316   C.3       1 RES1   0.0000
    35 C29      -0.4651    3.7692    3.2162   C.3       1 RES1   0.0000
    36 C30       0.4894    2.8176    3.9807   C.3       1 RES1   0.0000
    37 C31       0.8023    3.3326    5.4002   C.3       1 RES1   0.0000
    38 C32       2.2240    3.0613    5.9200   C.3       1 RES1   0.0000
    39 C33       2.4592    1.6602    6.4872   C.3       1 RES1   0.0000
    40 C34       3.8669    1.5262    7.0772   C.3       1 RES1   0.0000
    41 C35       4.0904    0.2181    7.8500   C.3       1 RES1   0.0000
    42 C36       5.5155   -0.3180    7.7337   C.3       1 RES1   0.0000
    43 H1        5.6847    3.2826   -7.8856   H         1 RES1   0.0000
    44 H2        4.5771    1.9229   -8.0017   H         1 RES1   0.0000
    45 H3        4.4325    3.0728   -6.6668   H         1 RES1   0.0000
    46 H4        4.0612    3.7951   -9.6025   H         1 RES1   0.0000
    47 H5        3.7548    4.8557   -8.2424   H         1 RES1   0.0000
    48 H6        2.2681    2.2341   -8.3761   H         1 RES1   0.0000
    49 H7        1.7647    3.5209   -9.4716   H         1 RES1   0.0000
    50 H8        1.1576    4.9968   -7.7208   H         1 RES1   0.0000
    51 H9        2.0795    4.0932   -6.5218   H         1 RES1   0.0000
    52 H10       0.4772    2.1725   -6.8152   H         1 RES1   0.0000
    53 H11      -0.4784    3.1777   -7.8782   H         1 RES1   0.0000
    54 H12      -1.4438    4.3148   -6.1288   H         1 RES1   0.0000
    55 H13       0.0708    4.4746   -5.2712   H         1 RES1   0.0000
    56 H14      -0.1512    2.1577   -4.3879   H         1 RES1   0.0000
    57 H15      -1.5458    1.8915   -5.4246   H         1 RES1   0.0000
    58 H16      -2.6619    3.8679   -4.2097   H         1 RES1   0.0000
    59 H17      -1.3624    3.7366   -3.0260   H         1 RES1   0.0000
    60 H18      -4.1778    2.3663   -4.4858   H         1 RES1   0.0000
    61 H19      -4.7594    2.6197   -2.8354   H         1 RES1   0.0000
    62 H20      -5.0976    0.2940   -2.5038   H         1 RES1   0.0000
    63 H21      -3.8247   -0.1293   -3.6682   H         1 RES1   0.0000
    64 H22      -5.3410    0.0933   -5.4731   H         1 RES1   0.0000
    65 H23      -6.3775    1.2035   -4.5794   H         1 RES1   0.0000
    66 H24      -7.4115   -1.0580   -4.7961   H         1 RES1   0.0000
    67 H25      -7.2189   -0.4962   -3.1426   H         1 RES1   0.0000
    68 H26      -5.1053   -1.9200   -2.9938   H         1 RES1   0.0000
    69 H27      -5.5582   -2.6224   -4.5418   H         1 RES1   0.0000
    70 H28      -7.6607   -3.4546   -3.5743   H         1 RES1   0.0000
    71 H29      -7.3801   -2.5298   -2.1006   H         1 RES1   0.0000
    72 H30      -6.8494   -4.7846   -1.5804   H         1 RES1   0.0000
    73 H31      -5.3086   -3.9379   -1.6872   H         1 RES1   0.0000
    74 H32      -6.5526   -5.6818   -3.8717   H         1 RES1   0.0000
    75 H33      -5.2184   -6.1557   -2.8234   H         1 RES1   0.0000
    76 H34      -4.9970   -4.8703   -4.0088   H         1 RES1   0.0000
    77 H35      -3.4208   -0.1425   -1.3980   H         1 RES1   0.0000
    78 H36      -4.0881    1.4526   -0.9408   H         1 RES1   0.0000
    79 H37      -3.4523    1.0838    2.0401   H         1 RES1   0.0000
    80 H38      -3.5953    2.3926    0.8482   H         1 RES1   0.0000
    81 H39      -2.7391    4.1678    4.2098   H         1 RES1   0.0000
    82 H40      -3.6588    2.8881    3.4447   H         1 RES1   0.0000
    83 H41      -3.2232    4.5783    1.2964   H         1 RES1   0.0000
    84 H42      -3.4005    5.7453    2.5935   H         1 RES1   0.0000
    85 H43      -5.4163    3.5021    2.3629   H         1 RES1   0.0000
    86 H44      -5.5269    4.8781    1.2650   H         1 RES1   0.0000
    87 H45      -5.4442    5.2579    4.2781   H         1 RES1   0.0000
    88 H46      -6.9375    4.9488    3.3991   H         1 RES1   0.0000
    89 H47      -6.6012    6.9445    2.0101   H         1 RES1   0.0000
    90 H48      -5.0913    7.3128    2.8357   H         1 RES1   0.0000
    91 H49      -7.8186    7.1603    4.1921   H         1 RES1   0.0000
    92 H50      -7.0797    8.6416    3.6005   H         1 RES1   0.0000
    93 H51      -5.9059    6.8756    5.7955   H         1 RES1   0.0000
    94 H52      -6.8217    8.3581    6.0256   H         1 RES1   0.0000
    95 H53      -4.0873    8.1376    4.6768   H         1 RES1   0.0000
    96 H54      -4.4658    8.8892    6.2225   H         1 RES1   0.0000
    97 H55      -5.0552    9.6127    4.7245   H         1 RES1   0.0000
    98 H56      -0.7432    4.5949    3.8705   H         1 RES1   0.0000
    99 H57       0.0638    4.1740    2.3494   H         1 RES1   0.0000
   100 H58       1.4250    2.7412    3.4218   H         1 RES1   0.0000
   101 H59       0.0652    1.8115    4.0207   H         1 RES1   0.0000
   102 H60       0.0893    2.9111    6.1102   H         1 RES1   0.0000
   103 H61       0.6657    4.4165    5.4044   H         1 RES1   0.0000
   104 H62       2.4159    3.7785    6.7216   H         1 RES1   0.0000
   105 H63       2.9481    3.2698    5.1276   H         1 RES1   0.0000
   106 H64       2.3038    0.9130    5.7051   H         1 RES1   0.0000
   107 H65       1.7228    1.4793    7.2699   H         1 RES1   0.0000
   108 H66       4.0482    2.3661    7.7487   H         1 RES1   0.0000
   109 H67       4.5990    1.6038    6.2700   H         1 RES1   0.0000
   110 H68       3.4016   -0.5493    7.4953   H         1 RES1   0.0000
   111 H69       3.8793    0.3810    8.9057   H         1 RES1   0.0000
   112 H70       5.7561   -0.5805    6.7039   H         1 RES1   0.0000
   113 H71       5.6290   -1.2116    8.3483   H         1 RES1   0.0000
   114 H72       6.2375    0.4199    8.0761   H         1 RES1   0.0000
   115 C37      -0.8019   -5.0390   -7.5953   C.3       1 RES1   0.0000
   116 C38       0.4133   -4.5719   -8.3965   C.3       1 RES1   0.0000
   117 C39       0.6524   -3.0554   -8.4086   C.3       1 RES1   0.0000
   118 C40       1.5463   -2.5469   -7.2733   C.3       1 RES1   0.0000
   119 C41       2.0118   -1.1064   -7.5221   C.3       1 RES1   0.0000
   120 C42       2.9095   -0.5262   -6.4163   C.3       1 RES1   0.0000
   121 C43       2.2577    0.5547   -5.5283   C.3       1 RES1   0.0000
   122 C44       2.7353    0.3821   -4.0861   C.3       1 RES1   0.0000
   123 N3        2.5429    1.4819   -3.1349   N.am      1 RES1   0.0000
   124 C45       3.1908    2.7612   -3.4339   C.3       1 RES1   0.0000
   125 C46       2.3503    3.9971   -3.0787   C.3       1 RES1   0.0000
   126 C47       2.6612    5.2582   -3.8897   C.3       1 RES1   0.0000
   127 C48       2.0839    6.5049   -3.2030   C.3       1 RES1   0.0000
   128 C49       0.5677    6.4921   -2.9893   C.3       1 RES1   0.0000
   129 C50       0.0928    7.7206   -2.2054   C.3       1 RES1   0.0000
   130 C51      -1.4072    7.6927   -1.8797   C.3       1 RES1   0.0000
   131 C52      -2.2884    7.9031   -3.1079   C.3       1 RES1   0.0000
   132 C53       2.0556    1.1841   -1.9380   C.2       1 RES1   0.0000
   133 O4        1.5390    0.0787   -1.6550   O.2       1 RES1   0.0000
   134 C54       2.2030    2.1915   -0.7904   C.3       1 RES1   0.0000
   135 O5        2.0081    1.5280    0.4469   O.3       1 RES1   0.0000
   136 C55       3.1852    1.1764    1.1645   C.3       1 RES1   0.0000
   137 C56       2.8233   -0.0834    1.9567   C.2       1 RES1   0.0000
   138 O6        1.8188   -0.7135    1.5697   O.2       1 RES1   0.0000
   139 N4        3.5758   -0.4792    2.9728   N.am      1 RES1   0.0000
   140 C57       4.6438    0.3308    3.5591   C.3       1 RES1   0.0000
   141 C58       5.9910    0.3054    2.7966   C.3       1 RES1   0.0000
   142 C59       6.5685    1.7050    2.5142   C.3       1 RES1   0.0000
   143 C60       7.4985    2.2237    3.6212   C.3       1 RES1   0.0000
   144 C61       8.9408    1.7337    3.4591   C.3       1 RES1   0.0000
   145 C62       9.8069    1.9600    4.7006   C.3       1 RES1   0.0000
   146 C63       9.4202    1.1006    5.9062   C.3       1 RES1   0.0000
   147 C64       9.4129   -0.3944    5.6070   C.3       1 RES1   0.0000
   148 C65       3.2957   -1.7909    3.5695   C.3       1 RES1   0.0000
   149 C66       1.9380   -1.9072    4.3019   C.3       1 RES1   0.0000
   150 C67       2.0835   -2.5909    5.6775   C.3       1 RES1   0.0000
   151 C68       1.1282   -3.7548    5.9822   C.3       1 RES1   0.0000
   152 C69      -0.2336   -3.3199    6.5244   C.3       1 RES1   0.0000
   153 C70      -1.1063   -4.4947    6.9787   C.3       1 RES1   0.0000
   154 C71      -2.3953   -4.0278    7.6831   C.3       1 RES1   0.0000
   155 C72      -3.6702   -4.7288    7.2223   C.3       1 RES1   0.0000
   156 H73      -0.9483   -6.1059   -7.7622   H         1 RES1   0.0000
   157 H74      -1.7066   -4.5227   -7.9169   H         1 RES1   0.0000
   158 H75      -0.6692   -4.8843   -6.5222   H         1 RES1   0.0000
   159 H76       0.2726   -4.9056   -9.4263   H         1 RES1   0.0000
   160 H77       1.2966   -5.0758   -8.0004   H         1 RES1   0.0000
   161 H78      -0.3095   -2.5419   -8.3700   H         1 RES1   0.0000
   162 H79       1.1266   -2.7907   -9.3528   H         1 RES1   0.0000
   163 H80       2.4124   -3.2060   -7.1822   H         1 RES1   0.0000
   164 H81       0.9881   -2.6187   -6.3399   H         1 RES1   0.0000
   165 H82       1.1362   -0.4737   -7.6719   H         1 RES1   0.0000
   166 H83       2.5697   -1.1046   -8.4576   H         1 RES1   0.0000
   167 H84       3.8015   -0.0894   -6.8643   H         1 RES1   0.0000
   168 H85       3.2520   -1.3419   -5.7838   H         1 RES1   0.0000
   169 H86       1.1696    0.4775   -5.5678   H         1 RES1   0.0000
   170 H87       2.5392    1.5341   -5.9156   H         1 RES1   0.0000
   171 H88       3.8104    0.1807   -4.1094   H         1 RES1   0.0000
   172 H89       2.2199   -0.4740   -3.6482   H         1 RES1   0.0000
   173 H90       3.3934    2.7607   -4.5075   H         1 RES1   0.0000
   174 H91       4.1565    2.7928   -2.9185   H         1 RES1   0.0000
   175 H92       2.5204    4.2838   -2.0454   H         1 RES1   0.0000
   176 H93       1.2999    3.7524   -3.2100   H         1 RES1   0.0000
   177 H94       2.2706    5.1869   -4.9035   H         1 RES1   0.0000
   178 H95       3.7418    5.3827   -3.9607   H         1 RES1   0.0000
   179 H96       2.3411    7.3806   -3.7993   H         1 RES1   0.0000
   180 H97       2.5683    6.6255   -2.2310   H         1 RES1   0.0000
   181 H98       0.2766    5.6014   -2.4243   H         1 RES1   0.0000
   182 H99       0.0589    6.4672   -3.9531   H         1 RES1   0.0000
   183 H100      0.3154    8.6269   -2.7733   H         1 RES1   0.0000
   184 H101      0.6521    7.7788   -1.2664   H         1 RES1   0.0000
   185 H102     -1.6196    8.4875   -1.1590   H         1 RES1   0.0000
   186 H103     -1.6653    6.7408   -1.3983   H         1 RES1   0.0000
   187 H104     -1.9988    8.8174   -3.6203   H         1 RES1   0.0000
   188 H105     -3.3306    7.9950   -2.8104   H         1 RES1   0.0000
   189 H106     -2.2019    7.0735   -3.8077   H         1 RES1   0.0000
   190 H107      1.3956    2.9278   -0.8424   H         1 RES1   0.0000
   191 H108      3.1809    2.6823   -0.8253   H         1 RES1   0.0000
   192 H109      3.4986    2.0136    1.7982   H         1 RES1   0.0000
   193 H110      4.0109    0.9347    0.4874   H         1 RES1   0.0000
   194 H111      4.7815   -0.0388    4.5740   H         1 RES1   0.0000
   195 H112      4.2942    1.3635    3.6448   H         1 RES1   0.0000
   196 H113      5.8459   -0.2330    1.8571   H         1 RES1   0.0000
   197 H114      6.7263   -0.2577    3.3735   H         1 RES1   0.0000
   198 H115      5.7446    2.4096    2.3669   H         1 RES1   0.0000
   199 H116      7.1316    1.6662    1.5802   H         1 RES1   0.0000
   200 H117      7.1062    1.9250    4.5932   H         1 RES1   0.0000
   201 H118      7.5093    3.3140    3.5961   H         1 RES1   0.0000
   202 H119      9.3982    2.2660    2.6222   H         1 RES1   0.0000
   203 H120      8.9549    0.6724    3.2092   H         1 RES1   0.0000
   204 H121      9.7650    3.0126    4.9876   H         1 RES1   0.0000
   205 H122     10.8438    1.7357    4.4423   H         1 RES1   0.0000
   206 H123      8.4397    1.3969    6.2846   H         1 RES1   0.0000
   207 H124     10.1416    1.2958    6.7006   H         1 RES1   0.0000
   208 H125      8.5911   -0.6652    4.9476   H         1 RES1   0.0000
   209 H126      9.2975   -0.9614    6.5263   H         1 RES1   0.0000
   210 H127     10.3423   -0.6968    5.1326   H         1 RES1   0.0000
   211 H128      4.1043   -1.9984    4.2720   H         1 RES1   0.0000
   212 H129      3.3402   -2.5400    2.7729   H         1 RES1   0.0000
   213 H130      1.2409   -2.4626    3.6726   H         1 RES1   0.0000
   214 H131      1.5199   -0.9058    4.4164   H         1 RES1   0.0000
   215 H132      1.9581   -1.8458    6.4629   H         1 RES1   0.0000
   216 H133      3.0984   -2.9806    5.7669   H         1 RES1   0.0000
   217 H134      1.6045   -4.3677    6.7495   H         1 RES1   0.0000
   218 H135      1.0004   -4.3845    5.0978   H         1 RES1   0.0000
   219 H136     -0.7635   -2.7441    5.7640   H         1 RES1   0.0000
   220 H137     -0.0640   -2.6648    7.3796   H         1 RES1   0.0000
   221 H138     -0.5255   -5.1146    7.6627   H         1 RES1   0.0000
   222 H139     -1.3523   -5.1201    6.1178   H         1 RES1   0.0000
   223 H140     -2.5177   -2.9539    7.5373   H         1 RES1   0.0000
   224 H141     -2.3006   -4.1950    8.7552   H         1 RES1   0.0000
   225 H142     -3.8711   -4.5527    6.1666   H         1 RES1   0.0000
   226 H143     -4.5197   -4.3517    7.7902   H         1 RES1   0.0000
   227 H144     -3.6071   -5.8008    7.3844   H         1 RES1   0.0000
   228 C73      -3.8105    3.6860   -8.1639   C.3       1 RES1   0.0000
   229 C74      -3.8535    2.4501   -9.0555   C.3       1 RES1   0.0000
   230 C75      -2.8456    1.3598   -8.6864   C.3       1 RES1   0.0000
   231 C76      -3.1604    0.6129   -7.3876   C.3       1 RES1   0.0000
   232 C77      -2.0640   -0.4108   -7.0751   C.3       1 RES1   0.0000
   233 C78      -2.3630   -1.3495   -5.8923   C.3       1 RES1   0.0000
   234 C79      -1.2196   -1.4205   -4.8722   C.3       1 RES1   0.0000
   235 C80      -1.4564   -2.5961   -3.9308   C.3       1 RES1   0.0000
   236 N5       -0.3309   -2.9385   -3.0679   N.am      1 RES1   0.0000
   237 C81       0.6554   -3.8899   -3.5641   C.3       1 RES1   0.0000
   238 C82       2.0564   -3.2840   -3.7073   C.3       1 RES1   0.0000
   239 C83       3.1424   -4.3696   -3.7816   C.3       1 RES1   0.0000
   240 C84       4.1110   -4.3517   -2.5996   C.3       1 RES1   0.0000
   241 C85       4.9784   -3.0941   -2.5382   C.3       1 RES1   0.0000
   242 C86       6.0782   -3.2673   -1.4911   C.3       1 RES1   0.0000
   243 C87       6.8457   -1.9877   -1.1576   C.3       1 RES1   0.0000
   244 C88       7.7682   -1.5293   -2.2811   C.3       1 RES1   0.0000
   245 C89      -0.2745   -2.4545   -1.8349   C.2       1 RES1   0.0000
   246 O7       -0.9908   -1.5122   -1.4330   O.2       1 RES1   0.0000
   247 C90       0.6538   -3.1385   -0.8140   C.3       1 RES1   0.0000
   248 O8        0.3654   -2.6397    0.4792   O.3       1 RES1   0.0000
   249 C91      -0.5683   -3.3880    1.2500   C.3       1 RES1   0.0000
   250 C92      -1.4510   -2.3942    2.0107   C.2       1 RES1   0.0000
   251 O9       -1.3802   -1.1849    1.7132   O.2       1 RES1   0.0000
   252 N6       -2.2862   -2.8579    2.9304   N.am      1 RES1   0.0000
   253 C93      -2.2886   -4.2405    3.4102   C.3       1 RES1   0.0000
   254 C94      -3.0157   -5.2514    2.4941   C.3       1 RES1   0.0000
   255 C95      -2.1707   -6.4996    2.1941   C.3       1 RES1   0.0000
   256 C96      -2.2819   -7.5786    3.2790   C.3       1 RES1   0.0000
   257 C97      -3.5306   -8.4467    3.1098   C.3       1 RES1   0.0000
   258 C98      -3.7762   -9.4060    4.2770   C.3       1 RES1   0.0000
   259 C99      -4.2464   -8.7243    5.5638   C.3       1 RES1   0.0000
   260 C100     -5.5818   -8.0041    5.4113   C.3       1 RES1   0.0000
   261 C101     -3.2508   -1.9218    3.5175   C.3       1 RES1   0.0000
   262 C102     -2.6351   -0.8886    4.4863   C.3       1 RES1   0.0000
   263 C103     -3.4439   -0.7393    5.7913   C.3       1 RES1   0.0000
   264 C104     -4.1150    0.6169    6.0245   C.3       1 RES1   0.0000
   265 C105     -3.1173    1.6997    6.4226   C.3       1 RES1   0.0000
   266 C106     -3.7782    3.0279    6.8033   C.3       1 RES1   0.0000
   267 C107     -2.7460    3.9974    7.4051   C.3       1 RES1   0.0000
   268 C108     -3.0205    5.4785    7.1637   C.3       1 RES1   0.0000
   269 H145     -4.6246    4.3541   -8.4335   H         1 RES1   0.0000
   270 H146     -2.8760    4.2260   -8.2950   H         1 RES1   0.0000
   271 H147     -3.9192    3.4233   -7.1130   H         1 RES1   0.0000
   272 H148     -3.6487    2.7677  -10.0775   H         1 RES1   0.0000
   273 H149     -4.8588    2.0290   -9.0374   H         1 RES1   0.0000
   274 H150     -1.8512    1.8037   -8.6087   H         1 RES1   0.0000
   275 H151     -2.8183    0.6268   -9.4951   H         1 RES1   0.0000
   276 H152     -4.1183    0.1017   -7.4995   H         1 RES1   0.0000
   277 H153     -3.2550    1.3220   -6.5620   H         1 RES1   0.0000
   278 H154     -1.1282    0.1219   -6.8859   H         1 RES1   0.0000
   279 H155     -1.9072   -1.0118   -7.9731   H         1 RES1   0.0000
   280 H156     -2.5280   -2.3569   -6.2784   H         1 RES1   0.0000
   281 H157     -3.2898   -1.0477   -5.4043   H         1 RES1   0.0000
   282 H158     -1.1229   -0.4956   -4.2978   H         1 RES1   0.0000
   283 H159     -0.2860   -1.5797   -5.4112   H         1 RES1   0.0000
   284 H160     -1.6790   -3.4865   -4.5249   H         1 RES1   0.0000
   285 H161     -2.3076   -2.3968   -3.2792   H         1 RES1   0.0000
   286 H162      0.3237   -4.2365   -4.5447   H         1 RES1   0.0000
   287 H163      0.6919   -4.7589   -2.9005   H         1 RES1   0.0000
   288 H164      2.2615   -2.6144   -2.8755   H         1 RES1   0.0000
   289 H165      2.0774   -2.6746   -4.6069   H         1 RES1   0.0000
   290 H166      3.7193   -4.2523   -4.6982   H         1 RES1   0.0000
   291 H167      2.6632   -5.3472   -3.8413   H         1 RES1   0.0000
   292 H168      4.7679   -5.2168   -2.6895   H         1 RES1   0.0000
   293 H169      3.5696   -4.4574   -1.6555   H         1 RES1   0.0000
   294 H170      4.3684   -2.2203   -2.2834   H         1 RES1   0.0000
   295 H171      5.4231   -2.9147   -3.5166   H         1 RES1   0.0000
   296 H172      6.7845   -4.0219   -1.8377   H         1 RES1   0.0000
   297 H173      5.6214   -3.6540   -0.5769   H         1 RES1   0.0000
   298 H174      7.4507   -2.1743   -0.2681   H         1 RES1   0.0000
   299 H175      6.1335   -1.1925   -0.9114   H         1 RES1   0.0000
   300 H176      8.4751   -2.3172   -2.5290   H         1 RES1   0.0000
   301 H177      8.3372   -0.6558   -1.9718   H         1 RES1   0.0000
   302 H178      7.2063   -1.2725   -3.1765   H         1 RES1   0.0000
   303 H179      1.7028   -2.8879   -1.0124   H         1 RES1   0.0000
   304 H180      0.5445   -4.2313   -0.8674   H         1 RES1   0.0000
   305 H181     -0.0172   -4.0460    1.9357   H         1 RES1   0.0000
   306 H182     -1.2106   -4.0085    0.6177   H         1 RES1   0.0000
   307 H183     -2.7459   -4.2293    4.3987   H         1 RES1   0.0000
   308 H184     -1.2573   -4.5714    3.5520   H         1 RES1   0.0000
   309 H185     -3.2856   -4.7475    1.5640   H         1 RES1   0.0000
   310 H186     -3.9506   -5.5740    2.9525   H         1 RES1   0.0000
   311 H187     -1.1254   -6.2010    2.0738   H         1 RES1   0.0000
   312 H188     -2.4948   -6.9271    1.2435   H         1 RES1   0.0000
   313 H189     -2.2780   -7.1050    4.2609   H         1 RES1   0.0000
   314 H190     -1.4054   -8.2252    3.2261   H         1 RES1   0.0000
   315 H191     -3.4197   -9.0361    2.1968   H         1 RES1   0.0000
   316 H192     -4.4117   -7.8171    2.9805   H         1 RES1   0.0000
   317 H193     -2.8631   -9.9698    4.4820   H         1 RES1   0.0000
   318 H194     -4.5412  -10.1247    3.9763   H         1 RES1   0.0000
   319 H195     -3.4898   -8.0183    5.9139   H         1 RES1   0.0000
   320 H196     -4.3496   -9.4927    6.3316   H         1 RES1   0.0000
   321 H197     -5.4946   -7.1287    4.7724   H         1 RES1   0.0000
   322 H198     -5.9422   -7.6712    6.3801   H         1 RES1   0.0000
   323 H199     -6.3266   -8.6668    4.9800   H         1 RES1   0.0000
   324 H200     -3.9920   -2.5156    4.0542   H         1 RES1   0.0000
   325 H201     -3.7559   -1.4044    2.6956   H         1 RES1   0.0000
   326 H202     -2.5453    0.0747    3.9831   H         1 RES1   0.0000
   327 H203     -1.6163   -1.2027    4.7192   H         1 RES1   0.0000
   328 H204     -2.7818   -0.9159    6.6384   H         1 RES1   0.0000
   329 H205     -4.2156   -1.5092    5.8260   H         1 RES1   0.0000
   330 H206     -4.8240    0.4927    6.8437   H         1 RES1   0.0000
   331 H207     -4.6868    0.9192    5.1440   H         1 RES1   0.0000
   332 H208     -2.4100    1.8611    5.6066   H         1 RES1   0.0000
   333 H209     -2.5485    1.3399    7.2795   H         1 RES1   0.0000
   334 H210     -4.5714    2.8429    7.5306   H         1 RES1   0.0000
   335 H211     -4.2538    3.4717    5.9236   H         1 RES1   0.0000
   336 H212     -1.7613    3.7559    6.9970   H         1 RES1   0.0000
   337 H213     -2.6958    3.8377    8.4832   H         1 RES1   0.0000
   338 H214     -3.0701    5.7085    6.1025   H         1 RES1   0.0000
   339 H215     -2.2144    6.0630    7.6050   H         1 RES1   0.0000
   340 H216     -3.9523    5.7858    7.6286   H         1 RES1   0.0000
@<TRIPOS>BOND
     1     1    20    1
     2     1    22    1
     3     1    25    1
     4     1   133    1
     5     1   135    1
     6     1   138    1
     7     1   246    1
     8     1   248    1
     9     1   251    1
    10     2     3    1
    11     2    43    1
    12     2    44    1
    13     2    45    1
    14     3     4    1
    15     3    46    1
    16     3    47    1
    17     4     5    1
    18     4    48    1
    19     4    49    1
    20     5     6    1
    21     5    50    1
    22     5    51    1
    23     6     7    1
    24     6    52    1
    25     6    53    1
    26     7     8    1
    27     7    54    1
    28     7    55    1
    29     8     9    1
    30     8    56    1
    31     8    57    1
    32     9    10    1
    33     9    58    1
    34     9    59    1
    35    10    11    1
    36    10    19    1
    37    11    12    1
    38    11    60    1
    39    11    61    1
    40    12    13    1
    41    12    62    1
    42    12    63    1
    43    13    14    1
    44    13    64    1
    45    13    65    1
    46    14    15    1
    47    14    66    1
    48    14    67    1
    49    15    16    1
    50    15    68    1
    51    15    69    1
    52    16    17    1
    53    16    70    1
    54    16    71    1
    55    17    18    1
    56    17    72    1
    57    17    73    1
    58    18    74    1
    59    18    75    1
    60    18    76    1
    61    19    20    2
    62    19    21    1
    63    21    22    1
    64    21    77    1
    65    21    78    1
    66    22    23    1
    67    23    24    1
    68    23    79    1
    69    23    80    1
    70    24    25    2
    71    24    26    1
    72    26    27    1
    73    26    35    1
    74    27    28    1
    75    27    81    1
    76    27    82    1
    77    28    29    1
    78    28    83    1
    79    28    84    1
    80    29    30    1
    81    29    85    1
    82    29    86    1
    83    30    31    1
    84    30    87    1
    85    30    88    1
    86    31    32    1
    87    31    89    1
    88    31    90    1
    89    32    33    1
    90    32    91    1
    91    32    92    1
    92    33    34    1
    93    33    93    1
    94    33    94    1
    95    34    95    1
    96    34    96    1
    97    34    97    1
    98    35    36    1
    99    35    98    1
   100    35    99    1
   101    36    37    1
   102    36   100    1
   103    36   101    1
   104    37    38    1
   105    37   102    1
   106    37   103    1
   107    38    39    1
   108    38   104    1
   109    38   105    1
   110    39    40    1
   111    39   106    1
   112    39   107    1
   113    40    41    1
   114    40   108    1
   115    40   109    1
   116    41    42    1
   117    41   110    1
   118    41   111    1
   119    42   112    1
   120    42   113    1
   121    42   114    1
   122   115   116    1
   123   115   156    1
   124   115   157    1
   125   115   158    1
   126   116   117    1
   127   116   159    1
   128   116   160    1
   129   117   118    1
   130   117   161    1
   131   117   162    1
   132   118   119    1
   133   118   163    1
   134   118   164    1
   135   119   120    1
   136   119   165    1
   137   119   166    1
   138   120   121    1
   139   120   167    1
   140   120   168    1
   141   121   122    1
   142   121   169    1
   143   121   170    1
   144   122   123    1
   145   122   171    1
   146   122   172    1
   147   123   124    1
   148   123   132    1
   149   124   125    1
   150   124   173    1
   151   124   174    1
   152   125   126    1
   153   125   175    1
   154   125   176    1
   155   126   127    1
   156   126   177    1
   157   126   178    1
   158   127   128    1
   159   127   179    1
   160   127   180    1
   161   128   129    1
   162   128   181    1
   163   128   182    1
   164   129   130    1
   165   129   183    1
   166   129   184    1
   167   130   131    1
   168   130   185    1
   169   130   186    1
   170   131   187    1
   171   131   188    1
   172   131   189    1
   173   132   133    2
   174   132   134    1
   175   134   135    1
   176   134   190    1
   177   134   191    1
   178   135   136    1
   179   136   137    1
   180   136   192    1
   181   136   193    1
   182   137   138    2
   183   137   139    1
   184   139   140    1
   185   139   148    1
   186   140   141    1
   187   140   194    1
   188   140   195    1
   189   141   142    1
   190   141   196    1
   191   141   197    1
   192   142   143    1
   193   142   198    1
   194   142   199    1
   195   143   144    1
   196   143   200    1
   197   143   201    1
   198   144   145    1
   199   144   202    1
   200   144   203    1
   201   145   146    1
   202   145   204    1
   203   145   205    1
   204   146   147    1
   205   146   206    1
   206   146   207    1
   207   147   208    1
   208   147   209    1
   209   147   210    1
   210   148   149    1
   211   148   211    1
   212   148   212    1
   213   149   150    1
   214   149   213    1
   215   149   214    1
   216   150   151    1
   217   150   215    1
   218   150   216    1
   219   151   152    1
   220   151   217    1
   221   151   218    1
   222   152   153    1
   223   152   219    1
   224   152   220    1
   225   153   154    1
   226   153   221    1
   227   153   222    1
   228   154   155    1
   229   154   223    1
   230   154   224    1
   231   155   225    1
   232   155   226    1
   233   155   227    1
   234   228   229    1
   235   228   269    1
   236   228   270    1
   237   228   271    1
   238   229   230    1
   239   229   272    1
   240   229   273    1
   241   230   231    1
   242   230   274    1
   243   230   275    1
   244   231   232    1
   245   231   276    1
   246   231   277    1
   247   232   233    1
   248   232   278    1
   249   232   279    1
   250   233   234    1
   251   233   280    1
   252   233   281    1
   253   234   235    1
   254   234   282    1
   255   234   283    1
   256   235   236    1
   257   235   284    1
   258   235   285    1
   259   236   237    1
   260   236   245    1
   261   237   238    1
   262   237   286    1
   263   237   287    1
   264   238   239    1
   265   238   288    1
   266   238   289    1
   267   239   240    1
   268   239   290    1
   269   239   291    1
   270   240   241    1
   271   240   292    1
   272   240   293    1
   273   241   242    1
   274   241   294    1
   275   241   295    1
   276   242   243    1
   277   242   296    1
   278   242   297    1
   279   243   244    1
   280   243   298    1
   281   243   299    1
   282   244   300    1
   283   244   301    1
   284   244   302    1
   285   245   246    2
   286   245   247    1
   287   247   248    1
   288   247   303    1
   289   247   304    1
   290   248   249    1
   291   249   250    1
   292   249   305    1
   293   249   306    1
   294   250   251    2
   295   250   252    1
   296   252   253    1
   297   252   261    1
   298   253   254    1
   299   253   307    1
   300   253   308    1
   301   254   255    1
   302   254   309    1
   303   254   310    1
   304   255   256    1
   305   255   311    1
   306   255   312    1
   307   256   257    1
   308   256   313    1
   309   256   314    1
   310   257   258    1
   311   257   315    1
   312   257   316    1
   313   258   259    1
   314   258   317    1
   315   258   318    1
   316   259   260    1
   317   259   319    1
   318   259   320    1
   319   260   321    1
   320   260   322    1
   321   260   323    1
   322   261   262    1
   323   261   324    1
   324   261   325    1
   325   262   263    1
   326   262   326    1
   327   262   327    1
   328   263   264    1
   329   263   328    1
   330   263   329    1
   331   264   265    1
   332   264   330    1
   333   264   331    1
   334   265   266    1
   335   265   332    1
   336   265   333    1
   337   266   267    1
   338   266   334    1
   339   266   335    1
   340   267   268    1
   341   267   336    1
   342   267   337    1
   343   268   338    1
   344   268   339    1
   345   268   340    1
@<TRIPOS>SUBSTRUCTURE
     1 RES1      340 GROUP             0 ****  ****    0  
