@<TRIPOS>MOLECULE
ICIGOT_geomtry_0_nunpairedes_0_charge_3 Charge: 3 Unpaired_Electrons: 1 XTB_Unpaired_Electrons: 0 XTB_Charge: 3
   281   288     1     0     0
SMALL
NoCharges
****
Generated from Architector

@<TRIPOS>ATOM
     1 Yb1      -0.1385    0.0021   -0.0115   Yb        1 RES1   0.0000
     2 C1       -5.2823   -4.3346   -7.5440   C.3       1 RES1   0.0000
     3 C2       -4.5593   -3.0504   -7.1579   C.3       1 RES1   0.0000
     4 C3       -3.1495   -2.9600   -7.7426   C.3       1 RES1   0.0000
     5 C4       -2.2026   -4.0856   -7.3191   C.3       1 RES1   0.0000
     6 C5       -2.0465   -4.3028   -5.8123   C.3       1 RES1   0.0000
     7 C6       -1.2123   -3.2400   -5.0884   C.3       1 RES1   0.0000
     8 C7       -1.9959   -2.0058   -4.6332   C.3       1 RES1   0.0000
     9 C8       -1.1343   -1.1378   -3.7305   C.3       1 RES1   0.0000
    10 P1       -1.8090    0.4397   -3.0960   P.3       1 RES1   0.0000
    11 O1       -0.8280    1.0914   -2.1807   O.2       1 RES1   0.0000
    12 C9       -3.4416    0.1018   -2.2865   C.3       1 RES1   0.0000
    13 C10      -3.2630   -0.9937   -1.2677   C.2       1 RES1   0.0000
    14 O2       -2.1599   -1.1144   -0.6842   O.2       1 RES1   0.0000
    15 N1       -4.2825   -1.8193   -1.0393   N.am      1 RES1   0.0000
    16 C11      -4.1825   -2.7906    0.0382   C.3       1 RES1   0.0000
    17 C12      -5.0168   -2.4399    1.2925   C.3       1 RES1   0.0000
    18 C13      -5.0828   -0.9248    1.4733   C.3       1 RES1   0.0000
    19 C14      -6.4091   -3.0740    1.2839   C.3       1 RES1   0.0000
    20 C15      -5.5437   -1.7621   -1.7675   C.3       1 RES1   0.0000
    21 C16      -5.5455   -2.4613   -3.1446   C.3       1 RES1   0.0000
    22 C17      -5.0467   -3.8946   -3.0005   C.3       1 RES1   0.0000
    23 C18      -6.9578   -2.4435   -3.7299   C.3       1 RES1   0.0000
    24 C19      -2.1604    1.4884   -4.5252   C.ar      1 RES1   0.0000
    25 C20      -1.0137    1.9546   -5.1610   C.ar      1 RES1   0.0000
    26 C21      -1.1088    2.8233   -6.2320   C.ar      1 RES1   0.0000
    27 C22      -2.3637    3.2318   -6.6627   C.ar      1 RES1   0.0000
    28 C23      -3.5112    2.7427   -6.0545   C.ar      1 RES1   0.0000
    29 C24      -3.4137    1.8638   -4.9865   C.ar      1 RES1   0.0000
    30 H1       -6.3127   -4.3123   -7.1979   H         1 RES1   0.0000
    31 H2       -4.7971   -5.2065   -7.1134   H         1 RES1   0.0000
    32 H3       -5.2969   -4.4504   -8.6237   H         1 RES1   0.0000
    33 H4       -4.5138   -2.9676   -6.0704   H         1 RES1   0.0000
    34 H5       -5.1341   -2.1966   -7.5230   H         1 RES1   0.0000
    35 H6       -2.7133   -1.9931   -7.4816   H         1 RES1   0.0000
    36 H7       -3.2297   -2.9903   -8.8299   H         1 RES1   0.0000
    37 H8       -1.2147   -3.8896   -7.7443   H         1 RES1   0.0000
    38 H9       -2.5578   -5.0198   -7.7565   H         1 RES1   0.0000
    39 H10      -1.5559   -5.2693   -5.6724   H         1 RES1   0.0000
    40 H11      -3.0281   -4.3835   -5.3481   H         1 RES1   0.0000
    41 H12      -0.3920   -2.9326   -5.7395   H         1 RES1   0.0000
    42 H13      -0.7659   -3.6984   -4.2016   H         1 RES1   0.0000
    43 H14      -2.8918   -2.3185   -4.0984   H         1 RES1   0.0000
    44 H15      -2.3028   -1.4289   -5.5021   H         1 RES1   0.0000
    45 H16      -0.2358   -0.8235   -4.2694   H         1 RES1   0.0000
    46 H17      -0.8044   -1.6866   -2.8431   H         1 RES1   0.0000
    47 H18      -4.1860   -0.1369   -3.0400   H         1 RES1   0.0000
    48 H19      -3.7212    1.0330   -1.7786   H         1 RES1   0.0000
    49 H20      -3.1332   -2.8150    0.3263   H         1 RES1   0.0000
    50 H21      -4.4707   -3.7712   -0.3428   H         1 RES1   0.0000
    51 H22      -4.4644   -2.8718    2.1358   H         1 RES1   0.0000
    52 H23      -5.6786   -0.4750    0.6828   H         1 RES1   0.0000
    53 H24      -4.0805   -0.4968    1.4434   H         1 RES1   0.0000
    54 H25      -5.5532   -0.6773    2.4203   H         1 RES1   0.0000
    55 H26      -7.1141   -2.4913    0.6993   H         1 RES1   0.0000
    56 H27      -6.8072   -3.1312    2.2930   H         1 RES1   0.0000
    57 H28      -6.3750   -4.0829    0.8778   H         1 RES1   0.0000
    58 H29      -5.8647   -0.7251   -1.8770   H         1 RES1   0.0000
    59 H30      -6.2849   -2.2710   -1.1557   H         1 RES1   0.0000
    60 H31      -4.8973   -1.9260   -3.8485   H         1 RES1   0.0000
    61 H32      -5.6899   -4.4441   -2.3166   H         1 RES1   0.0000
    62 H33      -4.0245   -3.9138   -2.6294   H         1 RES1   0.0000
    63 H34      -5.0609   -4.3995   -3.9608   H         1 RES1   0.0000
    64 H35      -7.6418   -3.0325   -3.1251   H         1 RES1   0.0000
    65 H36      -6.9496   -2.8580   -4.7338   H         1 RES1   0.0000
    66 H37      -7.3478   -1.4325   -3.8052   H         1 RES1   0.0000
    67 H38      -0.0534    1.6443   -4.7763   H         1 RES1   0.0000
    68 H39      -0.2177    3.1954   -6.7172   H         1 RES1   0.0000
    69 H40      -2.4512    3.9453   -7.4663   H         1 RES1   0.0000
    70 H41      -4.4791    3.0640   -6.4131   H         1 RES1   0.0000
    71 H42      -4.3097    1.4951   -4.5091   H         1 RES1   0.0000
    72 C25      -3.2474    7.9812    5.8941   C.3       1 RES1   0.0000
    73 C26      -3.2431    7.4826    4.4566   C.3       1 RES1   0.0000
    74 C27      -4.6336    7.1402    3.9233   C.3       1 RES1   0.0000
    75 C28      -5.3956    6.0943    4.7381   C.3       1 RES1   0.0000
    76 C29      -4.6661    4.7721    4.9799   C.3       1 RES1   0.0000
    77 C30      -4.4920    3.8810    3.7457   C.3       1 RES1   0.0000
    78 C31      -3.3270    4.2751    2.8238   C.3       1 RES1   0.0000
    79 C32      -2.7719    3.0368    2.1378   C.3       1 RES1   0.0000
    80 P2       -1.9834    3.0910    0.4939   P.3       1 RES1   0.0000
    81 O3       -1.8094    1.6508    0.1199   O.2       1 RES1   0.0000
    82 C33      -0.3784    4.0093    0.4614   C.3       1 RES1   0.0000
    83 C34       0.7198    3.2584    1.1636   C.2       1 RES1   0.0000
    84 O4        0.8987    2.0519    0.8826   O.2       1 RES1   0.0000
    85 N2        1.4773    3.9132    2.0406   N.am      1 RES1   0.0000
    86 C35       2.5684    3.2211    2.7074   C.3       1 RES1   0.0000
    87 C36       3.9586    3.4102    2.0598   C.3       1 RES1   0.0000
    88 C37       3.9284    3.0663    0.5705   C.3       1 RES1   0.0000
    89 C38       4.5633    4.7956    2.2814   C.3       1 RES1   0.0000
    90 C39       1.3567    5.3371    2.3251   C.3       1 RES1   0.0000
    91 C40       0.2357    5.7362    3.3050   C.3       1 RES1   0.0000
    92 C41       0.2731    4.8904    4.5744   C.3       1 RES1   0.0000
    93 C42       0.4025    7.2151    3.6499   C.3       1 RES1   0.0000
    94 C43      -2.9939    4.0615   -0.6600   C.ar      1 RES1   0.0000
    95 C44      -4.2773    3.5971   -0.9279   C.ar      1 RES1   0.0000
    96 C45      -5.1262    4.3144   -1.7563   C.ar      1 RES1   0.0000
    97 C46      -4.6943    5.5061   -2.3196   C.ar      1 RES1   0.0000
    98 C47      -3.4203    5.9785   -2.0521   C.ar      1 RES1   0.0000
    99 C48      -2.5704    5.2634   -1.2211   C.ar      1 RES1   0.0000
   100 H43      -2.2518    8.3040    6.1864   H         1 RES1   0.0000
   101 H44      -3.5630    7.2019    6.5810   H         1 RES1   0.0000
   102 H45      -3.9179    8.8269    6.0025   H         1 RES1   0.0000
   103 H46      -2.5974    6.6061    4.3854   H         1 RES1   0.0000
   104 H47      -2.8168    8.2543    3.8131   H         1 RES1   0.0000
   105 H48      -4.5444    6.8052    2.8879   H         1 RES1   0.0000
   106 H49      -5.2351    8.0496    3.9147   H         1 RES1   0.0000
   107 H50      -6.3421    5.8800    4.2361   H         1 RES1   0.0000
   108 H51      -5.6463    6.5245    5.7089   H         1 RES1   0.0000
   109 H52      -5.2522    4.2102    5.7109   H         1 RES1   0.0000
   110 H53      -3.6944    4.9589    5.4384   H         1 RES1   0.0000
   111 H54      -5.4230    3.8767    3.1741   H         1 RES1   0.0000
   112 H55      -4.3131    2.8632    4.1014   H         1 RES1   0.0000
   113 H56      -2.5476    4.7510    3.4159   H         1 RES1   0.0000
   114 H57      -3.6633    4.9890    2.0736   H         1 RES1   0.0000
   115 H58      -3.5908    2.3321    1.9507   H         1 RES1   0.0000
   116 H59      -2.0465    2.5060    2.7609   H         1 RES1   0.0000
   117 H60      -0.5285    5.0192    0.8285   H         1 RES1   0.0000
   118 H61      -0.1284    4.0367   -0.6073   H         1 RES1   0.0000
   119 H62       2.2911    2.1671    2.6832   H         1 RES1   0.0000
   120 H63       2.5991    3.5463    3.7486   H         1 RES1   0.0000
   121 H64       4.6213    2.7037    2.5713   H         1 RES1   0.0000
   122 H65       3.4790    3.8756   -0.0004   H         1 RES1   0.0000
   123 H66       3.3547    2.1600    0.3806   H         1 RES1   0.0000
   124 H67       4.9402    2.9201    0.2028   H         1 RES1   0.0000
   125 H68       4.1269    5.5413    1.6233   H         1 RES1   0.0000
   126 H69       5.6274    4.7580    2.0661   H         1 RES1   0.0000
   127 H70       4.4476    5.1148    3.3151   H         1 RES1   0.0000
   128 H71       1.2428    5.8830    1.3860   H         1 RES1   0.0000
   129 H72       2.2970    5.6531    2.7685   H         1 RES1   0.0000
   130 H73      -0.7408    5.6039    2.8273   H         1 RES1   0.0000
   131 H74       1.2128    5.0379    5.1015   H         1 RES1   0.0000
   132 H75       0.1501    3.8324    4.3493   H         1 RES1   0.0000
   133 H76      -0.5343    5.1903    5.2366   H         1 RES1   0.0000
   134 H77       1.3533    7.3887    4.1451   H         1 RES1   0.0000
   135 H78      -0.3892    7.5398    4.3160   H         1 RES1   0.0000
   136 H79       0.3581    7.8368    2.7608   H         1 RES1   0.0000
   137 H80      -4.6031    2.6743   -0.4657   H         1 RES1   0.0000
   138 H81      -6.1234    3.9526   -1.9526   H         1 RES1   0.0000
   139 H82      -5.3514    6.0755   -2.9580   H         1 RES1   0.0000
   140 H83      -3.0884    6.9100   -2.4865   H         1 RES1   0.0000
   141 H84      -1.5857    5.6553   -1.0229   H         1 RES1   0.0000
   142 C49      -1.5859   -0.6030    8.7141   C.3       1 RES1   0.0000
   143 C50      -2.1889    0.7677    8.9991   C.3       1 RES1   0.0000
   144 C51      -1.3707    1.9305    8.4252   C.3       1 RES1   0.0000
   145 C52      -1.9190    2.5082    7.1201   C.3       1 RES1   0.0000
   146 C53      -1.8822    1.5358    5.9338   C.3       1 RES1   0.0000
   147 C54      -3.1901    0.7720    5.7380   C.3       1 RES1   0.0000
   148 C55      -3.2585    0.0569    4.3902   C.3       1 RES1   0.0000
   149 C56      -2.4674   -1.2511    4.3879   C.3       1 RES1   0.0000
   150 P3       -1.1167   -1.3407    3.1310   P.3       1 RES1   0.0000
   151 O5       -1.3166   -0.4566    1.9344   O.2       1 RES1   0.0000
   152 C57       0.3763   -0.7743    4.0641   C.3       1 RES1   0.0000
   153 C58       1.6248   -0.4652    3.2452   C.2       1 RES1   0.0000
   154 O6        1.5573   -0.3653    2.0103   O.2       1 RES1   0.0000
   155 N3        2.7626   -0.3012    3.9591   N.am      1 RES1   0.0000
   156 C59       4.0190    0.1260    3.3034   C.3       1 RES1   0.0000
   157 C60       4.9780   -0.7829    2.4978   C.3       1 RES1   0.0000
   158 C61       5.4039   -2.1108    3.0983   C.3       1 RES1   0.0000
   159 C62       4.4980   -0.9400    1.0612   C.3       1 RES1   0.0000
   160 C63       2.6799    0.1303    5.3737   C.3       1 RES1   0.0000
   161 C64       3.0526   -0.8413    6.5200   C.3       1 RES1   0.0000
   162 C65       1.9772   -1.8759    6.8455   C.3       1 RES1   0.0000
   163 C66       4.3897   -1.5392    6.3252   C.3       1 RES1   0.0000
   164 C67      -1.1433   -3.1053    2.7117   C.ar      1 RES1   0.0000
   165 C68      -1.3683   -4.0547    3.7057   C.ar      1 RES1   0.0000
   166 C69      -1.6218   -5.3730    3.3614   C.ar      1 RES1   0.0000
   167 C70      -1.6412   -5.7425    2.0217   C.ar      1 RES1   0.0000
   168 C71      -1.3855   -4.8063    1.0326   C.ar      1 RES1   0.0000
   169 C72      -1.1499   -3.4812    1.3742   C.ar      1 RES1   0.0000
   170 H85      -2.2322   -1.3892    9.0941   H         1 RES1   0.0000
   171 H86      -0.6190   -0.7061    9.1985   H         1 RES1   0.0000
   172 H87      -1.4486   -0.7662    7.6471   H         1 RES1   0.0000
   173 H88      -2.2676    0.8846   10.0784   H         1 RES1   0.0000
   174 H89      -3.2026    0.8080    8.6019   H         1 RES1   0.0000
   175 H90      -0.3360    1.6129    8.2778   H         1 RES1   0.0000
   176 H91      -1.3490    2.7490    9.1427   H         1 RES1   0.0000
   177 H92      -1.3312    3.3942    6.8676   H         1 RES1   0.0000
   178 H93      -2.9485    2.8392    7.2695   H         1 RES1   0.0000
   179 H94      -1.0700    0.8216    6.0931   H         1 RES1   0.0000
   180 H95      -1.6643    2.0865    5.0091   H         1 RES1   0.0000
   181 H96      -4.0262    1.4667    5.8220   H         1 RES1   0.0000
   182 H97      -3.3083    0.0302    6.5266   H         1 RES1   0.0000
   183 H98      -2.8779    0.6975    3.5918   H         1 RES1   0.0000
   184 H99      -4.3021   -0.1585    4.1649   H         1 RES1   0.0000
   185 H100     -3.1355   -2.0896    4.1844   H         1 RES1   0.0000
   186 H101     -2.0420   -1.4205    5.3798   H         1 RES1   0.0000
   187 H102      0.5906   -1.4498    4.8894   H         1 RES1   0.0000
   188 H103     -0.0062    0.1648    4.4823   H         1 RES1   0.0000
   189 H104      4.6147    0.5626    4.1021   H         1 RES1   0.0000
   190 H105      3.7591    0.9054    2.5868   H         1 RES1   0.0000
   191 H106      5.8905   -0.1748    2.4399   H         1 RES1   0.0000
   192 H107      4.5813   -2.8168    3.1138   H         1 RES1   0.0000
   193 H108      5.8025   -1.9870    4.0983   H         1 RES1   0.0000
   194 H109      6.2052   -2.5232    2.4878   H         1 RES1   0.0000
   195 H110      3.5166   -1.4012    1.0088   H         1 RES1   0.0000
   196 H111      5.2100   -1.5253    0.4851   H         1 RES1   0.0000
   197 H112      4.4483    0.0557    0.6301   H         1 RES1   0.0000
   198 H113      1.6743    0.4981    5.5807   H         1 RES1   0.0000
   199 H114      3.3355    1.0023    5.4708   H         1 RES1   0.0000
   200 H115      3.1383   -0.1904    7.3985   H         1 RES1   0.0000
   201 H116      1.8318   -2.5800    6.0310   H         1 RES1   0.0000
   202 H117      1.0359   -1.3970    7.1002   H         1 RES1   0.0000
   203 H118      2.2808   -2.4507    7.7156   H         1 RES1   0.0000
   204 H119      4.3202   -2.2711    5.5285   H         1 RES1   0.0000
   205 H120      4.6617   -2.0537    7.2424   H         1 RES1   0.0000
   206 H121      5.1751   -0.8257    6.0952   H         1 RES1   0.0000
   207 H122     -1.3439   -3.7706    4.7468   H         1 RES1   0.0000
   208 H123     -1.8169   -6.1012    4.1357   H         1 RES1   0.0000
   209 H124     -1.8594   -6.7628    1.7489   H         1 RES1   0.0000
   210 H125     -1.3858   -5.1032   -0.0076   H         1 RES1   0.0000
   211 H126     -0.9472   -2.7237    0.6247   H         1 RES1   0.0000
   212 C73       8.3433   -3.0969   -4.7216   C.3       1 RES1   0.0000
   213 C74       6.8916   -2.6477   -4.7843   C.3       1 RES1   0.0000
   214 C75       6.6850   -1.3410   -5.5527   C.3       1 RES1   0.0000
   215 C76       7.4480   -0.1283   -5.0093   C.3       1 RES1   0.0000
   216 C77       7.3195    0.1555   -3.5101   C.3       1 RES1   0.0000
   217 C78       5.9107    0.5183   -3.0328   C.3       1 RES1   0.0000
   218 C79       5.0098   -0.6874   -2.7526   C.3       1 RES1   0.0000
   219 C80       3.6782   -0.2342   -2.1762   C.3       1 RES1   0.0000
   220 P4        2.2296   -1.2798   -2.4876   P.3       1 RES1   0.0000
   221 O7        1.0672   -0.5427   -1.8907   O.2       1 RES1   0.0000
   222 C81       2.2427   -2.9940   -1.8191   C.3       1 RES1   0.0000
   223 C82       2.0089   -3.0356   -0.3326   C.2       1 RES1   0.0000
   224 O8        1.1779   -2.2472    0.1640   O.2       1 RES1   0.0000
   225 N4        2.6464   -3.9586    0.4010   N.am      1 RES1   0.0000
   226 C83       2.0946   -4.0926    1.7565   C.3       1 RES1   0.0000
   227 C84       2.7790   -4.8880    2.8716   C.3       1 RES1   0.0000
   228 C85       1.8906   -4.6610    4.0987   C.3       1 RES1   0.0000
   229 C86       2.9108   -6.3958    2.6525   C.3       1 RES1   0.0000
   230 C87       3.3822   -5.0594   -0.2160   C.3       1 RES1   0.0000
   231 C88       4.7547   -4.7705   -0.8708   C.3       1 RES1   0.0000
   232 C89       5.8591   -4.6601    0.1766   C.3       1 RES1   0.0000
   233 C90       5.0411   -5.9165   -1.8462   C.3       1 RES1   0.0000
   234 C91       2.1802   -1.5925   -4.2818   C.ar      1 RES1   0.0000
   235 C92       2.0507   -0.4762   -5.1026   C.ar      1 RES1   0.0000
   236 C93       2.0227   -0.6095   -6.4800   C.ar      1 RES1   0.0000
   237 C94       2.1529   -1.8670   -7.0517   C.ar      1 RES1   0.0000
   238 C95       2.2945   -2.9826   -6.2444   C.ar      1 RES1   0.0000
   239 C96       2.3137   -2.8525   -4.8616   C.ar      1 RES1   0.0000
   240 H127      8.4115   -4.0643   -4.2319   H         1 RES1   0.0000
   241 H128      8.9467   -2.3899   -4.1616   H         1 RES1   0.0000
   242 H129      8.7633   -3.1941   -5.7162   H         1 RES1   0.0000
   243 H130      6.5174   -2.5476   -3.7663   H         1 RES1   0.0000
   244 H131      6.2970   -3.4235   -5.2729   H         1 RES1   0.0000
   245 H132      5.6160   -1.1093   -5.5961   H         1 RES1   0.0000
   246 H133      7.0093   -1.4982   -6.5825   H         1 RES1   0.0000
   247 H134      7.1159    0.7579   -5.5573   H         1 RES1   0.0000
   248 H135      8.5082   -0.2556   -5.2328   H         1 RES1   0.0000
   249 H136      7.9673    1.0062   -3.2922   H         1 RES1   0.0000
   250 H137      7.6991   -0.6877   -2.9333   H         1 RES1   0.0000
   251 H138      5.4343    1.1472   -3.7883   H         1 RES1   0.0000
   252 H139      5.9862    1.1016   -2.1098   H         1 RES1   0.0000
   253 H140      5.5042   -1.3614   -2.0488   H         1 RES1   0.0000
   254 H141      4.8215   -1.2308   -3.6778   H         1 RES1   0.0000
   255 H142      3.3658    0.7104   -2.6389   H         1 RES1   0.0000
   256 H143      3.7053   -0.0637   -1.1018   H         1 RES1   0.0000
   257 H144      3.1211   -3.5328   -2.1507   H         1 RES1   0.0000
   258 H145      1.3531   -3.4379   -2.2901   H         1 RES1   0.0000
   259 H146      1.0837   -4.5026    1.6459   H         1 RES1   0.0000
   260 H147      1.9951   -3.0603    2.1079   H         1 RES1   0.0000
   261 H148      3.7716   -4.4873    3.0776   H         1 RES1   0.0000
   262 H149      0.9950   -5.2696    4.0153   H         1 RES1   0.0000
   263 H150      1.5786   -3.6216    4.1685   H         1 RES1   0.0000
   264 H151      2.4072   -4.9363    5.0123   H         1 RES1   0.0000
   265 H152      2.1227   -6.7748    2.0089   H         1 RES1   0.0000
   266 H153      2.8306   -6.9070    3.6067   H         1 RES1   0.0000
   267 H154      3.8781   -6.6728    2.2440   H         1 RES1   0.0000
   268 H155      2.7284   -5.5475   -0.9478   H         1 RES1   0.0000
   269 H156      3.5822   -5.7892    0.5564   H         1 RES1   0.0000
   270 H157      4.7495   -3.8270   -1.4253   H         1 RES1   0.0000
   271 H158      6.0044   -5.6014    0.7005   H         1 RES1   0.0000
   272 H159      5.6082   -3.8906    0.9001   H         1 RES1   0.0000
   273 H160      6.7993   -4.3937   -0.3012   H         1 RES1   0.0000
   274 H161      5.1349   -6.8555   -1.3042   H         1 RES1   0.0000
   275 H162      5.9652   -5.7445   -2.3920   H         1 RES1   0.0000
   276 H163      4.2373   -6.0191   -2.5747   H         1 RES1   0.0000
   277 H164      1.9723    0.4998   -4.6436   H         1 RES1   0.0000
   278 H165      1.8973    0.2643   -7.0988   H         1 RES1   0.0000
   279 H166      2.1571   -1.9781   -8.1245   H         1 RES1   0.0000
   280 H167      2.3807   -3.9630   -6.6892   H         1 RES1   0.0000
   281 H168      2.4401   -3.7397   -4.2619   H         1 RES1   0.0000
@<TRIPOS>BOND
     1     1    11    1
     2     1    14    1
     3     1    81    1
     4     1    84    1
     5     1   151    1
     6     1   154    1
     7     1   221    1
     8     1   224    1
     9     2     3    1
    10     2    30    1
    11     2    31    1
    12     2    32    1
    13     3     4    1
    14     3    33    1
    15     3    34    1
    16     4     5    1
    17     4    35    1
    18     4    36    1
    19     5     6    1
    20     5    37    1
    21     5    38    1
    22     6     7    1
    23     6    39    1
    24     6    40    1
    25     7     8    1
    26     7    41    1
    27     7    42    1
    28     8     9    1
    29     8    43    1
    30     8    44    1
    31     9    10    1
    32     9    45    1
    33     9    46    1
    34    10    11    2
    35    10    12    1
    36    10    24    1
    37    12    13    1
    38    12    47    1
    39    12    48    1
    40    13    14    2
    41    13    15    1
    42    15    16    1
    43    15    20    1
    44    16    17    1
    45    16    49    1
    46    16    50    1
    47    17    18    1
    48    17    19    1
    49    17    51    1
    50    18    52    1
    51    18    53    1
    52    18    54    1
    53    19    55    1
    54    19    56    1
    55    19    57    1
    56    20    21    1
    57    20    58    1
    58    20    59    1
    59    21    22    1
    60    21    23    1
    61    21    60    1
    62    22    61    1
    63    22    62    1
    64    22    63    1
    65    23    64    1
    66    23    65    1
    67    23    66    1
    68    24    25    1
    69    24    29    2
    70    25    26    2
    71    25    67    1
    72    26    27    1
    73    26    68    1
    74    27    28    2
    75    27    69    1
    76    28    29    1
    77    28    70    1
    78    29    71    1
    79    72    73    1
    80    72   100    1
    81    72   101    1
    82    72   102    1
    83    73    74    1
    84    73   103    1
    85    73   104    1
    86    74    75    1
    87    74   105    1
    88    74   106    1
    89    75    76    1
    90    75   107    1
    91    75   108    1
    92    76    77    1
    93    76   109    1
    94    76   110    1
    95    77    78    1
    96    77   111    1
    97    77   112    1
    98    78    79    1
    99    78   113    1
   100    78   114    1
   101    79    80    1
   102    79   115    1
   103    79   116    1
   104    80    81    2
   105    80    82    1
   106    80    94    1
   107    82    83    1
   108    82   117    1
   109    82   118    1
   110    83    84    2
   111    83    85    1
   112    85    86    1
   113    85    90    1
   114    86    87    1
   115    86   119    1
   116    86   120    1
   117    87    88    1
   118    87    89    1
   119    87   121    1
   120    88   122    1
   121    88   123    1
   122    88   124    1
   123    89   125    1
   124    89   126    1
   125    89   127    1
   126    90    91    1
   127    90   128    1
   128    90   129    1
   129    91    92    1
   130    91    93    1
   131    91   130    1
   132    92   131    1
   133    92   132    1
   134    92   133    1
   135    93   134    1
   136    93   135    1
   137    93   136    1
   138    94    95    1
   139    94    99    2
   140    95    96    2
   141    95   137    1
   142    96    97    1
   143    96   138    1
   144    97    98    2
   145    97   139    1
   146    98    99    1
   147    98   140    1
   148    99   141    1
   149   142   143    1
   150   142   170    1
   151   142   171    1
   152   142   172    1
   153   143   144    1
   154   143   173    1
   155   143   174    1
   156   144   145    1
   157   144   175    1
   158   144   176    1
   159   145   146    1
   160   145   177    1
   161   145   178    1
   162   146   147    1
   163   146   179    1
   164   146   180    1
   165   147   148    1
   166   147   181    1
   167   147   182    1
   168   148   149    1
   169   148   183    1
   170   148   184    1
   171   149   150    1
   172   149   185    1
   173   149   186    1
   174   150   151    2
   175   150   152    1
   176   150   164    1
   177   152   153    1
   178   152   187    1
   179   152   188    1
   180   153   154    2
   181   153   155    1
   182   155   156    1
   183   155   160    1
   184   156   157    1
   185   156   189    1
   186   156   190    1
   187   157   158    1
   188   157   159    1
   189   157   191    1
   190   158   192    1
   191   158   193    1
   192   158   194    1
   193   159   195    1
   194   159   196    1
   195   159   197    1
   196   160   161    1
   197   160   198    1
   198   160   199    1
   199   161   162    1
   200   161   163    1
   201   161   200    1
   202   162   201    1
   203   162   202    1
   204   162   203    1
   205   163   204    1
   206   163   205    1
   207   163   206    1
   208   164   165    1
   209   164   169    2
   210   165   166    2
   211   165   207    1
   212   166   167    1
   213   166   208    1
   214   167   168    2
   215   167   209    1
   216   168   169    1
   217   168   210    1
   218   169   211    1
   219   212   213    1
   220   212   240    1
   221   212   241    1
   222   212   242    1
   223   213   214    1
   224   213   243    1
   225   213   244    1
   226   214   215    1
   227   214   245    1
   228   214   246    1
   229   215   216    1
   230   215   247    1
   231   215   248    1
   232   216   217    1
   233   216   249    1
   234   216   250    1
   235   217   218    1
   236   217   251    1
   237   217   252    1
   238   218   219    1
   239   218   253    1
   240   218   254    1
   241   219   220    1
   242   219   255    1
   243   219   256    1
   244   220   221    2
   245   220   222    1
   246   220   234    1
   247   222   223    1
   248   222   257    1
   249   222   258    1
   250   223   224    2
   251   223   225    1
   252   225   226    1
   253   225   230    1
   254   226   227    1
   255   226   259    1
   256   226   260    1
   257   227   228    1
   258   227   229    1
   259   227   261    1
   260   228   262    1
   261   228   263    1
   262   228   264    1
   263   229   265    1
   264   229   266    1
   265   229   267    1
   266   230   231    1
   267   230   268    1
   268   230   269    1
   269   231   232    1
   270   231   233    1
   271   231   270    1
   272   232   271    1
   273   232   272    1
   274   232   273    1
   275   233   274    1
   276   233   275    1
   277   233   276    1
   278   234   235    1
   279   234   239    2
   280   235   236    2
   281   235   277    1
   282   236   237    1
   283   236   278    1
   284   237   238    2
   285   237   279    1
   286   238   239    1
   287   238   280    1
   288   239   281    1
@<TRIPOS>SUBSTRUCTURE
     1 RES1      281 GROUP             0 ****  ****    0  
