@<TRIPOS>MOLECULE
am_c3_9H2O_c0_0_nunpairedes_0_charge_1 Charge: 1 Unpaired_Electrons: 1 XTB_Unpaired_Electrons: 0 XTB_Charge: 1
   122   135     1     0     0
SMALL
NoCharges
****
Generated from Architector

@<TRIPOS>ATOM
     1 Ce1      -0.3292   -0.0555   -0.1791   Ce        1 RES1   0.0000
     2 C1       -5.1429    0.7716   -4.0699   C.3       1 RES1   0.0000
     3 C2       -3.7555    0.1356   -4.0092   C.3       1 RES1   0.0000
     4 C3       -2.8625    0.5201   -5.1955   C.3       1 RES1   0.0000
     5 C4       -2.5197    2.0089   -5.3733   C.3       1 RES1   0.0000
     6 C5       -1.6070    2.6389   -4.3112   C.3       1 RES1   0.0000
     7 C6       -2.3483    3.2728   -3.1262   C.3       1 RES1   0.0000
     8 N1       -1.3813    3.7721   -2.1519   N.ar      1 RES1   0.0000
     9 C7       -1.1368    5.1022   -1.9165   C.ar      1 RES1   0.0000
    10 C8       -1.8637    6.0764   -2.7666   C.ar      1 RES1   0.0000
    11 C9       -1.2350    6.5849   -3.8964   C.ar      1 RES1   0.0000
    12 C10      -1.8959    7.4738   -4.7235   C.ar      1 RES1   0.0000
    13 C11      -3.1890    7.8701   -4.4323   C.ar      1 RES1   0.0000
    14 C12      -3.8225    7.3632   -3.3114   C.ar      1 RES1   0.0000
    15 C13      -3.1680    6.4667   -2.4843   C.ar      1 RES1   0.0000
    16 C14      -0.2289    5.5315   -0.9831   C.ar      1 RES1   0.0000
    17 C15       0.0028    6.9840   -0.8077   C.ar      1 RES1   0.0000
    18 C16       1.1949    7.5527   -1.2410   C.ar      1 RES1   0.0000
    19 C17       1.4185    8.9092   -1.0874   C.ar      1 RES1   0.0000
    20 C18       0.4604    9.7111   -0.4906   C.ar      1 RES1   0.0000
    21 C19      -0.7334    9.1525   -0.0676   C.ar      1 RES1   0.0000
    22 C20      -0.9644    7.7979   -0.2317   C.ar      1 RES1   0.0000
    23 C21       0.5000    4.5748   -0.2087   C.ar      1 RES1   0.0000
    24 C22       1.4490    4.8363    0.7932   C.ar      1 RES1   0.0000
    25 C23       2.0437    3.7853    1.4918   C.ar      1 RES1   0.0000
    26 C24       3.0347    3.9178    2.5288   C.ar      1 RES1   0.0000
    27 C25       3.5791    2.8420    3.1557   C.ar      1 RES1   0.0000
    28 C26       3.1948    1.4943    2.8417   C.ar      1 RES1   0.0000
    29 C27       3.7203    0.3522    3.4482   C.ar      1 RES1   0.0000
    30 C28       3.2997   -0.9182    3.0318   C.ar      1 RES1   0.0000
    31 C29       3.7533   -2.1873    3.5243   C.ar      1 RES1   0.0000
    32 C30       4.7787   -2.2796    4.5943   C.ar      1 RES1   0.0000
    33 C31       6.0712   -2.6932    4.2936   C.ar      1 RES1   0.0000
    34 C32       7.0316   -2.7688    5.2852   C.ar      1 RES1   0.0000
    35 C33       6.7134   -2.4469    6.5928   C.ar      1 RES1   0.0000
    36 C34       5.4233   -2.0551    6.9033   C.ar      1 RES1   0.0000
    37 C35       4.4627   -1.9663    5.9105   C.ar      1 RES1   0.0000
    38 C36       3.2415   -3.3427    2.9966   C.ar      1 RES1   0.0000
    39 C37       3.6578   -4.6618    3.5429   C.ar      1 RES1   0.0000
    40 C38       4.6082   -5.4412    2.8915   C.ar      1 RES1   0.0000
    41 C39       4.9859   -6.6674    3.4073   C.ar      1 RES1   0.0000
    42 C40       4.4185   -7.1418    4.5768   C.ar      1 RES1   0.0000
    43 C41       3.4762   -6.3707    5.2333   C.ar      1 RES1   0.0000
    44 C42       3.0974   -5.1403    4.7232   C.ar      1 RES1   0.0000
    45 N2        2.2922   -3.3385    1.9983   N.ar      1 RES1   0.0000
    46 C43       1.6735   -4.5704    1.5237   C.3       1 RES1   0.0000
    47 C44       1.7568   -4.7613    0.0061   C.3       1 RES1   0.0000
    48 C45       3.1841   -4.6826   -0.5348   C.3       1 RES1   0.0000
    49 C46       3.2139   -4.8183   -2.0616   C.3       1 RES1   0.0000
    50 C47       4.6148   -4.5863   -2.6407   C.3       1 RES1   0.0000
    51 C48       5.6345   -5.6348   -2.2011   C.3       1 RES1   0.0000
    52 C49       1.7931   -2.1863    1.4892   C.ar      1 RES1   0.0000
    53 O1        0.8809   -2.1770    0.6420   O.2       1 RES1   0.0000
    54 C50       2.3199   -0.9419    2.0154   C.ar      1 RES1   0.0000
    55 N3        1.7682    0.1345    1.4604   N.ar      1 RES1   0.0000
    56 C51       2.2101    1.3266    1.8322   C.ar      1 RES1   0.0000
    57 C52       1.6638    2.4658    1.1378   C.ar      1 RES1   0.0000
    58 N4        0.8249    2.2015    0.1481   N.ar      1 RES1   0.0000
    59 C53       0.2474    3.2126   -0.4865   C.ar      1 RES1   0.0000
    60 C54      -0.7156    2.7985   -1.4871   C.ar      1 RES1   0.0000
    61 O2       -0.9483    1.5930   -1.7006   O.2       1 RES1   0.0000
    62 H1       -5.7448    0.4277   -3.2309   H         1 RES1   0.0000
    63 H2       -5.6449    0.4841   -4.9940   H         1 RES1   0.0000
    64 H3       -5.0873    1.8586   -4.0321   H         1 RES1   0.0000
    65 H4       -3.8801   -0.9518   -4.0355   H         1 RES1   0.0000
    66 H5       -3.2580    0.3717   -3.0609   H         1 RES1   0.0000
    67 H6       -3.3742    0.2081   -6.1137   H         1 RES1   0.0000
    68 H7       -1.9343   -0.0566   -5.1272   H         1 RES1   0.0000
    69 H8       -3.4401    2.5882   -5.4647   H         1 RES1   0.0000
    70 H9       -1.9914    2.0810   -6.3283   H         1 RES1   0.0000
    71 H10      -0.9989    3.4146   -4.7859   H         1 RES1   0.0000
    72 H11      -0.9322    1.8672   -3.9346   H         1 RES1   0.0000
    73 H12      -2.9316    2.5067   -2.6096   H         1 RES1   0.0000
    74 H13      -3.0076    4.0809   -3.4441   H         1 RES1   0.0000
    75 H14      -0.2296    6.2692   -4.1253   H         1 RES1   0.0000
    76 H15      -1.3981    7.8488   -5.6019   H         1 RES1   0.0000
    77 H16      -3.6980    8.5668   -5.0789   H         1 RES1   0.0000
    78 H17      -4.8344    7.6633   -3.0923   H         1 RES1   0.0000
    79 H18      -3.6717    6.0609   -1.6207   H         1 RES1   0.0000
    80 H19       1.9386    6.9328   -1.7195   H         1 RES1   0.0000
    81 H20       2.3452    9.3425   -1.4305   H         1 RES1   0.0000
    82 H21       0.6445   10.7651   -0.3518   H         1 RES1   0.0000
    83 H22      -1.4827    9.7762    0.3951   H         1 RES1   0.0000
    84 H23      -1.8962    7.3623    0.0920   H         1 RES1   0.0000
    85 H24       1.7249    5.8492    1.0343   H         1 RES1   0.0000
    86 H25       3.3514    4.9176    2.7963   H         1 RES1   0.0000
    87 H26       4.3322    2.9758    3.9208   H         1 RES1   0.0000
    88 H27       4.4589    0.4496    4.2256   H         1 RES1   0.0000
    89 H28       6.3232   -2.9500    3.2771   H         1 RES1   0.0000
    90 H29       8.0323   -3.0798    5.0350   H         1 RES1   0.0000
    91 H30       7.4667   -2.5002    7.3628   H         1 RES1   0.0000
    92 H31       5.1702   -1.8180    7.9241   H         1 RES1   0.0000
    93 H32       3.4544   -1.6697    6.1570   H         1 RES1   0.0000
    94 H33       5.0541   -5.0850    1.9776   H         1 RES1   0.0000
    95 H34       5.7190   -7.2621    2.8886   H         1 RES1   0.0000
    96 H35       4.7078   -8.1032    4.9729   H         1 RES1   0.0000
    97 H36       3.0283   -6.7387    6.1421   H         1 RES1   0.0000
    98 H37       2.3573   -4.5518    5.2418   H         1 RES1   0.0000
    99 H38       0.6196   -4.5271    1.8140   H         1 RES1   0.0000
   100 H39       2.1492   -5.4043    2.0367   H         1 RES1   0.0000
   101 H40       1.1392   -4.0144   -0.4975   H         1 RES1   0.0000
   102 H41       1.3380   -5.7470   -0.2074   H         1 RES1   0.0000
   103 H42       3.7821   -5.4822   -0.0881   H         1 RES1   0.0000
   104 H43       3.6356   -3.7201   -0.2659   H         1 RES1   0.0000
   105 H44       2.5315   -4.0841   -2.5045   H         1 RES1   0.0000
   106 H45       2.8629   -5.8167   -2.3422   H         1 RES1   0.0000
   107 H46       4.9637   -3.5904   -2.3472   H         1 RES1   0.0000
   108 H47       4.5410   -4.6012   -3.7312   H         1 RES1   0.0000
   109 H48       5.7890   -5.6053   -1.1234   H         1 RES1   0.0000
   110 H49       6.5899   -5.4442   -2.6861   H         1 RES1   0.0000
   111 H50       5.2967   -6.6323   -2.4792   H         1 RES1   0.0000
   112 N5       -2.4506    0.8782    0.8508   N.3       1 RES1   0.0000
   113 O3       -3.4359    1.3690    1.3141   O.2       1 RES1   0.0000
   114 O4       -2.5040    0.0193   -0.0370   O.co2     1 RES1   0.0000
   115 O5       -1.3206    1.2425    1.2389   O.co2     1 RES1   0.0000
   116 N6        0.4865   -1.0867   -2.2863   N.3       1 RES1   0.0000
   117 O6        0.8637   -1.5143   -3.3354   O.2       1 RES1   0.0000
   118 O7        1.1586   -0.2370   -1.6673   O.co2     1 RES1   0.0000
   119 O8       -0.5719   -1.4747   -1.7713   O.co2     1 RES1   0.0000
   120 O9       -1.2457   -1.3181    1.8886   O.3       1 RES1   0.0000
   121 H51      -0.7681   -1.4401    2.7199   H         1 RES1   0.0000
   122 H52      -1.5039   -2.1908    1.5516   H         1 RES1   0.0000
@<TRIPOS>BOND
     1     1    53    1
     2     1    55    1
     3     1    58    1
     4     1    61    1
     5     1   114    1
     6     1   115    1
     7     1   118    1
     8     1   119    1
     9     1   120    1
    10     2     3    1
    11     2    62    1
    12     2    63    1
    13     2    64    1
    14     3     4    1
    15     3    65    1
    16     3    66    1
    17     4     5    1
    18     4    67    1
    19     4    68    1
    20     5     6    1
    21     5    69    1
    22     5    70    1
    23     6     7    1
    24     6    71    1
    25     6    72    1
    26     7     8    1
    27     7    73    1
    28     7    74    1
    29     8     9    1
    30     8    60    1
    31     9    10    1
    32     9    16    2
    33    10    11    1
    34    10    15    2
    35    11    12    2
    36    11    75    1
    37    12    13    1
    38    12    76    1
    39    13    14    2
    40    13    77    1
    41    14    15    1
    42    14    78    1
    43    15    79    1
    44    16    17    1
    45    16    23    1
    46    17    18    1
    47    17    22    2
    48    18    19    2
    49    18    80    1
    50    19    20    1
    51    19    81    1
    52    20    21    2
    53    20    82    1
    54    21    22    1
    55    21    83    1
    56    22    84    1
    57    23    24    1
    58    23    59    2
    59    24    25    2
    60    24    85    1
    61    25    26    1
    62    25    57    1
    63    26    27    2
    64    26    86    1
    65    27    28    1
    66    27    87    1
    67    28    29    1
    68    28    56    2
    69    29    30    2
    70    29    88    1
    71    30    31    1
    72    30    54    1
    73    31    32    1
    74    31    38    2
    75    32    33    1
    76    32    37    2
    77    33    34    2
    78    33    89    1
    79    34    35    1
    80    34    90    1
    81    35    36    2
    82    35    91    1
    83    36    37    1
    84    36    92    1
    85    37    93    1
    86    38    39    1
    87    38    45    1
    88    39    40    1
    89    39    44    2
    90    40    41    2
    91    40    94    1
    92    41    42    1
    93    41    95    1
    94    42    43    2
    95    42    96    1
    96    43    44    1
    97    43    97    1
    98    44    98    1
    99    45    46    1
   100    45    52    1
   101    46    47    1
   102    46    99    1
   103    46   100    1
   104    47    48    1
   105    47   101    1
   106    47   102    1
   107    48    49    1
   108    48   103    1
   109    48   104    1
   110    49    50    1
   111    49   105    1
   112    49   106    1
   113    50    51    1
   114    50   107    1
   115    50   108    1
   116    51   109    1
   117    51   110    1
   118    51   111    1
   119    52    53    2
   120    52    54    1
   121    54    55    2
   122    55    56    1
   123    56    57    1
   124    57    58    2
   125    58    59    1
   126    59    60    1
   127    60    61    2
   128   112   113    2
   129   112   114    1
   130   112   115    1
   131   116   117    2
   132   116   118    1
   133   116   119    1
   134   120   121    1
   135   120   122    1
@<TRIPOS>SUBSTRUCTURE
     1 RES1      122 GROUP             0 ****  ****    0  
