@<TRIPOS>MOLECULE
cn9_YICLED_0_nunpairedes_0_charge_3 Charge: 3 Unpaired_Electrons: 7 XTB_Unpaired_Electrons: 0 XTB_Charge: 3
   284   291     1     0     0
SMALL
NoCharges
****
Generated from Architector

@<TRIPOS>ATOM
     1 Gd1       0.1077   -0.0371    0.0107   Gd        1 RES1   0.0000
     2 C1        3.2345   -4.8155    5.7730   C.3       1 RES1   0.0000
     3 C2        1.9423   -4.5277    5.0205   C.3       1 RES1   0.0000
     4 C3        2.0499   -4.7185    3.5062   C.3       1 RES1   0.0000
     5 C4        1.9953   -6.1868    3.0855   C.3       1 RES1   0.0000
     6 C5        2.2785   -6.3978    1.5931   C.3       1 RES1   0.0000
     7 C6        1.4745   -5.5073    0.6460   C.3       1 RES1   0.0000
     8 C7       -0.0058   -5.8691    0.6231   C.3       1 RES1   0.0000
     9 C8       -0.8459   -4.7069    0.0908   C.3       1 RES1   0.0000
    10 P1       -1.0623   -3.2941    1.2593   P.3       1 RES1   0.0000
    11 O1       -0.0581   -2.1839    1.2029   O.2       1 RES1   0.0000
    12 C9       -2.7670   -2.6498    0.9876   C.3       1 RES1   0.0000
    13 C10      -3.0329   -2.1548   -0.3994   C.2       1 RES1   0.0000
    14 O2       -2.2384   -1.3429   -0.9159   O.2       1 RES1   0.0000
    15 N1       -4.1359   -2.6057   -1.0093   N.am      1 RES1   0.0000
    16 C11      -4.4870   -2.0895   -2.3283   C.3       1 RES1   0.0000
    17 C12      -4.0019   -2.9206   -3.5378   C.3       1 RES1   0.0000
    18 C13      -4.8142   -4.1976   -3.7504   C.3       1 RES1   0.0000
    19 C14      -2.5146   -3.2466   -3.4380   C.3       1 RES1   0.0000
    20 C15      -5.0357   -3.6189   -0.4567   C.3       1 RES1   0.0000
    21 C16      -6.1505   -3.1288    0.4965   C.3       1 RES1   0.0000
    22 C17      -7.0452   -2.0908   -0.1778   C.3       1 RES1   0.0000
    23 C18      -5.6960   -2.5901    1.8505   C.3       1 RES1   0.0000
    24 C19      -1.3698   -3.9649    2.9088   C.ar      1 RES1   0.0000
    25 C20      -0.9614   -3.2385    4.0164   C.ar      1 RES1   0.0000
    26 C21      -1.2687   -3.6894    5.2872   C.ar      1 RES1   0.0000
    27 C22      -1.9972   -4.8579    5.4498   C.ar      1 RES1   0.0000
    28 C23      -2.4453   -5.5589    4.3394   C.ar      1 RES1   0.0000
    29 C24      -2.1402   -5.1112    3.0661   C.ar      1 RES1   0.0000
    30 H1        3.0825   -4.6555    6.8361   H         1 RES1   0.0000
    31 H2        4.0359   -4.1589    5.4421   H         1 RES1   0.0000
    32 H3        3.5497   -5.8434    5.6280   H         1 RES1   0.0000
    33 H4        1.6419   -3.4950    5.2205   H         1 RES1   0.0000
    34 H5        1.1520   -5.1777    5.4006   H         1 RES1   0.0000
    35 H6        2.9807   -4.2755    3.1499   H         1 RES1   0.0000
    36 H7        1.2220   -4.1877    3.0254   H         1 RES1   0.0000
    37 H8        1.0207   -6.5991    3.3580   H         1 RES1   0.0000
    38 H9        2.7420   -6.7506    3.6464   H         1 RES1   0.0000
    39 H10       2.0815   -7.4409    1.3388   H         1 RES1   0.0000
    40 H11       3.3388   -6.2189    1.4167   H         1 RES1   0.0000
    41 H12       1.8702   -5.6169   -0.3666   H         1 RES1   0.0000
    42 H13       1.5673   -4.4569    0.9362   H         1 RES1   0.0000
    43 H14      -0.3329   -6.1517    1.6247   H         1 RES1   0.0000
    44 H15      -0.1568   -6.7355   -0.0244   H         1 RES1   0.0000
    45 H16      -1.8474   -5.0605   -0.1632   H         1 RES1   0.0000
    46 H17      -0.3884   -4.2772   -0.8031   H         1 RES1   0.0000
    47 H18      -2.7948   -1.7825    1.6529   H         1 RES1   0.0000
    48 H19      -3.4574   -3.4128    1.3187   H         1 RES1   0.0000
    49 H20      -4.0811   -1.0840   -2.3898   H         1 RES1   0.0000
    50 H21      -5.5701   -2.0032   -2.3835   H         1 RES1   0.0000
    51 H22      -4.1584   -2.2817   -4.4177   H         1 RES1   0.0000
    52 H23      -4.6118   -4.9399   -2.9831   H         1 RES1   0.0000
    53 H24      -4.5487   -4.6451   -4.7028   H         1 RES1   0.0000
    54 H25      -5.8797   -3.9830   -3.7778   H         1 RES1   0.0000
    55 H26      -2.3019   -3.8305   -2.5440   H         1 RES1   0.0000
    56 H27      -1.9312   -2.3274   -3.4120   H         1 RES1   0.0000
    57 H28      -2.2116   -3.8313   -4.3012   H         1 RES1   0.0000
    58 H29      -4.4546   -4.4248    0.0060   H         1 RES1   0.0000
    59 H30      -5.5489   -4.0537   -1.3135   H         1 RES1   0.0000
    60 H31      -6.7512   -4.0219    0.6885   H         1 RES1   0.0000
    61 H32      -6.4882   -1.1796   -0.3874   H         1 RES1   0.0000
    62 H33      -7.8651   -1.8415    0.4892   H         1 RES1   0.0000
    63 H34      -7.4817   -2.4766   -1.0956   H         1 RES1   0.0000
    64 H35      -5.0804   -1.7046    1.7203   H         1 RES1   0.0000
    65 H36      -5.1570   -3.3370    2.4298   H         1 RES1   0.0000
    66 H37      -6.5781   -2.3136    2.4220   H         1 RES1   0.0000
    67 H38      -0.3953   -2.3306    3.8486   H         1 RES1   0.0000
    68 H39      -0.9348   -3.1400    6.1536   H         1 RES1   0.0000
    69 H40      -2.2175   -5.2258    6.4413   H         1 RES1   0.0000
    70 H41      -3.0327   -6.4533    4.4725   H         1 RES1   0.0000
    71 H42      -2.4934   -5.6506    2.1969   H         1 RES1   0.0000
    72 C25       0.5123    4.0640    5.4544   C.3       1 RES1   0.0000
    73 C26       0.3321    5.1422    4.3935   C.3       1 RES1   0.0000
    74 C27       0.8796    4.8041    3.0010   C.3       1 RES1   0.0000
    75 C28       2.3956    4.6461    2.9122   C.3       1 RES1   0.0000
    76 C29       2.8565    4.1900    1.5172   C.3       1 RES1   0.0000
    77 C30       2.8332    5.3293    0.5005   C.3       1 RES1   0.0000
    78 C31       3.0610    4.9629   -0.9841   C.3       1 RES1   0.0000
    79 C32       3.6071    3.5640   -1.3028   C.3       1 RES1   0.0000
    80 P2        2.4869    2.1954   -1.8589   P.3       1 RES1   0.0000
    81 O3        2.0792    1.2000   -0.8189   O.2       1 RES1   0.0000
    82 C33       0.9321    2.8765   -2.5935   C.3       1 RES1   0.0000
    83 C34       0.1764    1.7217   -3.2009   C.2       1 RES1   0.0000
    84 O4       -0.1298    0.7633   -2.4589   O.2       1 RES1   0.0000
    85 N2       -0.2101    1.7951   -4.4895   N.am      1 RES1   0.0000
    86 C35      -1.2002    0.8273   -4.9629   C.3       1 RES1   0.0000
    87 C36      -2.6622    1.1472   -4.5831   C.3       1 RES1   0.0000
    88 C37      -3.1231    2.5817   -4.8221   C.3       1 RES1   0.0000
    89 C38      -2.9101    0.8366   -3.1178   C.3       1 RES1   0.0000
    90 C39       0.6768    2.3513   -5.5214   C.3       1 RES1   0.0000
    91 C40       0.1361    3.3488   -6.5702   C.3       1 RES1   0.0000
    92 C41      -0.4529    4.6114   -5.9502   C.3       1 RES1   0.0000
    93 C42      -0.8063    2.7438   -7.6085   C.3       1 RES1   0.0000
    94 C43       3.3907    1.4519   -3.2492   C.ar      1 RES1   0.0000
    95 C44       3.8954    2.2614   -4.2627   C.ar      1 RES1   0.0000
    96 C45       4.6207    1.7053   -5.2990   C.ar      1 RES1   0.0000
    97 C46       4.8602    0.3393   -5.3248   C.ar      1 RES1   0.0000
    98 C47       4.3431   -0.4714   -4.3275   C.ar      1 RES1   0.0000
    99 C48       3.6021    0.0830   -3.2948   C.ar      1 RES1   0.0000
   100 H43       0.0073    4.3721    6.3658   H         1 RES1   0.0000
   101 H44       1.5609    3.9144    5.6937   H         1 RES1   0.0000
   102 H45       0.0755    3.1195    5.1322   H         1 RES1   0.0000
   103 H46       0.7958    6.0653    4.7430   H         1 RES1   0.0000
   104 H47      -0.7378    5.3344    4.2970   H         1 RES1   0.0000
   105 H48       0.5834    5.6066    2.3209   H         1 RES1   0.0000
   106 H49       0.4311    3.8790    2.6364   H         1 RES1   0.0000
   107 H50       2.7097    3.8974    3.6407   H         1 RES1   0.0000
   108 H51       2.8827    5.5880    3.1743   H         1 RES1   0.0000
   109 H52       2.2282    3.3558    1.1819   H         1 RES1   0.0000
   110 H53       3.8804    3.8263    1.6053   H         1 RES1   0.0000
   111 H54       3.6026    6.0440    0.7957   H         1 RES1   0.0000
   112 H55       1.8756    5.8393    0.5822   H         1 RES1   0.0000
   113 H56       3.7890    5.6705   -1.3829   H         1 RES1   0.0000
   114 H57       2.1425    5.1325   -1.5448   H         1 RES1   0.0000
   115 H58       4.1375    3.1334   -0.4558   H         1 RES1   0.0000
   116 H59       4.3212    3.6587   -2.1233   H         1 RES1   0.0000
   117 H60       1.0925    3.7163   -3.2631   H         1 RES1   0.0000
   118 H61       0.3693    3.1667   -1.6956   H         1 RES1   0.0000
   119 H62      -0.9474   -0.1589   -4.5539   H         1 RES1   0.0000
   120 H63      -1.1158    0.7658   -6.0422   H         1 RES1   0.0000
   121 H64      -3.2789    0.4804   -5.1948   H         1 RES1   0.0000
   122 H65      -2.5558    3.2589   -4.1884   H         1 RES1   0.0000
   123 H66      -4.1708    2.6789   -4.5463   H         1 RES1   0.0000
   124 H67      -3.0343    2.8884   -5.8568   H         1 RES1   0.0000
   125 H68      -3.9778    0.8537   -2.9165   H         1 RES1   0.0000
   126 H69      -2.4275    1.5844   -2.4949   H         1 RES1   0.0000
   127 H70      -2.4944   -0.1279   -2.8484   H         1 RES1   0.0000
   128 H71       1.0783    1.4808   -6.0583   H         1 RES1   0.0000
   129 H72       1.5152    2.8300   -5.0148   H         1 RES1   0.0000
   130 H73       1.0400    3.6459   -7.1131   H         1 RES1   0.0000
   131 H74      -1.3265    4.3825   -5.3528   H         1 RES1   0.0000
   132 H75      -0.7537    5.2990   -6.7352   H         1 RES1   0.0000
   133 H76       0.2821    5.1218   -5.3330   H         1 RES1   0.0000
   134 H77      -1.7537    2.4377   -7.1820   H         1 RES1   0.0000
   135 H78      -0.3460    1.8921   -8.1034   H         1 RES1   0.0000
   136 H79      -1.0179    3.4884   -8.3700   H         1 RES1   0.0000
   137 H80       3.7256    3.3285   -4.2326   H         1 RES1   0.0000
   138 H81       5.0092    2.3379   -6.0798   H         1 RES1   0.0000
   139 H82       5.4517   -0.0939   -6.1181   H         1 RES1   0.0000
   140 H83       4.5351   -1.5314   -4.3704   H         1 RES1   0.0000
   141 H84       3.1847   -0.5162   -2.4940   H         1 RES1   0.0000
   142 C49      -4.7204   -0.1413    9.1982   C.3       1 RES1   0.0000
   143 C50      -3.2625   -0.5653    9.0867   C.3       1 RES1   0.0000
   144 C51      -2.3107    0.5119    8.5590   C.3       1 RES1   0.0000
   145 C52      -2.4931    0.9086    7.0897   C.3       1 RES1   0.0000
   146 C53      -3.5000    2.0399    6.8963   C.3       1 RES1   0.0000
   147 C54      -3.6259    2.5005    5.4442   C.3       1 RES1   0.0000
   148 C55      -4.2546    1.4635    4.5056   C.3       1 RES1   0.0000
   149 C56      -3.2474    0.5454    3.7940   C.3       1 RES1   0.0000
   150 P3       -2.7153    1.0611    2.1150   P.3       1 RES1   0.0000
   151 O5       -1.7550    0.1000    1.4740   O.2       1 RES1   0.0000
   152 C57      -1.7351    2.6217    2.2944   C.3       1 RES1   0.0000
   153 C58      -1.4948    3.1836    0.9156   C.2       1 RES1   0.0000
   154 O6       -0.7437    2.5501    0.1446   O.2       1 RES1   0.0000
   155 N3       -2.1094    4.3177    0.5472   N.am      1 RES1   0.0000
   156 C59      -3.2829    4.8723    1.2231   C.3       1 RES1   0.0000
   157 C60      -3.2563    6.3866    1.4811   C.3       1 RES1   0.0000
   158 C61      -2.3600    6.7538    2.6572   C.3       1 RES1   0.0000
   159 C62      -4.6845    6.8329    1.7678   C.3       1 RES1   0.0000
   160 C63      -1.9064    4.7862   -0.8241   C.3       1 RES1   0.0000
   161 C64      -0.6127    5.5773   -1.0927   C.3       1 RES1   0.0000
   162 C65      -0.5136    6.9364   -0.4081   C.3       1 RES1   0.0000
   163 C66      -0.5400    5.8152   -2.6007   C.3       1 RES1   0.0000
   164 C67      -4.2145    1.2867    1.1124   C.ar      1 RES1   0.0000
   165 C68      -4.0849    1.8517   -0.1488   C.ar      1 RES1   0.0000
   166 C69      -5.2091    2.1089   -0.9121   C.ar      1 RES1   0.0000
   167 C70      -6.4661    1.7686   -0.4387   C.ar      1 RES1   0.0000
   168 C71      -6.5877    1.1454    0.7919   C.ar      1 RES1   0.0000
   169 C72      -5.4692    0.9036    1.5703   C.ar      1 RES1   0.0000
   170 H85      -5.2855   -0.9023    9.7287   H         1 RES1   0.0000
   171 H86      -5.1749   -0.0127    8.2195   H         1 RES1   0.0000
   172 H87      -4.8027    0.7896    9.7524   H         1 RES1   0.0000
   173 H88      -3.1870   -1.4538    8.4518   H         1 RES1   0.0000
   174 H89      -2.9092   -0.8392   10.0835   H         1 RES1   0.0000
   175 H90      -1.3011    0.1145    8.6593   H         1 RES1   0.0000
   176 H91      -2.3873    1.4050    9.1843   H         1 RES1   0.0000
   177 H92      -2.7966    0.0224    6.5256   H         1 RES1   0.0000
   178 H93      -1.5242    1.2483    6.6985   H         1 RES1   0.0000
   179 H94      -3.1804    2.8969    7.4953   H         1 RES1   0.0000
   180 H95      -4.4783    1.7322    7.2637   H         1 RES1   0.0000
   181 H96      -2.6390    2.7845    5.0742   H         1 RES1   0.0000
   182 H97      -4.2561    3.3911    5.4414   H         1 RES1   0.0000
   183 H98      -4.8591    1.9965    3.7694   H         1 RES1   0.0000
   184 H99      -4.9346    0.8401    5.0893   H         1 RES1   0.0000
   185 H100     -3.6525   -0.4623    3.6616   H         1 RES1   0.0000
   186 H101     -2.3278    0.4368    4.3682   H         1 RES1   0.0000
   187 H102     -0.7823    2.2010    2.6483   H         1 RES1   0.0000
   188 H103     -2.1434    3.3221    3.0137   H         1 RES1   0.0000
   189 H104     -3.4499    4.3678    2.1735   H         1 RES1   0.0000
   190 H105     -4.1396    4.6414    0.5765   H         1 RES1   0.0000
   191 H106     -2.8995    6.8991    0.5876   H         1 RES1   0.0000
   192 H107     -2.7386    6.3114    3.5759   H         1 RES1   0.0000
   193 H108     -2.3496    7.8308    2.7957   H         1 RES1   0.0000
   194 H109     -1.3380    6.4232    2.5018   H         1 RES1   0.0000
   195 H110     -5.0562    6.3428    2.6636   H         1 RES1   0.0000
   196 H111     -5.3414    6.5988    0.9351   H         1 RES1   0.0000
   197 H112     -4.7135    7.9031    1.9322   H         1 RES1   0.0000
   198 H113     -2.7622    5.3926   -1.1194   H         1 RES1   0.0000
   199 H114     -1.8844    3.8979   -1.4704   H         1 RES1   0.0000
   200 H115      0.2193    4.9542   -0.7490   H         1 RES1   0.0000
   201 H116     -1.3224    7.5867   -0.7308   H         1 RES1   0.0000
   202 H117      0.4167    7.4220   -0.6966   H         1 RES1   0.0000
   203 H118     -0.5270    6.8537    0.6722   H         1 RES1   0.0000
   204 H119     -1.3239    6.5041   -2.9044   H         1 RES1   0.0000
   205 H120     -0.6665    4.8936   -3.1576   H         1 RES1   0.0000
   206 H121      0.4056    6.2743   -2.8730   H         1 RES1   0.0000
   207 H122     -3.0921    2.0614   -0.5161   H         1 RES1   0.0000
   208 H123     -5.1054    2.5872   -1.8721   H         1 RES1   0.0000
   209 H124     -7.3437    1.9766   -1.0309   H         1 RES1   0.0000
   210 H125     -7.5607    0.8582    1.1498   H         1 RES1   0.0000
   211 H126     -5.5766    0.4142    2.5244   H         1 RES1   0.0000
   212 C73       1.9706    0.3777   10.6908   C.3       1 RES1   0.0000
   213 C74       0.7192   -0.4504   10.4315   C.3       1 RES1   0.0000
   214 C75       0.8206   -1.5375    9.3510   C.3       1 RES1   0.0000
   215 C76       1.1940   -1.0984    7.9220   C.3       1 RES1   0.0000
   216 C77       2.7055   -0.9565    7.7304   C.3       1 RES1   0.0000
   217 C78       3.1954   -0.8772    6.2762   C.3       1 RES1   0.0000
   218 C79       3.1372    0.5193    5.6311   C.3       1 RES1   0.0000
   219 C80       2.0590    0.7302    4.5560   C.3       1 RES1   0.0000
   220 P4        2.4315    0.4507    2.7780   P.3       1 RES1   0.0000
   221 O7        1.2531    0.8854    1.9478   O.2       1 RES1   0.0000
   222 C81       2.6495   -1.3731    2.5325   C.3       1 RES1   0.0000
   223 C82       3.0705   -1.6383    1.1082   C.2       1 RES1   0.0000
   224 O8        2.2748   -1.3438    0.1956   O.2       1 RES1   0.0000
   225 N4        4.2640   -2.1875    0.8325   N.am      1 RES1   0.0000
   226 C83       5.4166   -2.0821    1.7259   C.3       1 RES1   0.0000
   227 C84       6.3213   -3.3156    1.8496   C.3       1 RES1   0.0000
   228 C85       5.6913   -4.4118    2.6997   C.3       1 RES1   0.0000
   229 C86       7.6217   -2.8471    2.4957   C.3       1 RES1   0.0000
   230 C87       4.5485   -2.3858   -0.5938   C.3       1 RES1   0.0000
   231 C88       3.8418   -3.6183   -1.1919   C.3       1 RES1   0.0000
   232 C89       4.5918   -4.8998   -0.8429   C.3       1 RES1   0.0000
   233 C90       3.7551   -3.5271   -2.7129   C.3       1 RES1   0.0000
   234 C91       4.0089    1.2709    2.3650   C.ar      1 RES1   0.0000
   235 C92       4.5802    1.0119    1.1242   C.ar      1 RES1   0.0000
   236 C93       5.8110    1.5523    0.7913   C.ar      1 RES1   0.0000
   237 C94       6.4863    2.3628    1.6908   C.ar      1 RES1   0.0000
   238 C95       5.9010    2.6561    2.9115   C.ar      1 RES1   0.0000
   239 C96       4.6676    2.1207    3.2481   C.ar      1 RES1   0.0000
   240 H127      1.8143    0.9876   11.5774   H         1 RES1   0.0000
   241 H128      2.1800    1.0499    9.8625   H         1 RES1   0.0000
   242 H129      2.8339   -0.2585   10.8636   H         1 RES1   0.0000
   243 H130     -0.0983    0.2331   10.1971   H         1 RES1   0.0000
   244 H131      0.4525   -0.9612   11.3593   H         1 RES1   0.0000
   245 H132     -0.1570   -2.0309    9.3105   H         1 RES1   0.0000
   246 H133      1.5446   -2.2893    9.6755   H         1 RES1   0.0000
   247 H134      0.6827   -0.1656    7.6673   H         1 RES1   0.0000
   248 H135      0.8385   -1.8742    7.2318   H         1 RES1   0.0000
   249 H136      3.1765   -1.8340    8.1802   H         1 RES1   0.0000
   250 H137      3.0638   -0.0826    8.2737   H         1 RES1   0.0000
   251 H138      2.6532   -1.5969    5.6587   H         1 RES1   0.0000
   252 H139      4.2441   -1.1800    6.2983   H         1 RES1   0.0000
   253 H140      4.1224    0.7218    5.2111   H         1 RES1   0.0000
   254 H141      2.9608    1.2604    6.4145   H         1 RES1   0.0000
   255 H142      1.7219    1.7713    4.5529   H         1 RES1   0.0000
   256 H143      1.1765    0.1141    4.7473   H         1 RES1   0.0000
   257 H144      1.6186   -1.7403    2.6142   H         1 RES1   0.0000
   258 H145      3.2730   -1.8137    3.3037   H         1 RES1   0.0000
   259 H146      5.0840   -1.8081    2.7271   H         1 RES1   0.0000
   260 H147      6.0210   -1.2478    1.3480   H         1 RES1   0.0000
   261 H148      6.5357   -3.7141    0.8556   H         1 RES1   0.0000
   262 H149      6.3597   -5.2653    2.7608   H         1 RES1   0.0000
   263 H150      4.7476   -4.7514    2.2824   H         1 RES1   0.0000
   264 H151      5.5198   -4.0556    3.7128   H         1 RES1   0.0000
   265 H152      7.4229   -2.4581    3.4917   H         1 RES1   0.0000
   266 H153      8.0940   -2.0696    1.9016   H         1 RES1   0.0000
   267 H154      8.3142   -3.6748    2.5869   H         1 RES1   0.0000
   268 H155      5.6241   -2.4831   -0.7245   H         1 RES1   0.0000
   269 H156      4.2237   -1.4820   -1.1211   H         1 RES1   0.0000
   270 H157      2.8263   -3.6356   -0.7863   H         1 RES1   0.0000
   271 H158      5.5899   -4.8792   -1.2756   H         1 RES1   0.0000
   272 H159      4.0845   -5.7681   -1.2528   H         1 RES1   0.0000
   273 H160      4.6732   -5.0326    0.2278   H         1 RES1   0.0000
   274 H161      4.7519   -3.4439   -3.1395   H         1 RES1   0.0000
   275 H162      3.1461   -2.6860   -3.0292   H         1 RES1   0.0000
   276 H163      3.3054   -4.4343   -3.1063   H         1 RES1   0.0000
   277 H164      4.0387    0.4117    0.4115   H         1 RES1   0.0000
   278 H165      6.2433    1.3377   -0.1741   H         1 RES1   0.0000
   279 H166      7.4500    2.7782    1.4362   H         1 RES1   0.0000
   280 H167      6.4061    3.3120    3.6010   H         1 RES1   0.0000
   281 H168      4.2172    2.3983    4.1868   H         1 RES1   0.0000
   282 O9        0.3500   -1.8451   -1.7307   O.3       1 RES1   0.0000
   283 H169      1.1391   -1.5870   -2.2278   H         1 RES1   0.0000
   284 H170     -0.4217   -1.7485   -2.3112   H         1 RES1   0.0000
@<TRIPOS>BOND
     1     1    11    1
     2     1    14    1
     3     1    81    1
     4     1    84    1
     5     1   151    1
     6     1   154    1
     7     1   221    1
     8     1   224    1
     9     1   282    1
    10     2     3    1
    11     2    30    1
    12     2    31    1
    13     2    32    1
    14     3     4    1
    15     3    33    1
    16     3    34    1
    17     4     5    1
    18     4    35    1
    19     4    36    1
    20     5     6    1
    21     5    37    1
    22     5    38    1
    23     6     7    1
    24     6    39    1
    25     6    40    1
    26     7     8    1
    27     7    41    1
    28     7    42    1
    29     8     9    1
    30     8    43    1
    31     8    44    1
    32     9    10    1
    33     9    45    1
    34     9    46    1
    35    10    11    2
    36    10    12    1
    37    10    24    1
    38    12    13    1
    39    12    47    1
    40    12    48    1
    41    13    14    2
    42    13    15    1
    43    15    16    1
    44    15    20    1
    45    16    17    1
    46    16    49    1
    47    16    50    1
    48    17    18    1
    49    17    19    1
    50    17    51    1
    51    18    52    1
    52    18    53    1
    53    18    54    1
    54    19    55    1
    55    19    56    1
    56    19    57    1
    57    20    21    1
    58    20    58    1
    59    20    59    1
    60    21    22    1
    61    21    23    1
    62    21    60    1
    63    22    61    1
    64    22    62    1
    65    22    63    1
    66    23    64    1
    67    23    65    1
    68    23    66    1
    69    24    25    1
    70    24    29    2
    71    25    26    2
    72    25    67    1
    73    26    27    1
    74    26    68    1
    75    27    28    2
    76    27    69    1
    77    28    29    1
    78    28    70    1
    79    29    71    1
    80    72    73    1
    81    72   100    1
    82    72   101    1
    83    72   102    1
    84    73    74    1
    85    73   103    1
    86    73   104    1
    87    74    75    1
    88    74   105    1
    89    74   106    1
    90    75    76    1
    91    75   107    1
    92    75   108    1
    93    76    77    1
    94    76   109    1
    95    76   110    1
    96    77    78    1
    97    77   111    1
    98    77   112    1
    99    78    79    1
   100    78   113    1
   101    78   114    1
   102    79    80    1
   103    79   115    1
   104    79   116    1
   105    80    81    2
   106    80    82    1
   107    80    94    1
   108    82    83    1
   109    82   117    1
   110    82   118    1
   111    83    84    2
   112    83    85    1
   113    85    86    1
   114    85    90    1
   115    86    87    1
   116    86   119    1
   117    86   120    1
   118    87    88    1
   119    87    89    1
   120    87   121    1
   121    88   122    1
   122    88   123    1
   123    88   124    1
   124    89   125    1
   125    89   126    1
   126    89   127    1
   127    90    91    1
   128    90   128    1
   129    90   129    1
   130    91    92    1
   131    91    93    1
   132    91   130    1
   133    92   131    1
   134    92   132    1
   135    92   133    1
   136    93   134    1
   137    93   135    1
   138    93   136    1
   139    94    95    1
   140    94    99    2
   141    95    96    2
   142    95   137    1
   143    96    97    1
   144    96   138    1
   145    97    98    2
   146    97   139    1
   147    98    99    1
   148    98   140    1
   149    99   141    1
   150   142   143    1
   151   142   170    1
   152   142   171    1
   153   142   172    1
   154   143   144    1
   155   143   173    1
   156   143   174    1
   157   144   145    1
   158   144   175    1
   159   144   176    1
   160   145   146    1
   161   145   177    1
   162   145   178    1
   163   146   147    1
   164   146   179    1
   165   146   180    1
   166   147   148    1
   167   147   181    1
   168   147   182    1
   169   148   149    1
   170   148   183    1
   171   148   184    1
   172   149   150    1
   173   149   185    1
   174   149   186    1
   175   150   151    2
   176   150   152    1
   177   150   164    1
   178   152   153    1
   179   152   187    1
   180   152   188    1
   181   153   154    2
   182   153   155    1
   183   155   156    1
   184   155   160    1
   185   156   157    1
   186   156   189    1
   187   156   190    1
   188   157   158    1
   189   157   159    1
   190   157   191    1
   191   158   192    1
   192   158   193    1
   193   158   194    1
   194   159   195    1
   195   159   196    1
   196   159   197    1
   197   160   161    1
   198   160   198    1
   199   160   199    1
   200   161   162    1
   201   161   163    1
   202   161   200    1
   203   162   201    1
   204   162   202    1
   205   162   203    1
   206   163   204    1
   207   163   205    1
   208   163   206    1
   209   164   165    1
   210   164   169    2
   211   165   166    2
   212   165   207    1
   213   166   167    1
   214   166   208    1
   215   167   168    2
   216   167   209    1
   217   168   169    1
   218   168   210    1
   219   169   211    1
   220   212   213    1
   221   212   240    1
   222   212   241    1
   223   212   242    1
   224   213   214    1
   225   213   243    1
   226   213   244    1
   227   214   215    1
   228   214   245    1
   229   214   246    1
   230   215   216    1
   231   215   247    1
   232   215   248    1
   233   216   217    1
   234   216   249    1
   235   216   250    1
   236   217   218    1
   237   217   251    1
   238   217   252    1
   239   218   219    1
   240   218   253    1
   241   218   254    1
   242   219   220    1
   243   219   255    1
   244   219   256    1
   245   220   221    2
   246   220   222    1
   247   220   234    1
   248   222   223    1
   249   222   257    1
   250   222   258    1
   251   223   224    2
   252   223   225    1
   253   225   226    1
   254   225   230    1
   255   226   227    1
   256   226   259    1
   257   226   260    1
   258   227   228    1
   259   227   229    1
   260   227   261    1
   261   228   262    1
   262   228   263    1
   263   228   264    1
   264   229   265    1
   265   229   266    1
   266   229   267    1
   267   230   231    1
   268   230   268    1
   269   230   269    1
   270   231   232    1
   271   231   233    1
   272   231   270    1
   273   232   271    1
   274   232   272    1
   275   232   273    1
   276   233   274    1
   277   233   275    1
   278   233   276    1
   279   234   235    1
   280   234   239    2
   281   235   236    2
   282   235   277    1
   283   236   237    1
   284   236   278    1
   285   237   238    2
   286   237   279    1
   287   238   239    1
   288   238   280    1
   289   239   281    1
   290   282   283    1
   291   282   284    1
@<TRIPOS>SUBSTRUCTURE
     1 RES1      284 GROUP             0 ****  ****    0  
