@<TRIPOS>MOLECULE
am_c3_9H2O_c0_0_nunpairedes_0_charge_3 Charge: 3 Unpaired_Electrons: 7 XTB_Unpaired_Electrons: 0 XTB_Charge: 3
   358   363     1     0     0
SMALL
NoCharges
****
Generated from Architector

@<TRIPOS>ATOM
     1 Gd1      -0.1877    0.1627    0.1777   Gd        1 RES1   0.0000
     2 C1        4.2916    5.4161   -4.7926   C.3       1 RES1   0.0000
     3 C2        2.8001    5.1570   -4.9570   C.3       1 RES1   0.0000
     4 C3        1.9772    6.4081   -4.6565   C.3       1 RES1   0.0000
     5 C4        0.4779    6.1206   -4.5847   C.3       1 RES1   0.0000
     6 C5        0.0426    5.5788   -3.2224   C.3       1 RES1   0.0000
     7 C6       -1.4762    5.4786   -3.0677   C.3       1 RES1   0.0000
     8 C7       -2.1058    4.6826   -4.2069   C.3       1 RES1   0.0000
     9 C8       -1.7562    3.1951   -4.1383   C.3       1 RES1   0.0000
    10 N1       -2.6708    2.4600   -3.2768   N.am      1 RES1   0.0000
    11 C9       -4.0082    2.3375   -3.8391   C.3       1 RES1   0.0000
    12 C10      -4.0462    1.4614   -5.1077   C.3       1 RES1   0.0000
    13 C11      -4.3440    2.2615   -6.3815   C.3       1 RES1   0.0000
    14 C12      -5.6891    2.9909   -6.3558   C.3       1 RES1   0.0000
    15 C13      -6.8886    2.0497   -6.2645   C.3       1 RES1   0.0000
    16 C14      -8.2144    2.7857   -6.4452   C.3       1 RES1   0.0000
    17 C15      -8.5254    3.7494   -5.3021   C.3       1 RES1   0.0000
    18 C16      -9.9216    4.3432   -5.4379   C.3       1 RES1   0.0000
    19 C17      -2.2433    1.8240   -2.1974   C.2       1 RES1   0.0000
    20 O1       -1.0561    1.7917   -1.8010   O.2       1 RES1   0.0000
    21 C18      -3.2383    0.9047   -1.4986   C.3       1 RES1   0.0000
    22 C19      -3.2353   -0.3286   -2.4034   C.3       1 RES1   0.0000
    23 O2       -2.7555    0.5665   -0.2011   O.3       1 RES1   0.0000
    24 C20      -3.5923    1.0118    0.8783   C.3       1 RES1   0.0000
    25 C21      -4.3406   -0.1779    1.4713   C.3       1 RES1   0.0000
    26 C22      -2.6593    1.5921    1.9412   C.2       1 RES1   0.0000
    27 O3       -1.4510    1.2842    1.8636   O.2       1 RES1   0.0000
    28 N2       -3.1370    2.3701    2.9044   N.am      1 RES1   0.0000
    29 C23      -2.1530    2.8886    3.8530   C.3       1 RES1   0.0000
    30 C24      -1.5486    4.2116    3.3784   C.3       1 RES1   0.0000
    31 C25      -2.4041    5.4726    3.5450   C.3       1 RES1   0.0000
    32 C26      -2.4463    6.0389    4.9717   C.3       1 RES1   0.0000
    33 C27      -3.5523    5.5073    5.8885   C.3       1 RES1   0.0000
    34 C28      -4.9538    5.9579    5.4803   C.3       1 RES1   0.0000
    35 C29      -6.0448    5.3791    6.3830   C.3       1 RES1   0.0000
    36 C30      -6.0024    5.9442    7.7978   C.3       1 RES1   0.0000
    37 C31      -4.5293    2.6664    3.2503   C.3       1 RES1   0.0000
    38 C32      -5.5367    3.0396    2.1602   C.3       1 RES1   0.0000
    39 C33      -5.0644    4.1222    1.1891   C.3       1 RES1   0.0000
    40 C34      -6.0554    4.3275    0.0368   C.3       1 RES1   0.0000
    41 C35      -7.5073    4.5266    0.4832   C.3       1 RES1   0.0000
    42 C36      -7.6925    5.6676    1.4809   C.3       1 RES1   0.0000
    43 C37      -9.1459    5.8011    1.9295   C.3       1 RES1   0.0000
    44 C38      -9.3202    6.9476    2.9174   C.3       1 RES1   0.0000
    45 H1        4.8648    4.5090   -4.9686   H         1 RES1   0.0000
    46 H2        4.5102    5.7807   -3.7899   H         1 RES1   0.0000
    47 H3        4.6141    6.1706   -5.5031   H         1 RES1   0.0000
    48 H4        2.4963    4.3393   -4.2958   H         1 RES1   0.0000
    49 H5        2.5905    4.8271   -5.9763   H         1 RES1   0.0000
    50 H6        2.1660    7.1339   -5.4462   H         1 RES1   0.0000
    51 H7        2.3122    6.8528   -3.7167   H         1 RES1   0.0000
    52 H8        0.2385    5.4059   -5.3729   H         1 RES1   0.0000
    53 H9       -0.0786    7.0377   -4.7784   H         1 RES1   0.0000
    54 H10       0.4216    6.2517   -2.4529   H         1 RES1   0.0000
    55 H11       0.4859    4.5967   -3.0441   H         1 RES1   0.0000
    56 H12      -1.9005    6.4838   -3.0682   H         1 RES1   0.0000
    57 H13      -1.7197    5.0078   -2.1075   H         1 RES1   0.0000
    58 H14      -1.7615    5.0843   -5.1569   H         1 RES1   0.0000
    59 H15      -3.1860    4.8220   -4.1990   H         1 RES1   0.0000
    60 H16      -0.7485    3.0474   -3.7514   H         1 RES1   0.0000
    61 H17      -1.8117    2.7530   -5.1347   H         1 RES1   0.0000
    62 H18      -4.3517    3.3391   -4.0954   H         1 RES1   0.0000
    63 H19      -4.7081    1.9646   -3.1015   H         1 RES1   0.0000
    64 H20      -4.8164    0.6966   -5.0069   H         1 RES1   0.0000
    65 H21      -3.0906    0.9453   -5.2181   H         1 RES1   0.0000
    66 H22      -4.3465    1.5682   -7.2247   H         1 RES1   0.0000
    67 H23      -3.5480    2.9887   -6.5597   H         1 RES1   0.0000
    68 H24      -5.7732    3.5707   -7.2760   H         1 RES1   0.0000
    69 H25      -5.7247    3.7020   -5.5291   H         1 RES1   0.0000
    70 H26      -6.9013    1.5421   -5.2969   H         1 RES1   0.0000
    71 H27      -6.7949    1.2893   -7.0417   H         1 RES1   0.0000
    72 H28      -9.0172    2.0503   -6.5141   H         1 RES1   0.0000
    73 H29      -8.1938    3.3384   -7.3846   H         1 RES1   0.0000
    74 H30      -7.7942    4.5607   -5.2959   H         1 RES1   0.0000
    75 H31      -8.4461    3.2155   -4.3503   H         1 RES1   0.0000
    76 H32     -10.0173    4.8747   -6.3812   H         1 RES1   0.0000
    77 H33     -10.1204    5.0422   -4.6292   H         1 RES1   0.0000
    78 H34     -10.6750    3.5597   -5.4106   H         1 RES1   0.0000
    79 H35      -4.2370    1.3327   -1.4010   H         1 RES1   0.0000
    80 H36      -2.3475   -0.3031   -3.0360   H         1 RES1   0.0000
    81 H37      -4.1202   -0.4030   -3.0247   H         1 RES1   0.0000
    82 H38      -3.1584   -1.1987   -1.7617   H         1 RES1   0.0000
    83 H39      -4.2628    1.7833    0.5016   H         1 RES1   0.0000
    84 H40      -3.5852   -0.8916    1.7834   H         1 RES1   0.0000
    85 H41      -4.9914   -0.6413    0.7347   H         1 RES1   0.0000
    86 H42      -4.9484    0.1058    2.3254   H         1 RES1   0.0000
    87 H43      -1.3510    2.1522    3.9180   H         1 RES1   0.0000
    88 H44      -2.6205    2.9918    4.8287   H         1 RES1   0.0000
    89 H45      -1.3066    4.0756    2.3207   H         1 RES1   0.0000
    90 H46      -0.6129    4.3620    3.9210   H         1 RES1   0.0000
    91 H47      -3.4120    5.2936    3.1798   H         1 RES1   0.0000
    92 H48      -1.9703    6.2380    2.8958   H         1 RES1   0.0000
    93 H49      -2.5729    7.1212    4.9052   H         1 RES1   0.0000
    94 H50      -1.4771    5.8587    5.4429   H         1 RES1   0.0000
    95 H51      -3.3484    5.8861    6.8894   H         1 RES1   0.0000
    96 H52      -3.5189    4.4170    5.9542   H         1 RES1   0.0000
    97 H53      -5.1575    5.6648    4.4460   H         1 RES1   0.0000
    98 H54      -4.9985    7.0473    5.5240   H         1 RES1   0.0000
    99 H55      -5.9527    4.2892    6.4216   H         1 RES1   0.0000
   100 H56      -7.0164    5.6110    5.9433   H         1 RES1   0.0000
   101 H57      -5.1139    5.6140    8.3291   H         1 RES1   0.0000
   102 H58      -6.8719    5.6178    8.3615   H         1 RES1   0.0000
   103 H59      -6.0044    7.0309    7.7701   H         1 RES1   0.0000
   104 H60      -4.4814    3.5141    3.9361   H         1 RES1   0.0000
   105 H61      -4.9290    1.8102    3.8071   H         1 RES1   0.0000
   106 H62      -6.4075    3.4169    2.6974   H         1 RES1   0.0000
   107 H63      -5.8966    2.1731    1.6040   H         1 RES1   0.0000
   108 H64      -4.0797    3.8661    0.7823   H         1 RES1   0.0000
   109 H65      -4.9487    5.0645    1.7221   H         1 RES1   0.0000
   110 H66      -6.0128    3.4598   -0.6298   H         1 RES1   0.0000
   111 H67      -5.7379    5.1988   -0.5387   H         1 RES1   0.0000
   112 H68      -7.8913    3.5995    0.9121   H         1 RES1   0.0000
   113 H69      -8.1092    4.7394   -0.4021   H         1 RES1   0.0000
   114 H70      -7.3712    6.6032    1.0213   H         1 RES1   0.0000
   115 H71      -7.0755    5.5082    2.3676   H         1 RES1   0.0000
   116 H72      -9.4658    4.8655    2.3950   H         1 RES1   0.0000
   117 H73      -9.7825    5.9708    1.0599   H         1 RES1   0.0000
   118 H74      -8.7051    6.7905    3.8012   H         1 RES1   0.0000
   119 H75     -10.3568    7.0238    3.2316   H         1 RES1   0.0000
   120 H76      -9.0315    7.8921    2.4625   H         1 RES1   0.0000
   121 C39      -2.4883   -0.0445    6.5641   C.3       1 RES1   0.0000
   122 C40      -1.0584    0.1117    6.0591   C.3       1 RES1   0.0000
   123 C41      -0.3540    1.2973    6.7177   C.3       1 RES1   0.0000
   124 C42       1.1152    1.4200    6.3112   C.3       1 RES1   0.0000
   125 C43       1.3090    1.9281    4.8817   C.3       1 RES1   0.0000
   126 C44       2.7803    2.1211    4.4979   C.3       1 RES1   0.0000
   127 C45       3.6578    0.8989    4.7656   C.3       1 RES1   0.0000
   128 C46       3.2461   -0.3428    3.9609   C.3       1 RES1   0.0000
   129 N3        3.7916   -0.2928    2.6068   N.am      1 RES1   0.0000
   130 C47       5.2049   -0.6468    2.5733   C.3       1 RES1   0.0000
   131 C48       5.3871   -2.1729    2.4584   C.3       1 RES1   0.0000
   132 C49       6.5906   -2.7160    3.2405   C.3       1 RES1   0.0000
   133 C50       7.9264   -2.0941    2.8379   C.3       1 RES1   0.0000
   134 C51       8.2970   -2.3337    1.3760   C.3       1 RES1   0.0000
   135 C52       9.6511   -1.7250    1.0125   C.3       1 RES1   0.0000
   136 C53       9.6339   -0.1980    0.9770   C.3       1 RES1   0.0000
   137 C54      11.0068    0.3668    0.6344   C.3       1 RES1   0.0000
   138 C55       2.9835   -0.0879    1.5689   C.2       1 RES1   0.0000
   139 O4        1.7400   -0.1046    1.6704   O.2       1 RES1   0.0000
   140 C56       3.5933    0.3037    0.2056   C.3       1 RES1   0.0000
   141 C57       4.4761   -0.7321   -0.4992   C.3       1 RES1   0.0000
   142 O5        2.4905    0.6169   -0.6599   O.3       1 RES1   0.0000
   143 C58       2.5458    1.9236   -1.2423   C.3       1 RES1   0.0000
   144 C59       1.9972    1.8166   -2.6631   C.3       1 RES1   0.0000
   145 C60       1.6700    2.8514   -0.3775   C.2       1 RES1   0.0000
   146 O6        0.7870    2.2962    0.3127   O.2       1 RES1   0.0000
   147 N4        1.8329    4.1656   -0.3894   N.am      1 RES1   0.0000
   148 C61       0.8586    4.9693    0.3480   C.3       1 RES1   0.0000
   149 C62       1.3514    5.4349    1.7224   C.3       1 RES1   0.0000
   150 C63       2.1425    6.7466    1.7392   C.3       1 RES1   0.0000
   151 C64       1.3216    7.9782    1.3208   C.3       1 RES1   0.0000
   152 C65       1.5352    8.4750   -0.1131   C.3       1 RES1   0.0000
   153 C66       2.9570    8.9539   -0.4000   C.3       1 RES1   0.0000
   154 C67       3.1345    9.4443   -1.8391   C.3       1 RES1   0.0000
   155 C68       2.4085   10.7556   -2.1145   C.3       1 RES1   0.0000
   156 C69       2.8436    4.9107   -1.1320   C.3       1 RES1   0.0000
   157 C70       4.3191    4.5924   -0.8511   C.3       1 RES1   0.0000
   158 C71       4.6477    4.2300    0.5961   C.3       1 RES1   0.0000
   159 C72       6.0653    3.6557    0.7402   C.3       1 RES1   0.0000
   160 C73       7.1538    4.4105   -0.0298   C.3       1 RES1   0.0000
   161 C74       7.2342    5.9032    0.2854   C.3       1 RES1   0.0000
   162 C75       8.0721    6.6532   -0.7487   C.3       1 RES1   0.0000
   163 C76       8.0183    8.1591   -0.5254   C.3       1 RES1   0.0000
   164 H77      -2.9917   -0.8617    6.0517   H         1 RES1   0.0000
   165 H78      -3.0581    0.8680    6.4027   H         1 RES1   0.0000
   166 H79      -2.4907   -0.2547    7.6301   H         1 RES1   0.0000
   167 H80      -1.0642    0.2323    4.9717   H         1 RES1   0.0000
   168 H81      -0.4966   -0.7984    6.2836   H         1 RES1   0.0000
   169 H82      -0.3998    1.1624    7.7987   H         1 RES1   0.0000
   170 H83      -0.8822    2.2233    6.4818   H         1 RES1   0.0000
   171 H84       1.5840    0.4417    6.4274   H         1 RES1   0.0000
   172 H85       1.6137    2.1122    6.9924   H         1 RES1   0.0000
   173 H86       0.8168    2.8981    4.7918   H         1 RES1   0.0000
   174 H87       0.8317    1.2550    4.1629   H         1 RES1   0.0000
   175 H88       3.1909    2.9549    5.0723   H         1 RES1   0.0000
   176 H89       2.8355    2.3830    3.4354   H         1 RES1   0.0000
   177 H90       3.6182    0.6550    5.8263   H         1 RES1   0.0000
   178 H91       4.6959    1.1640    4.5531   H         1 RES1   0.0000
   179 H92       2.1603   -0.4130    3.9004   H         1 RES1   0.0000
   180 H93       3.6373   -1.2366    4.4504   H         1 RES1   0.0000
   181 H94       5.6358   -0.3348    3.5247   H         1 RES1   0.0000
   182 H95       5.7275   -0.1055    1.7882   H         1 RES1   0.0000
   183 H96       5.4787   -2.4668    1.4145   H         1 RES1   0.0000
   184 H97       4.4963   -2.6596    2.8577   H         1 RES1   0.0000
   185 H98       6.6336   -3.7952    3.0744   H         1 RES1   0.0000
   186 H99       6.4336   -2.5568    4.3112   H         1 RES1   0.0000
   187 H100      8.7125   -2.5281    3.4564   H         1 RES1   0.0000
   188 H101      7.8987   -1.0251    3.0491   H         1 RES1   0.0000
   189 H102      7.5344   -1.9112    0.7171   H         1 RES1   0.0000
   190 H103      8.3323   -3.4097    1.1963   H         1 RES1   0.0000
   191 H104      9.9515   -2.0895    0.0286   H         1 RES1   0.0000
   192 H105     10.4000   -2.0595    1.7313   H         1 RES1   0.0000
   193 H106      9.3267    0.1939    1.9485   H         1 RES1   0.0000
   194 H107      8.9007    0.1377    0.2359   H         1 RES1   0.0000
   195 H108     11.7396    0.0407    1.3680   H         1 RES1   0.0000
   196 H109     10.9845    1.4540    0.6334   H         1 RES1   0.0000
   197 H110     11.3313    0.0255   -0.3456   H         1 RES1   0.0000
   198 H111      4.1793    1.2168    0.3795   H         1 RES1   0.0000
   199 H112      4.1090   -1.7357   -0.3113   H         1 RES1   0.0000
   200 H113      5.5147   -0.6679   -0.1903   H         1 RES1   0.0000
   201 H114      4.4516   -0.5306   -1.5694   H         1 RES1   0.0000
   202 H115      3.5831    2.2589   -1.2971   H         1 RES1   0.0000
   203 H116      0.9850    1.4103   -2.6363   H         1 RES1   0.0000
   204 H117      2.6355    1.1617   -3.2525   H         1 RES1   0.0000
   205 H118      1.9830    2.7919   -3.1415   H         1 RES1   0.0000
   206 H119     -0.0336    4.3490    0.4663   H         1 RES1   0.0000
   207 H120      0.5904    5.8368   -0.2529   H         1 RES1   0.0000
   208 H121      1.9437    4.6333    2.1692   H         1 RES1   0.0000
   209 H122      0.4797    5.5866    2.3574   H         1 RES1   0.0000
   210 H123      3.0363    6.6686    1.1250   H         1 RES1   0.0000
   211 H124      2.4871    6.8905    2.7648   H         1 RES1   0.0000
   212 H125      1.5697    8.8055    1.9864   H         1 RES1   0.0000
   213 H126      0.2587    7.7665    1.4658   H         1 RES1   0.0000
   214 H127      0.8533    9.3110   -0.2650   H         1 RES1   0.0000
   215 H128      1.2625    7.7072   -0.8435   H         1 RES1   0.0000
   216 H129      3.6692    8.1441   -0.2187   H         1 RES1   0.0000
   217 H130      3.2044    9.7641    0.2867   H         1 RES1   0.0000
   218 H131      2.7784    8.6787   -2.5352   H         1 RES1   0.0000
   219 H132      4.2003    9.5859   -2.0287   H         1 RES1   0.0000
   220 H133      1.3296   10.6307   -2.0637   H         1 RES1   0.0000
   221 H134      2.6593   11.1252   -3.1053   H         1 RES1   0.0000
   222 H135      2.7035   11.5065   -1.3864   H         1 RES1   0.0000
   223 H136      2.6688    5.9553   -0.8802   H         1 RES1   0.0000
   224 H137      2.6723    4.7916   -2.2035   H         1 RES1   0.0000
   225 H138      4.8746    5.4898   -1.1206   H         1 RES1   0.0000
   226 H139      4.6895    3.8107   -1.5174   H         1 RES1   0.0000
   227 H140      3.9285    3.4898    0.9681   H         1 RES1   0.0000
   228 H141      4.5463    5.1135    1.2261   H         1 RES1   0.0000
   229 H142      6.0664    2.6189    0.3855   H         1 RES1   0.0000
   230 H143      6.3208    3.6387    1.8007   H         1 RES1   0.0000
   231 H144      6.9971    4.2730   -1.1018   H         1 RES1   0.0000
   232 H145      8.1158    3.9541    0.2093   H         1 RES1   0.0000
   233 H146      7.6711    6.0438    1.2738   H         1 RES1   0.0000
   234 H147      6.2388    6.3484    0.3096   H         1 RES1   0.0000
   235 H148      7.7030    6.4219   -1.7520   H         1 RES1   0.0000
   236 H149      9.1062    6.3119   -0.6950   H         1 RES1   0.0000
   237 H150      6.9981    8.5258   -0.6257   H         1 RES1   0.0000
   238 H151      8.6381    8.6745   -1.2532   H         1 RES1   0.0000
   239 H152      8.3762    8.4104    0.4697   H         1 RES1   0.0000
   240 C77      -7.9146    0.6519   -2.2196   C.3       1 RES1   0.0000
   241 C78      -6.7440   -0.2945   -2.4716   C.3       1 RES1   0.0000
   242 C79      -7.1816   -1.7536   -2.6167   C.3       1 RES1   0.0000
   243 C80      -6.0385   -2.7376   -2.9199   C.3       1 RES1   0.0000
   244 C81      -5.1918   -3.0360   -1.6790   C.3       1 RES1   0.0000
   245 C82      -4.0480   -4.0736   -1.7976   C.3       1 RES1   0.0000
   246 C83      -3.4034   -4.3083   -3.1695   C.3       1 RES1   0.0000
   247 C84      -2.2814   -3.3314   -3.5498   C.3       1 RES1   0.0000
   248 N5       -0.9733   -3.5466   -2.9154   N.am      1 RES1   0.0000
   249 C85      -0.1768   -4.4912   -3.6931   C.3       1 RES1   0.0000
   250 C86       0.4490   -3.8254   -4.9461   C.3       1 RES1   0.0000
   251 C87       0.0052   -4.3620   -6.3179   C.3       1 RES1   0.0000
   252 C88       0.1342   -5.8694   -6.5286   C.3       1 RES1   0.0000
   253 C89       1.5475   -6.4027   -6.3125   C.3       1 RES1   0.0000
   254 C90       1.5860   -7.9289   -6.3024   C.3       1 RES1   0.0000
   255 C91       0.9387   -8.5253   -5.0538   C.3       1 RES1   0.0000
   256 C92       1.1522  -10.0313   -4.9836   C.3       1 RES1   0.0000
   257 C93      -0.4844   -2.7531   -1.9638   C.2       1 RES1   0.0000
   258 O7       -1.0824   -1.7740   -1.4664   O.2       1 RES1   0.0000
   259 C94       0.9526   -2.9435   -1.4370   C.3       1 RES1   0.0000
   260 C95       1.8351   -2.0749   -2.3264   C.3       1 RES1   0.0000
   261 O8        1.0366   -2.3937   -0.1212   O.3       1 RES1   0.0000
   262 C96       0.7736   -3.3073    0.9545   C.3       1 RES1   0.0000
   263 C97       2.0302   -3.3758    1.8259   C.3       1 RES1   0.0000
   264 C98      -0.4128   -2.7635    1.7671   C.2       1 RES1   0.0000
   265 O9       -0.8510   -1.6272    1.4827   O.2       1 RES1   0.0000
   266 N6       -0.9377   -3.4754    2.7563   N.am      1 RES1   0.0000
   267 C99      -2.0003   -2.8388    3.5345   C.3       1 RES1   0.0000
   268 C100     -3.3828   -3.1242    2.9362   C.3       1 RES1   0.0000
   269 C101     -4.0278   -4.4687    3.2778   C.3       1 RES1   0.0000
   270 C102     -4.5434   -4.5635    4.7196   C.3       1 RES1   0.0000
   271 C103     -3.5593   -5.1578    5.7295   C.3       1 RES1   0.0000
   272 C104     -3.2415   -6.6293    5.4686   C.3       1 RES1   0.0000
   273 C105     -2.1516   -7.1675    6.3964   C.3       1 RES1   0.0000
   274 C106     -2.6119   -7.2699    7.8449   C.3       1 RES1   0.0000
   275 C107     -0.5633   -4.8076    3.2257   C.3       1 RES1   0.0000
   276 C108     -0.3386   -5.9192    2.1973   C.3       1 RES1   0.0000
   277 C109     -1.3934   -5.9950    1.0904   C.3       1 RES1   0.0000
   278 C110     -0.9763   -6.9390   -0.0463   C.3       1 RES1   0.0000
   279 C111     -0.4677   -8.3098    0.4125   C.3       1 RES1   0.0000
   280 C112     -1.4288   -9.0478    1.3419   C.3       1 RES1   0.0000
   281 C113     -0.8016  -10.3076    1.9352   C.3       1 RES1   0.0000
   282 C114     -1.7310  -10.9603    2.9508   C.3       1 RES1   0.0000
   283 H153     -7.5694    1.6832   -2.1445   H         1 RES1   0.0000
   284 H154     -8.4236    0.3963   -1.2945   H         1 RES1   0.0000
   285 H155     -8.6372    0.5943   -3.0288   H         1 RES1   0.0000
   286 H156     -6.0323   -0.2009   -1.6466   H         1 RES1   0.0000
   287 H157     -6.2419    0.0124   -3.3938   H         1 RES1   0.0000
   288 H158     -7.9072   -1.8016   -3.4288   H         1 RES1   0.0000
   289 H159     -7.6967   -2.0619   -1.7062   H         1 RES1   0.0000
   290 H160     -5.4256   -2.3276   -3.7272   H         1 RES1   0.0000
   291 H161     -6.4813   -3.6676   -3.2785   H         1 RES1   0.0000
   292 H162     -5.8780   -3.3944   -0.9092   H         1 RES1   0.0000
   293 H163     -4.7845   -2.1009   -1.3042   H         1 RES1   0.0000
   294 H164     -4.4372   -5.0341   -1.4537   H         1 RES1   0.0000
   295 H165     -3.2529   -3.7946   -1.0967   H         1 RES1   0.0000
   296 H166     -4.1682   -4.2334   -3.9426   H         1 RES1   0.0000
   297 H167     -3.0312   -5.3333   -3.2001   H         1 RES1   0.0000
   298 H168     -2.6108   -2.3224   -3.3444   H         1 RES1   0.0000
   299 H169     -2.1036   -3.4175   -4.6241   H         1 RES1   0.0000
   300 H170     -0.8490   -5.2958   -3.9877   H         1 RES1   0.0000
   301 H171      0.6038   -4.9369   -3.0819   H         1 RES1   0.0000
   302 H172      1.5326   -3.9269   -4.8928   H         1 RES1   0.0000
   303 H173      0.2179   -2.7555   -4.9354   H         1 RES1   0.0000
   304 H174      0.6374   -3.8661   -7.0589   H         1 RES1   0.0000
   305 H175     -1.0297   -4.0692   -6.5130   H         1 RES1   0.0000
   306 H176     -0.1566   -6.0857   -7.5570   H         1 RES1   0.0000
   307 H177     -0.5667   -6.3991   -5.8841   H         1 RES1   0.0000
   308 H178      1.9458   -6.0443   -5.3619   H         1 RES1   0.0000
   309 H179      2.1903   -6.0247   -7.1085   H         1 RES1   0.0000
   310 H180      2.6250   -8.2578   -6.3451   H         1 RES1   0.0000
   311 H181      1.0777   -8.3102   -7.1881   H         1 RES1   0.0000
   312 H182     -0.1346   -8.3238   -5.0573   H         1 RES1   0.0000
   313 H183      1.3642   -8.0483   -4.1648   H         1 RES1   0.0000
   314 H184      0.7509  -10.5085   -5.8735   H         1 RES1   0.0000
   315 H185      0.6502  -10.4513   -4.1153   H         1 RES1   0.0000
   316 H186      2.2121  -10.2640   -4.9209   H         1 RES1   0.0000
   317 H187      1.2885   -3.9831   -1.4275   H         1 RES1   0.0000
   318 H188      1.5766   -1.0361   -2.0966   H         1 RES1   0.0000
   319 H189      1.6562   -2.2815   -3.3754   H         1 RES1   0.0000
   320 H190      2.8869   -2.2354   -2.1204   H         1 RES1   0.0000
   321 H191      0.5248   -4.2848    0.5358   H         1 RES1   0.0000
   322 H192      2.1706   -2.3983    2.2749   H         1 RES1   0.0000
   323 H193      2.8956   -3.6160    1.2113   H         1 RES1   0.0000
   324 H194      1.9511   -4.1242    2.6068   H         1 RES1   0.0000
   325 H195     -1.8116   -1.7613    3.5248   H         1 RES1   0.0000
   326 H196     -1.9361   -3.1870    4.5644   H         1 RES1   0.0000
   327 H197     -3.2838   -3.0442    1.8493   H         1 RES1   0.0000
   328 H198     -4.0695   -2.3521    3.2828   H         1 RES1   0.0000
   329 H199     -3.3415   -5.2841    3.0667   H         1 RES1   0.0000
   330 H200     -4.8729   -4.5882    2.5965   H         1 RES1   0.0000
   331 H201     -5.4400   -5.1846    4.7309   H         1 RES1   0.0000
   332 H202     -4.8432   -3.5657    5.0514   H         1 RES1   0.0000
   333 H203     -4.0110   -5.0655    6.7162   H         1 RES1   0.0000
   334 H204     -2.6301   -4.5825    5.7539   H         1 RES1   0.0000
   335 H205     -2.9171   -6.7685    4.4334   H         1 RES1   0.0000
   336 H206     -4.1514   -7.2160    5.6007   H         1 RES1   0.0000
   337 H207     -1.2674   -6.5245    6.3357   H         1 RES1   0.0000
   338 H208     -1.8586   -8.1596    6.0484   H         1 RES1   0.0000
   339 H209     -2.7972   -6.2872    8.2704   H         1 RES1   0.0000
   340 H210     -1.8555   -7.7629    8.4492   H         1 RES1   0.0000
   341 H211     -3.5286   -7.8506    7.9053   H         1 RES1   0.0000
   342 H212     -1.3866   -5.1267    3.8628   H         1 RES1   0.0000
   343 H213      0.3251   -4.7213    3.8614   H         1 RES1   0.0000
   344 H214     -0.3656   -6.8485    2.7674   H         1 RES1   0.0000
   345 H215      0.6575   -5.8719    1.7583   H         1 RES1   0.0000
   346 H216     -1.5812   -5.0000    0.6699   H         1 RES1   0.0000
   347 H217     -2.3366   -6.3418    1.5120   H         1 RES1   0.0000
   348 H218     -0.1874   -6.4614   -0.6382   H         1 RES1   0.0000
   349 H219     -1.8379   -7.0796   -0.7011   H         1 RES1   0.0000
   350 H220      0.5001   -8.1941    0.9048   H         1 RES1   0.0000
   351 H221     -0.3018   -8.9260   -0.4730   H         1 RES1   0.0000
   352 H222     -2.3293   -9.3204    0.7908   H         1 RES1   0.0000
   353 H223     -1.7347   -8.4027    2.1668   H         1 RES1   0.0000
   354 H224      0.1425  -10.0476    2.4211   H         1 RES1   0.0000
   355 H225     -0.5763  -11.0156    1.1369   H         1 RES1   0.0000
   356 H226     -1.9343  -10.2806    3.7764   H         1 RES1   0.0000
   357 H227     -1.2815  -11.8624    3.3550   H         1 RES1   0.0000
   358 H228     -2.6772  -11.2271    2.4866   H         1 RES1   0.0000
@<TRIPOS>BOND
     1     1    20    1
     2     1    23    1
     3     1    27    1
     4     1   139    1
     5     1   142    1
     6     1   146    1
     7     1   258    1
     8     1   261    1
     9     1   265    1
    10     2     3    1
    11     2    45    1
    12     2    46    1
    13     2    47    1
    14     3     4    1
    15     3    48    1
    16     3    49    1
    17     4     5    1
    18     4    50    1
    19     4    51    1
    20     5     6    1
    21     5    52    1
    22     5    53    1
    23     6     7    1
    24     6    54    1
    25     6    55    1
    26     7     8    1
    27     7    56    1
    28     7    57    1
    29     8     9    1
    30     8    58    1
    31     8    59    1
    32     9    10    1
    33     9    60    1
    34     9    61    1
    35    10    11    1
    36    10    19    1
    37    11    12    1
    38    11    62    1
    39    11    63    1
    40    12    13    1
    41    12    64    1
    42    12    65    1
    43    13    14    1
    44    13    66    1
    45    13    67    1
    46    14    15    1
    47    14    68    1
    48    14    69    1
    49    15    16    1
    50    15    70    1
    51    15    71    1
    52    16    17    1
    53    16    72    1
    54    16    73    1
    55    17    18    1
    56    17    74    1
    57    17    75    1
    58    18    76    1
    59    18    77    1
    60    18    78    1
    61    19    20    2
    62    19    21    1
    63    21    22    1
    64    21    23    1
    65    21    79    1
    66    22    80    1
    67    22    81    1
    68    22    82    1
    69    23    24    1
    70    24    25    1
    71    24    26    1
    72    24    83    1
    73    25    84    1
    74    25    85    1
    75    25    86    1
    76    26    27    2
    77    26    28    1
    78    28    29    1
    79    28    37    1
    80    29    30    1
    81    29    87    1
    82    29    88    1
    83    30    31    1
    84    30    89    1
    85    30    90    1
    86    31    32    1
    87    31    91    1
    88    31    92    1
    89    32    33    1
    90    32    93    1
    91    32    94    1
    92    33    34    1
    93    33    95    1
    94    33    96    1
    95    34    35    1
    96    34    97    1
    97    34    98    1
    98    35    36    1
    99    35    99    1
   100    35   100    1
   101    36   101    1
   102    36   102    1
   103    36   103    1
   104    37    38    1
   105    37   104    1
   106    37   105    1
   107    38    39    1
   108    38   106    1
   109    38   107    1
   110    39    40    1
   111    39   108    1
   112    39   109    1
   113    40    41    1
   114    40   110    1
   115    40   111    1
   116    41    42    1
   117    41   112    1
   118    41   113    1
   119    42    43    1
   120    42   114    1
   121    42   115    1
   122    43    44    1
   123    43   116    1
   124    43   117    1
   125    44   118    1
   126    44   119    1
   127    44   120    1
   128   121   122    1
   129   121   164    1
   130   121   165    1
   131   121   166    1
   132   122   123    1
   133   122   167    1
   134   122   168    1
   135   123   124    1
   136   123   169    1
   137   123   170    1
   138   124   125    1
   139   124   171    1
   140   124   172    1
   141   125   126    1
   142   125   173    1
   143   125   174    1
   144   126   127    1
   145   126   175    1
   146   126   176    1
   147   127   128    1
   148   127   177    1
   149   127   178    1
   150   128   129    1
   151   128   179    1
   152   128   180    1
   153   129   130    1
   154   129   138    1
   155   130   131    1
   156   130   181    1
   157   130   182    1
   158   131   132    1
   159   131   183    1
   160   131   184    1
   161   132   133    1
   162   132   185    1
   163   132   186    1
   164   133   134    1
   165   133   187    1
   166   133   188    1
   167   134   135    1
   168   134   189    1
   169   134   190    1
   170   135   136    1
   171   135   191    1
   172   135   192    1
   173   136   137    1
   174   136   193    1
   175   136   194    1
   176   137   195    1
   177   137   196    1
   178   137   197    1
   179   138   139    2
   180   138   140    1
   181   140   141    1
   182   140   142    1
   183   140   198    1
   184   141   199    1
   185   141   200    1
   186   141   201    1
   187   142   143    1
   188   143   144    1
   189   143   145    1
   190   143   202    1
   191   144   203    1
   192   144   204    1
   193   144   205    1
   194   145   146    2
   195   145   147    1
   196   147   148    1
   197   147   156    1
   198   148   149    1
   199   148   206    1
   200   148   207    1
   201   149   150    1
   202   149   208    1
   203   149   209    1
   204   150   151    1
   205   150   210    1
   206   150   211    1
   207   151   152    1
   208   151   212    1
   209   151   213    1
   210   152   153    1
   211   152   214    1
   212   152   215    1
   213   153   154    1
   214   153   216    1
   215   153   217    1
   216   154   155    1
   217   154   218    1
   218   154   219    1
   219   155   220    1
   220   155   221    1
   221   155   222    1
   222   156   157    1
   223   156   223    1
   224   156   224    1
   225   157   158    1
   226   157   225    1
   227   157   226    1
   228   158   159    1
   229   158   227    1
   230   158   228    1
   231   159   160    1
   232   159   229    1
   233   159   230    1
   234   160   161    1
   235   160   231    1
   236   160   232    1
   237   161   162    1
   238   161   233    1
   239   161   234    1
   240   162   163    1
   241   162   235    1
   242   162   236    1
   243   163   237    1
   244   163   238    1
   245   163   239    1
   246   240   241    1
   247   240   283    1
   248   240   284    1
   249   240   285    1
   250   241   242    1
   251   241   286    1
   252   241   287    1
   253   242   243    1
   254   242   288    1
   255   242   289    1
   256   243   244    1
   257   243   290    1
   258   243   291    1
   259   244   245    1
   260   244   292    1
   261   244   293    1
   262   245   246    1
   263   245   294    1
   264   245   295    1
   265   246   247    1
   266   246   296    1
   267   246   297    1
   268   247   248    1
   269   247   298    1
   270   247   299    1
   271   248   249    1
   272   248   257    1
   273   249   250    1
   274   249   300    1
   275   249   301    1
   276   250   251    1
   277   250   302    1
   278   250   303    1
   279   251   252    1
   280   251   304    1
   281   251   305    1
   282   252   253    1
   283   252   306    1
   284   252   307    1
   285   253   254    1
   286   253   308    1
   287   253   309    1
   288   254   255    1
   289   254   310    1
   290   254   311    1
   291   255   256    1
   292   255   312    1
   293   255   313    1
   294   256   314    1
   295   256   315    1
   296   256   316    1
   297   257   258    2
   298   257   259    1
   299   259   260    1
   300   259   261    1
   301   259   317    1
   302   260   318    1
   303   260   319    1
   304   260   320    1
   305   261   262    1
   306   262   263    1
   307   262   264    1
   308   262   321    1
   309   263   322    1
   310   263   323    1
   311   263   324    1
   312   264   265    2
   313   264   266    1
   314   266   267    1
   315   266   275    1
   316   267   268    1
   317   267   325    1
   318   267   326    1
   319   268   269    1
   320   268   327    1
   321   268   328    1
   322   269   270    1
   323   269   329    1
   324   269   330    1
   325   270   271    1
   326   270   331    1
   327   270   332    1
   328   271   272    1
   329   271   333    1
   330   271   334    1
   331   272   273    1
   332   272   335    1
   333   272   336    1
   334   273   274    1
   335   273   337    1
   336   273   338    1
   337   274   339    1
   338   274   340    1
   339   274   341    1
   340   275   276    1
   341   275   342    1
   342   275   343    1
   343   276   277    1
   344   276   344    1
   345   276   345    1
   346   277   278    1
   347   277   346    1
   348   277   347    1
   349   278   279    1
   350   278   348    1
   351   278   349    1
   352   279   280    1
   353   279   350    1
   354   279   351    1
   355   280   281    1
   356   280   352    1
   357   280   353    1
   358   281   282    1
   359   281   354    1
   360   281   355    1
   361   282   356    1
   362   282   357    1
   363   282   358    1
@<TRIPOS>SUBSTRUCTURE
     1 RES1      358 GROUP             0 ****  ****    0  
