@<TRIPOS>MOLECULE
capped_square_antiprismatic_0_nunpairedes_0_charge_3 Charge: 3 Unpaired_Electrons: 7 XTB_Unpaired_Electrons: 0 XTB_Charge: 3
   466   471     1     0     0
SMALL
NoCharges
****
Generated from Architector

@<TRIPOS>ATOM
     1 Gd1      -0.1754   -0.0162    0.1932   Gd        1 RES1   0.0000
     2 C1        3.9463    1.0334    9.8016   C.3       1 RES1   0.0000
     3 C2        5.3531    0.5749    9.4302   C.3       1 RES1   0.0000
     4 C3        5.7223    0.9881    8.0064   C.3       1 RES1   0.0000
     5 C4        7.0641    0.4006    7.5572   C.3       1 RES1   0.0000
     6 C5        7.8143    1.3062    6.5807   C.3       1 RES1   0.0000
     7 C6        7.0418    1.6353    5.3019   C.3       1 RES1   0.0000
     8 C7        7.0350    0.5150    4.2575   C.3       1 RES1   0.0000
     9 C8        5.8150    0.5876    3.3346   C.3       1 RES1   0.0000
    10 C9        5.8986   -0.4626    2.2303   C.3       1 RES1   0.0000
    11 C10       4.5655   -0.9000    1.6150   C.3       1 RES1   0.0000
    12 N1        3.6083   -1.4980    2.5630   N.am      1 RES1   0.0000
    13 C11       4.1653   -2.4908    3.4862   C.3       1 RES1   0.0000
    14 C12       4.4328   -2.0479    4.9283   C.3       1 RES1   0.0000
    15 C13       4.3074   -3.2247    5.9062   C.3       1 RES1   0.0000
    16 C14       4.8196   -2.8228    7.2920   C.3       1 RES1   0.0000
    17 C15       4.5477   -3.8109    8.4397   C.3       1 RES1   0.0000
    18 C16       3.3077   -3.4846    9.2817   C.3       1 RES1   0.0000
    19 C17       1.9818   -3.9791    8.7136   C.3       1 RES1   0.0000
    20 C18       0.7932   -3.4957    9.5458   C.3       1 RES1   0.0000
    21 C19      -0.5214   -3.6314    8.7826   C.3       1 RES1   0.0000
    22 C20      -1.7390   -3.4097    9.6697   C.3       1 RES1   0.0000
    23 C21       2.3038   -1.4161    2.2430   C.2       1 RES1   0.0000
    24 O1        1.9285   -0.9651    1.1448   O.2       1 RES1   0.0000
    25 C22       1.1975   -1.7760    3.2683   C.3       1 RES1   0.0000
    26 C23       1.0401   -3.2874    3.5997   C.3       1 RES1   0.0000
    27 C24       0.9949   -4.3173    2.4620   C.3       1 RES1   0.0000
    28 C25       2.3219   -4.8249    1.9124   C.3       1 RES1   0.0000
    29 O2       -0.0346   -1.2103    2.7331   O.3       1 RES1   0.0000
    30 C26      -0.9911   -0.5545    3.6120   C.3       1 RES1   0.0000
    31 C27      -0.9924   -1.0424    5.0791   C.3       1 RES1   0.0000
    32 C28      -0.1719   -0.3525    6.1805   C.3       1 RES1   0.0000
    33 C29       1.2004   -0.9285    6.5285   C.3       1 RES1   0.0000
    34 C30      -1.0340    0.9542    3.1936   C.2       1 RES1   0.0000
    35 O3       -0.4387    1.2071    2.1252   O.2       1 RES1   0.0000
    36 N2       -1.7455    1.9058    3.7994   N.am      1 RES1   0.0000
    37 C31      -2.7981    1.7209    4.7824   C.3       1 RES1   0.0000
    38 C32      -4.1455    1.6977    4.0429   C.3       1 RES1   0.0000
    39 C33      -5.3442    1.3754    4.9266   C.3       1 RES1   0.0000
    40 C34      -5.6156    2.4125    6.0210   C.3       1 RES1   0.0000
    41 C35      -6.1301    3.7965    5.5879   C.3       1 RES1   0.0000
    42 C36      -5.0728    4.8780    5.3264   C.3       1 RES1   0.0000
    43 C37      -5.6548    6.2796    5.5389   C.3       1 RES1   0.0000
    44 C38      -4.6219    7.4052    5.3912   C.3       1 RES1   0.0000
    45 C39      -4.5090    7.9574    3.9675   C.3       1 RES1   0.0000
    46 C40      -5.6353    8.9299    3.6447   C.3       1 RES1   0.0000
    47 C41      -1.8221    3.2166    3.1316   C.3       1 RES1   0.0000
    48 C42      -0.5747    4.0551    3.3971   C.3       1 RES1   0.0000
    49 C43      -0.7903    5.5620    3.5937   C.3       1 RES1   0.0000
    50 C44       0.2929    6.1463    4.5160   C.3       1 RES1   0.0000
    51 C45       1.6960    6.0360    3.9161   C.3       1 RES1   0.0000
    52 C46       2.7974    6.3463    4.9282   C.3       1 RES1   0.0000
    53 C47       4.1830    6.3272    4.2800   C.3       1 RES1   0.0000
    54 C48       5.2989    5.9912    5.2677   C.3       1 RES1   0.0000
    55 C49       6.6704    5.8350    4.6055   C.3       1 RES1   0.0000
    56 C50       6.6540    4.7572    3.5288   C.3       1 RES1   0.0000
    57 H1        3.7249    0.7852   10.8373   H         1 RES1   0.0000
    58 H2        3.2060    0.5498    9.1628   H         1 RES1   0.0000
    59 H3        3.8521    2.1124    9.6810   H         1 RES1   0.0000
    60 H4        5.4259   -0.5107    9.5315   H         1 RES1   0.0000
    61 H5        6.0667    1.0212   10.1251   H         1 RES1   0.0000
    62 H6        5.7739    2.0788    7.9725   H         1 RES1   0.0000
    63 H7        4.9278    0.6717    7.3241   H         1 RES1   0.0000
    64 H8        6.9083   -0.5866    7.1183   H         1 RES1   0.0000
    65 H9        7.6953    0.2613    8.4356   H         1 RES1   0.0000
    66 H10       8.7683    0.8469    6.3192   H         1 RES1   0.0000
    67 H11       8.0350    2.2447    7.0939   H         1 RES1   0.0000
    68 H12       7.4975    2.5219    4.8634   H         1 RES1   0.0000
    69 H13       6.0137    1.8819    5.5723   H         1 RES1   0.0000
    70 H14       7.0362   -0.4563    4.7575   H         1 RES1   0.0000
    71 H15       7.9469    0.5701    3.6617   H         1 RES1   0.0000
    72 H16       5.7360    1.5841    2.8994   H         1 RES1   0.0000
    73 H17       4.9222    0.4105    3.9285   H         1 RES1   0.0000
    74 H18       6.4191   -1.3295    2.6307   H         1 RES1   0.0000
    75 H19       6.5248   -0.0855    1.4204   H         1 RES1   0.0000
    76 H20       4.7890   -1.6342    0.8295   H         1 RES1   0.0000
    77 H21       4.0537   -0.0573    1.1440   H         1 RES1   0.0000
    78 H22       5.0943   -2.8543    3.0390   H         1 RES1   0.0000
    79 H23       3.4803   -3.3307    3.5160   H         1 RES1   0.0000
    80 H24       3.7282   -1.2709    5.2214   H         1 RES1   0.0000
    81 H25       5.4288   -1.6234    5.0245   H         1 RES1   0.0000
    82 H26       4.8892   -4.0768    5.5463   H         1 RES1   0.0000
    83 H27       3.2642   -3.5372    5.9704   H         1 RES1   0.0000
    84 H28       4.3975   -1.8509    7.5552   H         1 RES1   0.0000
    85 H29       5.8993   -2.6893    7.2029   H         1 RES1   0.0000
    86 H30       5.4048   -3.7622    9.1136   H         1 RES1   0.0000
    87 H31       4.5021   -4.8341    8.0595   H         1 RES1   0.0000
    88 H32       3.2542   -2.4015    9.4220   H         1 RES1   0.0000
    89 H33       3.4362   -3.9320   10.2677   H         1 RES1   0.0000
    90 H34       1.9806   -5.0708    8.6928   H         1 RES1   0.0000
    91 H35       1.8623   -3.6339    7.6844   H         1 RES1   0.0000
    92 H36       0.9351   -2.4525    9.8368   H         1 RES1   0.0000
    93 H37       0.7446   -4.0734   10.4670   H         1 RES1   0.0000
    94 H38      -0.5777   -4.6284    8.3407   H         1 RES1   0.0000
    95 H39      -0.5309   -2.9025    7.9663   H         1 RES1   0.0000
    96 H40      -1.8111   -4.1906   10.4217   H         1 RES1   0.0000
    97 H41      -2.6508   -3.4358    9.0759   H         1 RES1   0.0000
    98 H42      -1.6737   -2.4499   10.1781   H         1 RES1   0.0000
    99 H43       1.4141   -1.2407    4.1939   H         1 RES1   0.0000
   100 H44       1.8151   -3.5825    4.3048   H         1 RES1   0.0000
   101 H45       0.0912   -3.3849    4.1299   H         1 RES1   0.0000
   102 H46       0.4121   -3.9137    1.6405   H         1 RES1   0.0000
   103 H47       0.4632   -5.1933    2.8497   H         1 RES1   0.0000
   104 H48       2.8477   -4.0550    1.3522   H         1 RES1   0.0000
   105 H49       2.9609   -5.2083    2.7036   H         1 RES1   0.0000
   106 H50       2.1241   -5.6646    1.2481   H         1 RES1   0.0000
   107 H51      -1.9643   -0.8917    3.2048   H         1 RES1   0.0000
   108 H52      -2.0393   -1.0260    5.3927   H         1 RES1   0.0000
   109 H53      -0.7318   -2.0984    5.0640   H         1 RES1   0.0000
   110 H54      -0.7745   -0.4409    7.0860   H         1 RES1   0.0000
   111 H55      -0.0695    0.7012    5.9364   H         1 RES1   0.0000
   112 H56       1.2115   -2.0102    6.4417   H         1 RES1   0.0000
   113 H57       1.4269   -0.6977    7.5671   H         1 RES1   0.0000
   114 H58       1.9987   -0.5089    5.9214   H         1 RES1   0.0000
   115 H59      -2.7759    2.5487    5.4940   H         1 RES1   0.0000
   116 H60      -2.6476    0.8037    5.3423   H         1 RES1   0.0000
   117 H61      -4.0736    0.9700    3.2281   H         1 RES1   0.0000
   118 H62      -4.3421    2.6683    3.5906   H         1 RES1   0.0000
   119 H63      -5.2024    0.4026    5.4030   H         1 RES1   0.0000
   120 H64      -6.2192    1.2948    4.2783   H         1 RES1   0.0000
   121 H65      -4.7159    2.5391    6.6223   H         1 RES1   0.0000
   122 H66      -6.3734    1.9759    6.6730   H         1 RES1   0.0000
   123 H67      -6.7522    4.1657    6.4057   H         1 RES1   0.0000
   124 H68      -6.7773    3.6974    4.7160   H         1 RES1   0.0000
   125 H69      -4.6773    4.8078    4.3097   H         1 RES1   0.0000
   126 H70      -4.2416    4.7489    6.0239   H         1 RES1   0.0000
   127 H71      -6.0765    6.3190    6.5435   H         1 RES1   0.0000
   128 H72      -6.4758    6.4361    4.8391   H         1 RES1   0.0000
   129 H73      -3.6469    7.0388    5.7286   H         1 RES1   0.0000
   130 H74      -4.8965    8.2340    6.0466   H         1 RES1   0.0000
   131 H75      -4.5119    7.1313    3.2508   H         1 RES1   0.0000
   132 H76      -3.5542    8.4763    3.8663   H         1 RES1   0.0000
   133 H77      -6.6005    8.4412    3.7203   H         1 RES1   0.0000
   134 H78      -5.5332    9.3293    2.6407   H         1 RES1   0.0000
   135 H79      -5.6276    9.7628    4.3402   H         1 RES1   0.0000
   136 H80      -2.6915    3.7383    3.5268   H         1 RES1   0.0000
   137 H81      -1.9708    3.0176    2.0713   H         1 RES1   0.0000
   138 H82       0.1536    3.9087    2.6011   H         1 RES1   0.0000
   139 H83      -0.1654    3.6752    4.3309   H         1 RES1   0.0000
   140 H84      -1.7677    5.7496    4.0440   H         1 RES1   0.0000
   141 H85      -0.7652    6.0938    2.6410   H         1 RES1   0.0000
   142 H86       0.2528    5.6207    5.4758   H         1 RES1   0.0000
   143 H87       0.0795    7.1979    4.7210   H         1 RES1   0.0000
   144 H88       1.7587    6.7169    3.0624   H         1 RES1   0.0000
   145 H89       1.8508    5.0150    3.5574   H         1 RES1   0.0000
   146 H90       2.7629    5.5883    5.7105   H         1 RES1   0.0000
   147 H91       2.6130    7.3155    5.3886   H         1 RES1   0.0000
   148 H92       4.3880    7.3026    3.8346   H         1 RES1   0.0000
   149 H93       4.1829    5.5841    3.4739   H         1 RES1   0.0000
   150 H94       5.0449    5.0533    5.7701   H         1 RES1   0.0000
   151 H95       5.3520    6.7743    6.0274   H         1 RES1   0.0000
   152 H96       7.4007    5.5667    5.3739   H         1 RES1   0.0000
   153 H97       6.9818    6.7896    4.1800   H         1 RES1   0.0000
   154 H98       7.6493    4.5744    3.1345   H         1 RES1   0.0000
   155 H99       6.0336    5.0600    2.6899   H         1 RES1   0.0000
   156 H100      6.2510    3.8325    3.9399   H         1 RES1   0.0000
   157 C51      -1.7070   -8.1603   -5.2762   C.3       1 RES1   0.0000
   158 C52      -3.2231   -8.2796   -5.3614   C.3       1 RES1   0.0000
   159 C53      -3.8589   -7.0210   -5.9513   C.3       1 RES1   0.0000
   160 C54      -5.3856   -7.0716   -5.9007   C.3       1 RES1   0.0000
   161 C55      -6.0819   -5.9339   -6.6550   C.3       1 RES1   0.0000
   162 C56      -5.6668   -4.5254   -6.2241   C.3       1 RES1   0.0000
   163 C57      -6.0372   -4.2185   -4.7755   C.3       1 RES1   0.0000
   164 C58      -5.3478   -2.9688   -4.2279   C.3       1 RES1   0.0000
   165 C59      -5.7240   -2.7582   -2.7544   C.3       1 RES1   0.0000
   166 C60      -4.6064   -2.1961   -1.8769   C.3       1 RES1   0.0000
   167 N3       -3.5856   -3.1326   -1.3840   N.am      1 RES1   0.0000
   168 C61      -3.9836   -4.4540   -0.9193   C.3       1 RES1   0.0000
   169 C62      -3.3927   -5.6153   -1.7259   C.3       1 RES1   0.0000
   170 C63      -3.3282   -6.8688   -0.8534   C.3       1 RES1   0.0000
   171 C64      -2.4390   -7.9852   -1.3965   C.3       1 RES1   0.0000
   172 C65      -2.2761   -9.0878   -0.3378   C.3       1 RES1   0.0000
   173 C66      -0.9588   -9.8555   -0.4593   C.3       1 RES1   0.0000
   174 C67       0.2283   -9.0086   -0.0048   C.3       1 RES1   0.0000
   175 C68       1.5660   -9.6899   -0.2654   C.3       1 RES1   0.0000
   176 C69       2.7376   -8.7670    0.0575   C.3       1 RES1   0.0000
   177 C70       4.0793   -9.4166   -0.2529   C.3       1 RES1   0.0000
   178 C71      -2.4305   -2.5965   -1.0002   C.2       1 RES1   0.0000
   179 O4       -2.1275   -1.3982   -1.1588   O.2       1 RES1   0.0000
   180 C72      -1.4636   -3.3756   -0.1029   C.3       1 RES1   0.0000
   181 C73      -2.0816   -3.0541    1.2875   C.3       1 RES1   0.0000
   182 C74      -2.3406   -4.1780    2.3104   C.3       1 RES1   0.0000
   183 C75      -3.6471   -3.9087    3.0526   C.3       1 RES1   0.0000
   184 O5       -0.1837   -2.7229   -0.2031   O.3       1 RES1   0.0000
   185 C76       0.7670   -3.1191   -1.2283   C.3       1 RES1   0.0000
   186 C77       0.2272   -3.9251   -2.4303   C.3       1 RES1   0.0000
   187 C78      -0.4018   -3.1116   -3.5626   C.3       1 RES1   0.0000
   188 C79      -0.9998   -4.0127   -4.6350   C.3       1 RES1   0.0000
   189 C80       1.4050   -1.8182   -1.7648   C.2       1 RES1   0.0000
   190 O6        0.7724   -0.7500   -1.6094   O.2       1 RES1   0.0000
   191 N4        2.5278   -1.8182   -2.4782   N.am      1 RES1   0.0000
   192 C81       3.4800   -2.9024   -2.6718   C.3       1 RES1   0.0000
   193 C82       4.8467   -2.6079   -2.0365   C.3       1 RES1   0.0000
   194 C83       5.8979   -3.6677   -2.3783   C.3       1 RES1   0.0000
   195 C84       6.3800   -3.6896   -3.8332   C.3       1 RES1   0.0000
   196 C85       7.1805   -2.4656   -4.3065   C.3       1 RES1   0.0000
   197 C86       6.3849   -1.3572   -5.0092   C.3       1 RES1   0.0000
   198 C87       7.2822   -0.5706   -5.9693   C.3       1 RES1   0.0000
   199 C88       6.5539    0.4819   -6.8079   C.3       1 RES1   0.0000
   200 C89       6.1421    1.7490   -6.0583   C.3       1 RES1   0.0000
   201 C90       7.3315    2.6000   -5.6315   C.3       1 RES1   0.0000
   202 C91       2.8912   -0.5432   -3.1121   C.3       1 RES1   0.0000
   203 C92       1.9615   -0.1801   -4.2739   C.3       1 RES1   0.0000
   204 C93       2.2914   -0.8954   -5.5856   C.3       1 RES1   0.0000
   205 C94       1.1910   -0.7534   -6.6435   C.3       1 RES1   0.0000
   206 C95       0.8153    0.7035   -6.8999   C.3       1 RES1   0.0000
   207 C96      -0.0131    0.9439   -8.1614   C.3       1 RES1   0.0000
   208 C97      -1.3822    0.2517   -8.1607   C.3       1 RES1   0.0000
   209 C98      -2.4216    1.0323   -8.9851   C.3       1 RES1   0.0000
   210 C99      -3.5115    1.6887   -8.1325   C.3       1 RES1   0.0000
   211 C100     -4.6244    0.7157   -7.7493   C.3       1 RES1   0.0000
   212 H101     -1.2720   -9.0602   -4.8516   H         1 RES1   0.0000
   213 H102     -1.4203   -7.3124   -4.6564   H         1 RES1   0.0000
   214 H103     -1.2864   -8.0165   -6.2672   H         1 RES1   0.0000
   215 H104     -3.6372   -8.4597   -4.3658   H         1 RES1   0.0000
   216 H105     -3.4803   -9.1397   -5.9805   H         1 RES1   0.0000
   217 H106     -3.5360   -6.9152   -6.9884   H         1 RES1   0.0000
   218 H107     -3.4967   -6.1495   -5.3982   H         1 RES1   0.0000
   219 H108     -5.7124   -7.0900   -4.8581   H         1 RES1   0.0000
   220 H109     -5.7134   -8.0095   -6.3480   H         1 RES1   0.0000
   221 H110     -7.1611   -6.0422   -6.5262   H         1 RES1   0.0000
   222 H111     -5.8695   -6.0374   -7.7205   H         1 RES1   0.0000
   223 H112     -6.1474   -3.7998   -6.8832   H         1 RES1   0.0000
   224 H113     -4.5887   -4.4148   -6.3532   H         1 RES1   0.0000
   225 H114     -5.7459   -5.0640   -4.1500   H         1 RES1   0.0000
   226 H115     -7.1195   -4.1082   -4.6900   H         1 RES1   0.0000
   227 H116     -5.6404   -2.0925   -4.8123   H         1 RES1   0.0000
   228 H117     -4.2664   -3.0919   -4.3255   H         1 RES1   0.0000
   229 H118     -6.0942   -3.7012   -2.3506   H         1 RES1   0.0000
   230 H119     -6.5597   -2.0567   -2.6964   H         1 RES1   0.0000
   231 H120     -5.0545   -1.7345   -0.9868   H         1 RES1   0.0000
   232 H121     -4.0588   -1.4315   -2.4327   H         1 RES1   0.0000
   233 H122     -5.0686   -4.5169   -0.9644   H         1 RES1   0.0000
   234 H123     -3.7020   -4.5550    0.1299   H         1 RES1   0.0000
   235 H124     -2.3852   -5.3728   -2.0688   H         1 RES1   0.0000
   236 H125     -3.9994   -5.7832   -2.6143   H         1 RES1   0.0000
   237 H126     -4.3337   -7.2539   -0.6853   H         1 RES1   0.0000
   238 H127     -2.9267   -6.5856    0.1243   H         1 RES1   0.0000
   239 H128     -1.4606   -7.5730   -1.6653   H         1 RES1   0.0000
   240 H129     -2.8692   -8.4086   -2.3033   H         1 RES1   0.0000
   241 H130     -3.1171   -9.7803   -0.4023   H         1 RES1   0.0000
   242 H131     -2.3119   -8.6398    0.6602   H         1 RES1   0.0000
   243 H132     -0.8094  -10.1728   -1.4927   H         1 RES1   0.0000
   244 H133     -1.0131  -10.7522    0.1611   H         1 RES1   0.0000
   245 H134      0.1296   -8.7923    1.0622   H         1 RES1   0.0000
   246 H135      0.2273   -8.0513   -0.5350   H         1 RES1   0.0000
   247 H136      1.6184   -9.9880   -1.3136   H         1 RES1   0.0000
   248 H137      1.6427  -10.5964    0.3330   H         1 RES1   0.0000
   249 H138      2.6987   -8.4920    1.1152   H         1 RES1   0.0000
   250 H139      2.6319   -7.8454   -0.5254   H         1 RES1   0.0000
   251 H140      4.2115  -10.3086    0.3529   H         1 RES1   0.0000
   252 H141      4.8958   -8.7314   -0.0345   H         1 RES1   0.0000
   253 H142      4.1276   -9.7023   -1.3017   H         1 RES1   0.0000
   254 H143     -1.3820   -4.4483   -0.2764   H         1 RES1   0.0000
   255 H144     -1.4219   -2.2998    1.7224   H         1 RES1   0.0000
   256 H145     -3.0427   -2.5631    1.1160   H         1 RES1   0.0000
   257 H146     -1.5417   -4.2107    3.0499   H         1 RES1   0.0000
   258 H147     -2.3723   -5.1583    1.8317   H         1 RES1   0.0000
   259 H148     -3.6148   -2.9204    3.5125   H         1 RES1   0.0000
   260 H149     -3.8141   -4.6557    3.8201   H         1 RES1   0.0000
   261 H150     -4.4935   -3.9383    2.3716   H         1 RES1   0.0000
   262 H151      1.5309   -3.7219   -0.7130   H         1 RES1   0.0000
   263 H152      1.0751   -4.4683   -2.8509   H         1 RES1   0.0000
   264 H153     -0.4825   -4.6805   -2.0899   H         1 RES1   0.0000
   265 H154      0.3779   -2.5206   -4.0373   H         1 RES1   0.0000
   266 H155     -1.1570   -2.4255   -3.1822   H         1 RES1   0.0000
   267 H156     -0.2614   -4.7330   -4.9727   H         1 RES1   0.0000
   268 H157     -1.2888   -3.4246   -5.5016   H         1 RES1   0.0000
   269 H158     -1.8722   -4.5535   -4.2802   H         1 RES1   0.0000
   270 H159      3.6168   -3.0508   -3.7463   H         1 RES1   0.0000
   271 H160      3.0883   -3.8246   -2.2461   H         1 RES1   0.0000
   272 H161      4.7189   -2.5710   -0.9522   H         1 RES1   0.0000
   273 H162      5.2306   -1.6429   -2.3603   H         1 RES1   0.0000
   274 H163      5.5017   -4.6572   -2.1423   H         1 RES1   0.0000
   275 H164      6.7652   -3.4982   -1.7364   H         1 RES1   0.0000
   276 H165      5.5412   -3.8576   -4.5109   H         1 RES1   0.0000
   277 H166      7.0327   -4.5605   -3.9276   H         1 RES1   0.0000
   278 H167      7.9175   -2.8244   -5.0255   H         1 RES1   0.0000
   279 H168      7.7343   -2.0415   -3.4684   H         1 RES1   0.0000
   280 H169      5.9518   -0.6696   -4.2790   H         1 RES1   0.0000
   281 H170      5.5656   -1.7995   -5.5812   H         1 RES1   0.0000
   282 H171      7.7400   -1.2848   -6.6557   H         1 RES1   0.0000
   283 H172      8.0887   -0.1039   -5.4041   H         1 RES1   0.0000
   284 H173      5.6682    0.0243   -7.2560   H         1 RES1   0.0000
   285 H174      7.2132    0.7761   -7.6255   H         1 RES1   0.0000
   286 H175      5.5417    1.4935   -5.1821   H         1 RES1   0.0000
   287 H176      5.5111    2.3438   -6.7215   H         1 RES1   0.0000
   288 H177      7.9369    2.0923   -4.8862   H         1 RES1   0.0000
   289 H178      6.9953    3.5432   -5.2070   H         1 RES1   0.0000
   290 H179      7.9631    2.8199   -6.4872   H         1 RES1   0.0000
   291 H180      3.9085   -0.6200   -3.4886   H         1 RES1   0.0000
   292 H181      2.8417    0.2288   -2.3374   H         1 RES1   0.0000
   293 H182      2.0228    0.8950   -4.4395   H         1 RES1   0.0000
   294 H183      0.9449   -0.4089   -3.9684   H         1 RES1   0.0000
   295 H184      2.4465   -1.9579   -5.3957   H         1 RES1   0.0000
   296 H185      3.2208   -0.4872   -5.9850   H         1 RES1   0.0000
   297 H186      0.3079   -1.3138   -6.3331   H         1 RES1   0.0000
   298 H187      1.5423   -1.2051   -7.5717   H         1 RES1   0.0000
   299 H188      1.7368    1.2842   -6.9703   H         1 RES1   0.0000
   300 H189      0.2467    1.0869   -6.0506   H         1 RES1   0.0000
   301 H190      0.5571    0.6377   -9.0390   H         1 RES1   0.0000
   302 H191     -0.1690    2.0210   -8.2417   H         1 RES1   0.0000
   303 H192     -1.7332    0.1526   -7.1307   H         1 RES1   0.0000
   304 H193     -1.2701   -0.7505   -8.5689   H         1 RES1   0.0000
   305 H194     -2.9004    0.3854   -9.7207   H         1 RES1   0.0000
   306 H195     -1.9080    1.8148   -9.5419   H         1 RES1   0.0000
   307 H196     -3.9562    2.5134   -8.6926   H         1 RES1   0.0000
   308 H197     -3.0615    2.1162   -7.2302   H         1 RES1   0.0000
   309 H198     -5.1630    0.4055   -8.6429   H         1 RES1   0.0000
   310 H199     -5.3314    1.1893   -7.0658   H         1 RES1   0.0000
   311 H200     -4.2230   -0.1790   -7.2740   H         1 RES1   0.0000
   312 C101     -4.1505    8.5737   -0.8048   C.3       1 RES1   0.0000
   313 C102     -5.6635    8.4141   -0.7284   C.3       1 RES1   0.0000
   314 C103     -6.0508    7.2869    0.2246   C.3       1 RES1   0.0000
   315 C104     -7.5624    7.0806    0.3281   C.3       1 RES1   0.0000
   316 C105     -7.9869    6.1956    1.5091   C.3       1 RES1   0.0000
   317 C106     -7.1704    4.9162    1.6842   C.3       1 RES1   0.0000
   318 C107     -7.2688    3.9636    0.4945   C.3       1 RES1   0.0000
   319 C108     -6.0900    2.9910    0.4444   C.3       1 RES1   0.0000
   320 C109     -6.2688    1.9929   -0.6960   C.3       1 RES1   0.0000
   321 C110     -5.0143    1.1842   -1.0211   C.3       1 RES1   0.0000
   322 N5       -3.9199    1.9351   -1.6359   N.am      1 RES1   0.0000
   323 C111     -4.2649    2.6690   -2.8499   C.3       1 RES1   0.0000
   324 C112     -4.6178    4.1479   -2.6805   C.3       1 RES1   0.0000
   325 C113     -4.7401    4.7891   -4.0651   C.3       1 RES1   0.0000
   326 C114     -5.0433    6.2848   -3.9620   C.3       1 RES1   0.0000
   327 C115     -4.8165    7.0431   -5.2764   C.3       1 RES1   0.0000
   328 C116     -3.4723    7.7713   -5.3291   C.3       1 RES1   0.0000
   329 C117     -2.2666    6.8397   -5.2363   C.3       1 RES1   0.0000
   330 C118     -0.9456    7.5985   -5.3454   C.3       1 RES1   0.0000
   331 C119      0.2605    6.6630   -5.2951   C.3       1 RES1   0.0000
   332 C120      1.5779    7.4260   -5.2574   C.3       1 RES1   0.0000
   333 C121     -2.6754    1.7123   -1.2236   C.2       1 RES1   0.0000
   334 O7       -2.4054    1.0392   -0.2028   O.2       1 RES1   0.0000
   335 C122     -1.5148    2.3999   -1.9669   C.3       1 RES1   0.0000
   336 C123     -1.1471    1.8456   -3.3683   C.3       1 RES1   0.0000
   337 C124     -1.5921    0.4192   -3.7266   C.3       1 RES1   0.0000
   338 C125     -2.9527    0.2777   -4.4072   C.3       1 RES1   0.0000
   339 O8       -0.4158    2.2866   -1.0410   O.3       1 RES1   0.0000
   340 C126      0.6889    3.2229   -1.1385   C.3       1 RES1   0.0000
   341 C127      0.2490    4.6761   -1.3999   C.3       1 RES1   0.0000
   342 C128     -0.4669    5.4445   -0.2830   C.3       1 RES1   0.0000
   343 C129     -1.8822    4.9660    0.0092   C.3       1 RES1   0.0000
   344 C130      1.5941    2.7613    0.0662   C.2       1 RES1   0.0000
   345 O9        1.5857    1.5226    0.2215   O.2       1 RES1   0.0000
   346 N6        2.3679    3.5215    0.8453   N.am      1 RES1   0.0000
   347 C131      2.6953    4.9284    0.6281   C.3       1 RES1   0.0000
   348 C132      4.1405    5.1952    0.1802   C.3       1 RES1   0.0000
   349 C133      4.2642    6.6049   -0.4212   C.3       1 RES1   0.0000
   350 C134      4.4296    7.7103    0.6336   C.3       1 RES1   0.0000
   351 C135      5.9025    7.9566    0.9625   C.3       1 RES1   0.0000
   352 C136      6.1178    9.0017    2.0550   C.3       1 RES1   0.0000
   353 C137      7.6018    9.3253    2.2198   C.3       1 RES1   0.0000
   354 C138      7.8890   10.3100    3.3572   C.3       1 RES1   0.0000
   355 C139      7.8052    9.7072    4.7640   C.3       1 RES1   0.0000
   356 C140      9.0126    8.8435    5.1202   C.3       1 RES1   0.0000
   357 C141      3.1662    2.8746    1.9205   C.3       1 RES1   0.0000
   358 C142      2.3559    2.1077    2.9875   C.3       1 RES1   0.0000
   359 C143      2.8979    2.1681    4.4456   C.3       1 RES1   0.0000
   360 C144      1.8170    2.6978    5.4102   C.3       1 RES1   0.0000
   361 C145      2.0264    2.5452    6.9193   C.3       1 RES1   0.0000
   362 C146      1.0026    3.3305    7.7705   C.3       1 RES1   0.0000
   363 C147     -0.4390    2.7778    7.7215   C.3       1 RES1   0.0000
   364 C148     -1.2228    2.7311    9.0501   C.3       1 RES1   0.0000
   365 C149     -1.7468    1.3360    9.4286   C.3       1 RES1   0.0000
   366 C150     -2.9074    0.8052    8.5864   C.3       1 RES1   0.0000
   367 H201     -3.8811    9.3572   -1.5061   H         1 RES1   0.0000
   368 H202     -3.6839    7.6462   -1.1319   H         1 RES1   0.0000
   369 H203     -3.7403    8.8301    0.1694   H         1 RES1   0.0000
   370 H204     -6.0633    8.2103   -1.7228   H         1 RES1   0.0000
   371 H205     -6.1050    9.3484   -0.3825   H         1 RES1   0.0000
   372 H206     -5.6575    7.5210    1.2133   H         1 RES1   0.0000
   373 H207     -5.5756    6.3623   -0.1141   H         1 RES1   0.0000
   374 H208     -7.9378    6.6632   -0.6094   H         1 RES1   0.0000
   375 H209     -8.0451    8.0510    0.4580   H         1 RES1   0.0000
   376 H210     -9.0420    5.9392    1.3930   H         1 RES1   0.0000
   377 H211     -7.8933    6.7712    2.4319   H         1 RES1   0.0000
   378 H212     -7.5232    4.4052    2.5830   H         1 RES1   0.0000
   379 H213     -6.1246    5.1853    1.8470   H         1 RES1   0.0000
   380 H214     -7.2846    4.5334   -0.4368   H         1 RES1   0.0000
   381 H215     -8.2027    3.4012    0.5502   H         1 RES1   0.0000
   382 H216     -6.0036    2.4476    1.3890   H         1 RES1   0.0000
   383 H217     -5.1625    3.5536    0.3000   H         1 RES1   0.0000
   384 H218     -6.6245    2.5188   -1.5814   H         1 RES1   0.0000
   385 H219     -7.0552    1.2830   -0.4302   H         1 RES1   0.0000
   386 H220     -5.3040    0.3938   -1.7213   H         1 RES1   0.0000
   387 H221     -4.6139    0.7267   -0.1142   H         1 RES1   0.0000
   388 H222     -5.1217    2.1651   -3.3053   H         1 RES1   0.0000
   389 H223     -3.4356    2.6129   -3.5488   H         1 RES1   0.0000
   390 H224     -3.8382    4.6647   -2.1202   H         1 RES1   0.0000
   391 H225     -5.5454    4.2806   -2.1286   H         1 RES1   0.0000
   392 H226     -5.5332    4.2941   -4.6307   H         1 RES1   0.0000
   393 H227     -3.8041    4.6284   -4.6052   H         1 RES1   0.0000
   394 H228     -4.4115    6.7245   -3.1884   H         1 RES1   0.0000
   395 H229     -6.0780    6.3974   -3.6339   H         1 RES1   0.0000
   396 H230     -5.6003    7.7898   -5.3921   H         1 RES1   0.0000
   397 H231     -4.8938    6.3536   -6.1194   H         1 RES1   0.0000
   398 H232     -3.4252    8.5015   -4.5180   H         1 RES1   0.0000
   399 H233     -3.4119    8.3244   -6.2673   H         1 RES1   0.0000
   400 H234     -2.3257    6.0975   -6.0367   H         1 RES1   0.0000
   401 H235     -2.2820    6.3082   -4.2799   H         1 RES1   0.0000
   402 H236     -0.8791    8.3182   -4.5269   H         1 RES1   0.0000
   403 H237     -0.9265    8.1629   -6.2780   H         1 RES1   0.0000
   404 H238      0.2442    6.0089   -6.1697   H         1 RES1   0.0000
   405 H239      0.1857    6.0289   -4.4048   H         1 RES1   0.0000
   406 H240      1.6693    8.0695   -6.1265   H         1 RES1   0.0000
   407 H241      2.4198    6.7379   -5.2582   H         1 RES1   0.0000
   408 H242      1.6369    8.0506   -4.3687   H         1 RES1   0.0000
   409 H243     -1.7941    3.4520   -2.0654   H         1 RES1   0.0000
   410 H244     -1.4947    2.5335   -4.1441   H         1 RES1   0.0000
   411 H245     -0.0533    1.8710   -3.4021   H         1 RES1   0.0000
   412 H246     -1.5379   -0.1952   -2.8257   H         1 RES1   0.0000
   413 H247     -0.8624    0.0322   -4.4370   H         1 RES1   0.0000
   414 H248     -3.7706    0.3231   -3.6964   H         1 RES1   0.0000
   415 H249     -3.0088   -0.6877   -4.9093   H         1 RES1   0.0000
   416 H250     -3.0883    1.0490   -5.1646   H         1 RES1   0.0000
   417 H251      1.2976    2.9277   -2.0163   H         1 RES1   0.0000
   418 H252      1.1351    5.2218   -1.7279   H         1 RES1   0.0000
   419 H253     -0.3937    4.6695   -2.2851   H         1 RES1   0.0000
   420 H254     -0.5086    6.4907   -0.5922   H         1 RES1   0.0000
   421 H255      0.1084    5.3963    0.6397   H         1 RES1   0.0000
   422 H256     -2.5428    5.1463   -0.8350   H         1 RES1   0.0000
   423 H257     -2.2833    5.5136    0.8563   H         1 RES1   0.0000
   424 H258     -1.8899    3.9070    0.2528   H         1 RES1   0.0000
   425 H259      2.4984    5.4737    1.5507   H         1 RES1   0.0000
   426 H260      2.0502    5.3293   -0.1394   H         1 RES1   0.0000
   427 H261      4.4198    4.4430   -0.5603   H         1 RES1   0.0000
   428 H262      4.8354    5.1148    1.0167   H         1 RES1   0.0000
   429 H263      5.1356    6.6313   -1.0755   H         1 RES1   0.0000
   430 H264      3.3956    6.8069   -1.0555   H         1 RES1   0.0000
   431 H265      3.8765    7.4471    1.5376   H         1 RES1   0.0000
   432 H266      4.0016    8.6373    0.2490   H         1 RES1   0.0000
   433 H267      6.3991    8.2968    0.0518   H         1 RES1   0.0000
   434 H268      6.3720    7.0151    1.2539   H         1 RES1   0.0000
   435 H269      5.7193    8.6405    3.0046   H         1 RES1   0.0000
   436 H270      5.5766    9.9133    1.7890   H         1 RES1   0.0000
   437 H271      7.9537    9.7680    1.2866   H         1 RES1   0.0000
   438 H272      8.1647    8.4025    2.3812   H         1 RES1   0.0000
   439 H273      7.1849   11.1434    3.2844   H         1 RES1   0.0000
   440 H274      8.8953   10.7145    3.2284   H         1 RES1   0.0000
   441 H275      6.8900    9.1197    4.8635   H         1 RES1   0.0000
   442 H276      7.7373   10.5207    5.4900   H         1 RES1   0.0000
   443 H277      9.1012    7.9909    4.4503   H         1 RES1   0.0000
   444 H278      8.9289    8.4699    6.1401   H         1 RES1   0.0000
   445 H279      9.9271    9.4275    5.0467   H         1 RES1   0.0000
   446 H280      3.7202    3.6795    2.4105   H         1 RES1   0.0000
   447 H281      3.8772    2.1922    1.4453   H         1 RES1   0.0000
   448 H282      2.2555    1.0676    2.6706   H         1 RES1   0.0000
   449 H283      1.3525    2.5198    3.0027   H         1 RES1   0.0000
   450 H284      3.7844    2.8050    4.4978   H         1 RES1   0.0000
   451 H285      3.2000    1.1655    4.7537   H         1 RES1   0.0000
   452 H286      0.8782    2.2080    5.1440   H         1 RES1   0.0000
   453 H287      1.7167    3.7610    5.2200   H         1 RES1   0.0000
   454 H288      3.0206    2.9098    7.1668   H         1 RES1   0.0000
   455 H289      1.9808    1.4979    7.2110   H         1 RES1   0.0000
   456 H290      1.0084    4.3824    7.4709   H         1 RES1   0.0000
   457 H291      1.3543    3.2986    8.8012   H         1 RES1   0.0000
   458 H292     -0.3790    1.7580    7.3693   H         1 RES1   0.0000
   459 H293     -1.0104    3.3512    6.9886   H         1 RES1   0.0000
   460 H294     -2.0676    3.4189    9.0125   H         1 RES1   0.0000
   461 H295     -0.5735    3.0595    9.8597   H         1 RES1   0.0000
   462 H296     -2.0891    1.3751   10.4637   H         1 RES1   0.0000
   463 H297     -0.9199    0.6219    9.3943   H         1 RES1   0.0000
   464 H298     -3.7926    1.4280    8.7011   H         1 RES1   0.0000
   465 H299     -3.1646   -0.2025    8.9112   H         1 RES1   0.0000
   466 H300     -2.6526    0.7560    7.5298   H         1 RES1   0.0000
@<TRIPOS>BOND
     1     1    24    1
     2     1    29    1
     3     1    35    1
     4     1   179    1
     5     1   184    1
     6     1   190    1
     7     1   334    1
     8     1   339    1
     9     1   345    1
    10     2     3    1
    11     2    57    1
    12     2    58    1
    13     2    59    1
    14     3     4    1
    15     3    60    1
    16     3    61    1
    17     4     5    1
    18     4    62    1
    19     4    63    1
    20     5     6    1
    21     5    64    1
    22     5    65    1
    23     6     7    1
    24     6    66    1
    25     6    67    1
    26     7     8    1
    27     7    68    1
    28     7    69    1
    29     8     9    1
    30     8    70    1
    31     8    71    1
    32     9    10    1
    33     9    72    1
    34     9    73    1
    35    10    11    1
    36    10    74    1
    37    10    75    1
    38    11    12    1
    39    11    76    1
    40    11    77    1
    41    12    13    1
    42    12    23    1
    43    13    14    1
    44    13    78    1
    45    13    79    1
    46    14    15    1
    47    14    80    1
    48    14    81    1
    49    15    16    1
    50    15    82    1
    51    15    83    1
    52    16    17    1
    53    16    84    1
    54    16    85    1
    55    17    18    1
    56    17    86    1
    57    17    87    1
    58    18    19    1
    59    18    88    1
    60    18    89    1
    61    19    20    1
    62    19    90    1
    63    19    91    1
    64    20    21    1
    65    20    92    1
    66    20    93    1
    67    21    22    1
    68    21    94    1
    69    21    95    1
    70    22    96    1
    71    22    97    1
    72    22    98    1
    73    23    24    2
    74    23    25    1
    75    25    26    1
    76    25    29    1
    77    25    99    1
    78    26    27    1
    79    26   100    1
    80    26   101    1
    81    27    28    1
    82    27   102    1
    83    27   103    1
    84    28   104    1
    85    28   105    1
    86    28   106    1
    87    29    30    1
    88    30    31    1
    89    30    34    1
    90    30   107    1
    91    31    32    1
    92    31   108    1
    93    31   109    1
    94    32    33    1
    95    32   110    1
    96    32   111    1
    97    33   112    1
    98    33   113    1
    99    33   114    1
   100    34    35    2
   101    34    36    1
   102    36    37    1
   103    36    47    1
   104    37    38    1
   105    37   115    1
   106    37   116    1
   107    38    39    1
   108    38   117    1
   109    38   118    1
   110    39    40    1
   111    39   119    1
   112    39   120    1
   113    40    41    1
   114    40   121    1
   115    40   122    1
   116    41    42    1
   117    41   123    1
   118    41   124    1
   119    42    43    1
   120    42   125    1
   121    42   126    1
   122    43    44    1
   123    43   127    1
   124    43   128    1
   125    44    45    1
   126    44   129    1
   127    44   130    1
   128    45    46    1
   129    45   131    1
   130    45   132    1
   131    46   133    1
   132    46   134    1
   133    46   135    1
   134    47    48    1
   135    47   136    1
   136    47   137    1
   137    48    49    1
   138    48   138    1
   139    48   139    1
   140    49    50    1
   141    49   140    1
   142    49   141    1
   143    50    51    1
   144    50   142    1
   145    50   143    1
   146    51    52    1
   147    51   144    1
   148    51   145    1
   149    52    53    1
   150    52   146    1
   151    52   147    1
   152    53    54    1
   153    53   148    1
   154    53   149    1
   155    54    55    1
   156    54   150    1
   157    54   151    1
   158    55    56    1
   159    55   152    1
   160    55   153    1
   161    56   154    1
   162    56   155    1
   163    56   156    1
   164   157   158    1
   165   157   212    1
   166   157   213    1
   167   157   214    1
   168   158   159    1
   169   158   215    1
   170   158   216    1
   171   159   160    1
   172   159   217    1
   173   159   218    1
   174   160   161    1
   175   160   219    1
   176   160   220    1
   177   161   162    1
   178   161   221    1
   179   161   222    1
   180   162   163    1
   181   162   223    1
   182   162   224    1
   183   163   164    1
   184   163   225    1
   185   163   226    1
   186   164   165    1
   187   164   227    1
   188   164   228    1
   189   165   166    1
   190   165   229    1
   191   165   230    1
   192   166   167    1
   193   166   231    1
   194   166   232    1
   195   167   168    1
   196   167   178    1
   197   168   169    1
   198   168   233    1
   199   168   234    1
   200   169   170    1
   201   169   235    1
   202   169   236    1
   203   170   171    1
   204   170   237    1
   205   170   238    1
   206   171   172    1
   207   171   239    1
   208   171   240    1
   209   172   173    1
   210   172   241    1
   211   172   242    1
   212   173   174    1
   213   173   243    1
   214   173   244    1
   215   174   175    1
   216   174   245    1
   217   174   246    1
   218   175   176    1
   219   175   247    1
   220   175   248    1
   221   176   177    1
   222   176   249    1
   223   176   250    1
   224   177   251    1
   225   177   252    1
   226   177   253    1
   227   178   179    2
   228   178   180    1
   229   180   181    1
   230   180   184    1
   231   180   254    1
   232   181   182    1
   233   181   255    1
   234   181   256    1
   235   182   183    1
   236   182   257    1
   237   182   258    1
   238   183   259    1
   239   183   260    1
   240   183   261    1
   241   184   185    1
   242   185   186    1
   243   185   189    1
   244   185   262    1
   245   186   187    1
   246   186   263    1
   247   186   264    1
   248   187   188    1
   249   187   265    1
   250   187   266    1
   251   188   267    1
   252   188   268    1
   253   188   269    1
   254   189   190    2
   255   189   191    1
   256   191   192    1
   257   191   202    1
   258   192   193    1
   259   192   270    1
   260   192   271    1
   261   193   194    1
   262   193   272    1
   263   193   273    1
   264   194   195    1
   265   194   274    1
   266   194   275    1
   267   195   196    1
   268   195   276    1
   269   195   277    1
   270   196   197    1
   271   196   278    1
   272   196   279    1
   273   197   198    1
   274   197   280    1
   275   197   281    1
   276   198   199    1
   277   198   282    1
   278   198   283    1
   279   199   200    1
   280   199   284    1
   281   199   285    1
   282   200   201    1
   283   200   286    1
   284   200   287    1
   285   201   288    1
   286   201   289    1
   287   201   290    1
   288   202   203    1
   289   202   291    1
   290   202   292    1
   291   203   204    1
   292   203   293    1
   293   203   294    1
   294   204   205    1
   295   204   295    1
   296   204   296    1
   297   205   206    1
   298   205   297    1
   299   205   298    1
   300   206   207    1
   301   206   299    1
   302   206   300    1
   303   207   208    1
   304   207   301    1
   305   207   302    1
   306   208   209    1
   307   208   303    1
   308   208   304    1
   309   209   210    1
   310   209   305    1
   311   209   306    1
   312   210   211    1
   313   210   307    1
   314   210   308    1
   315   211   309    1
   316   211   310    1
   317   211   311    1
   318   312   313    1
   319   312   367    1
   320   312   368    1
   321   312   369    1
   322   313   314    1
   323   313   370    1
   324   313   371    1
   325   314   315    1
   326   314   372    1
   327   314   373    1
   328   315   316    1
   329   315   374    1
   330   315   375    1
   331   316   317    1
   332   316   376    1
   333   316   377    1
   334   317   318    1
   335   317   378    1
   336   317   379    1
   337   318   319    1
   338   318   380    1
   339   318   381    1
   340   319   320    1
   341   319   382    1
   342   319   383    1
   343   320   321    1
   344   320   384    1
   345   320   385    1
   346   321   322    1
   347   321   386    1
   348   321   387    1
   349   322   323    1
   350   322   333    1
   351   323   324    1
   352   323   388    1
   353   323   389    1
   354   324   325    1
   355   324   390    1
   356   324   391    1
   357   325   326    1
   358   325   392    1
   359   325   393    1
   360   326   327    1
   361   326   394    1
   362   326   395    1
   363   327   328    1
   364   327   396    1
   365   327   397    1
   366   328   329    1
   367   328   398    1
   368   328   399    1
   369   329   330    1
   370   329   400    1
   371   329   401    1
   372   330   331    1
   373   330   402    1
   374   330   403    1
   375   331   332    1
   376   331   404    1
   377   331   405    1
   378   332   406    1
   379   332   407    1
   380   332   408    1
   381   333   334    2
   382   333   335    1
   383   335   336    1
   384   335   339    1
   385   335   409    1
   386   336   337    1
   387   336   410    1
   388   336   411    1
   389   337   338    1
   390   337   412    1
   391   337   413    1
   392   338   414    1
   393   338   415    1
   394   338   416    1
   395   339   340    1
   396   340   341    1
   397   340   344    1
   398   340   417    1
   399   341   342    1
   400   341   418    1
   401   341   419    1
   402   342   343    1
   403   342   420    1
   404   342   421    1
   405   343   422    1
   406   343   423    1
   407   343   424    1
   408   344   345    2
   409   344   346    1
   410   346   347    1
   411   346   357    1
   412   347   348    1
   413   347   425    1
   414   347   426    1
   415   348   349    1
   416   348   427    1
   417   348   428    1
   418   349   350    1
   419   349   429    1
   420   349   430    1
   421   350   351    1
   422   350   431    1
   423   350   432    1
   424   351   352    1
   425   351   433    1
   426   351   434    1
   427   352   353    1
   428   352   435    1
   429   352   436    1
   430   353   354    1
   431   353   437    1
   432   353   438    1
   433   354   355    1
   434   354   439    1
   435   354   440    1
   436   355   356    1
   437   355   441    1
   438   355   442    1
   439   356   443    1
   440   356   444    1
   441   356   445    1
   442   357   358    1
   443   357   446    1
   444   357   447    1
   445   358   359    1
   446   358   448    1
   447   358   449    1
   448   359   360    1
   449   359   450    1
   450   359   451    1
   451   360   361    1
   452   360   452    1
   453   360   453    1
   454   361   362    1
   455   361   454    1
   456   361   455    1
   457   362   363    1
   458   362   456    1
   459   362   457    1
   460   363   364    1
   461   363   458    1
   462   363   459    1
   463   364   365    1
   464   364   460    1
   465   364   461    1
   466   365   366    1
   467   365   462    1
   468   365   463    1
   469   366   464    1
   470   366   465    1
   471   366   466    1
@<TRIPOS>SUBSTRUCTURE
     1 RES1      466 GROUP             0 ****  ****    0  
