@<TRIPOS>MOLECULE
am_c3_9H2O_c0_0_nunpairedes_0_charge_3 Charge: 3 Unpaired_Electrons: 7 XTB_Unpaired_Electrons: 0 XTB_Charge: 3
   340   345     1     0     0
SMALL
NoCharges
****
Generated from Architector

@<TRIPOS>ATOM
     1 Gd1      -0.0606    0.2578   -0.1548   Gd        1 RES1   0.0000
     2 C1       -6.0606   -6.1284   -3.8688   C.3       1 RES1   0.0000
     3 C2       -5.6655   -5.8877   -5.3218   C.3       1 RES1   0.0000
     4 C3       -6.2856   -4.6292   -5.9320   C.3       1 RES1   0.0000
     5 C4       -5.8143   -3.3335   -5.2724   C.3       1 RES1   0.0000
     6 C5       -6.2061   -2.1052   -6.0952   C.3       1 RES1   0.0000
     7 C6       -6.0188   -0.7887   -5.3366   C.3       1 RES1   0.0000
     8 C7       -4.5500   -0.3957   -5.1300   C.3       1 RES1   0.0000
     9 C8       -4.4173    0.6921   -4.0565   C.3       1 RES1   0.0000
    10 N1       -3.0435    0.9091   -3.6158   N.am      1 RES1   0.0000
    11 C9       -2.1276    1.5136   -4.5913   C.3       1 RES1   0.0000
    12 C10      -2.6662    2.8281   -5.1660   C.3       1 RES1   0.0000
    13 C11      -1.5799    3.8197   -5.6063   C.3       1 RES1   0.0000
    14 C12      -1.0848    3.6864   -7.0475   C.3       1 RES1   0.0000
    15 C13      -0.3334    2.3931   -7.3585   C.3       1 RES1   0.0000
    16 C14       0.5007    2.5144   -8.6345   C.3       1 RES1   0.0000
    17 C15       1.1260    1.1915   -9.0773   C.3       1 RES1   0.0000
    18 C16       2.1461    0.6365   -8.0895   C.3       1 RES1   0.0000
    19 C17      -2.5826    0.6108   -2.4062   C.2       1 RES1   0.0000
    20 O1       -1.4094    0.8349   -2.0377   O.2       1 RES1   0.0000
    21 C18      -3.5452    0.0219   -1.3599   C.3       1 RES1   0.0000
    22 O2       -2.7427   -0.3681   -0.2477   O.3       1 RES1   0.0000
    23 C19      -3.3946   -0.4921    1.0121   C.3       1 RES1   0.0000
    24 C20      -2.6659    0.4295    1.9767   C.2       1 RES1   0.0000
    25 O3       -1.4464    0.6115    1.7799   O.2       1 RES1   0.0000
    26 N2       -3.3718    1.0432    2.9178   N.am      1 RES1   0.0000
    27 C21      -2.8724    2.3267    3.3805   C.3       1 RES1   0.0000
    28 C22      -3.6748    3.4631    2.7264   C.3       1 RES1   0.0000
    29 C23      -4.0167    3.2634    1.2460   C.3       1 RES1   0.0000
    30 C24      -2.8176    3.1503    0.2899   C.3       1 RES1   0.0000
    31 C25      -2.9169    4.0883   -0.9203   C.3       1 RES1   0.0000
    32 C26      -1.6697    4.0109   -1.8165   C.3       1 RES1   0.0000
    33 C27      -0.6331    5.1001   -1.5467   C.3       1 RES1   0.0000
    34 C28       0.6932    4.7971   -2.2269   C.3       1 RES1   0.0000
    35 C29      -4.7207    0.6709    3.3260   C.3       1 RES1   0.0000
    36 C30      -4.8122   -0.7235    3.9554   C.3       1 RES1   0.0000
    37 C31      -3.8976   -0.8757    5.1727   C.3       1 RES1   0.0000
    38 C32      -4.1329   -2.2007    5.9053   C.3       1 RES1   0.0000
    39 C33      -3.5278   -3.4408    5.2422   C.3       1 RES1   0.0000
    40 C34      -2.0295   -3.5944    5.5037   C.3       1 RES1   0.0000
    41 C35      -1.5009   -5.0074    5.2336   C.3       1 RES1   0.0000
    42 C36      -1.6376   -5.4825    3.7886   C.3       1 RES1   0.0000
    43 H1       -5.6970   -7.0972   -3.5348   H         1 RES1   0.0000
    44 H2       -7.1416   -6.1164   -3.7556   H         1 RES1   0.0000
    45 H3       -5.6390   -5.3645   -3.2179   H         1 RES1   0.0000
    46 H4       -5.9826   -6.7460   -5.9142   H         1 RES1   0.0000
    47 H5       -4.5759   -5.8272   -5.3984   H         1 RES1   0.0000
    48 H6       -7.3733   -4.6927   -5.8688   H         1 RES1   0.0000
    49 H7       -6.0195   -4.5954   -6.9900   H         1 RES1   0.0000
    50 H8       -4.7289   -3.3745   -5.1618   H         1 RES1   0.0000
    51 H9       -6.2520   -3.2513   -4.2751   H         1 RES1   0.0000
    52 H10      -7.2606   -2.1943   -6.3560   H         1 RES1   0.0000
    53 H11      -5.6386   -2.0853   -7.0268   H         1 RES1   0.0000
    54 H12      -6.5079   -0.8894   -4.3652   H         1 RES1   0.0000
    55 H13      -6.5323    0.0127   -5.8701   H         1 RES1   0.0000
    56 H14      -4.1375   -0.0437   -6.0748   H         1 RES1   0.0000
    57 H15      -3.9735   -1.2653   -4.8144   H         1 RES1   0.0000
    58 H16      -5.0409    0.4142   -3.2076   H         1 RES1   0.0000
    59 H17      -4.8049    1.6328   -4.4544   H         1 RES1   0.0000
    60 H18      -1.9379    0.7968   -5.3922   H         1 RES1   0.0000
    61 H19      -1.1936    1.6895   -4.0583   H         1 RES1   0.0000
    62 H20      -3.2620    3.3054   -4.3859   H         1 RES1   0.0000
    63 H21      -3.3220    2.6339   -6.0126   H         1 RES1   0.0000
    64 H22      -0.7301    3.7576   -4.9273   H         1 RES1   0.0000
    65 H23      -1.9949    4.8232   -5.5097   H         1 RES1   0.0000
    66 H24      -0.4146    4.5278   -7.2391   H         1 RES1   0.0000
    67 H25      -1.9275    3.7902   -7.7317   H         1 RES1   0.0000
    68 H26      -1.0368    1.5643   -7.4706   H         1 RES1   0.0000
    69 H27       0.3311    2.1658   -6.5287   H         1 RES1   0.0000
    70 H28       1.2940    3.2477   -8.4765   H         1 RES1   0.0000
    71 H29      -0.1379    2.8885   -9.4362   H         1 RES1   0.0000
    72 H30       1.6187    1.3514  -10.0366   H         1 RES1   0.0000
    73 H31       0.3343    0.4574   -9.2335   H         1 RES1   0.0000
    74 H32       2.8890    1.3942   -7.8526   H         1 RES1   0.0000
    75 H33       2.6543   -0.2215   -8.5219   H         1 RES1   0.0000
    76 H34       1.6686    0.3155   -7.1661   H         1 RES1   0.0000
    77 H35      -4.1000   -0.8424   -1.7418   H         1 RES1   0.0000
    78 H36      -4.2660    0.7993   -1.0807   H         1 RES1   0.0000
    79 H37      -4.4495   -0.2177    0.9577   H         1 RES1   0.0000
    80 H38      -3.2928   -1.5239    1.3658   H         1 RES1   0.0000
    81 H39      -1.8289    2.3697    3.0777   H         1 RES1   0.0000
    82 H40      -2.9430    2.3874    4.4675   H         1 RES1   0.0000
    83 H41      -3.1099    4.3863    2.8471   H         1 RES1   0.0000
    84 H42      -4.6159    3.5984    3.2600   H         1 RES1   0.0000
    85 H43      -4.6178    4.1162    0.9335   H         1 RES1   0.0000
    86 H44      -4.6534    2.3844    1.1417   H         1 RES1   0.0000
    87 H45      -2.6975    2.1253   -0.0846   H         1 RES1   0.0000
    88 H46      -1.9029    3.3586    0.8248   H         1 RES1   0.0000
    89 H47      -3.0383    5.1138   -0.5674   H         1 RES1   0.0000
    90 H48      -3.8111    3.8268   -1.4988   H         1 RES1   0.0000
    91 H49      -1.9635    4.0866   -2.8621   H         1 RES1   0.0000
    92 H50      -1.1904    3.0334   -1.6735   H         1 RES1   0.0000
    93 H51      -0.4543    5.1782   -0.4797   H         1 RES1   0.0000
    94 H52      -1.0117    6.0611   -1.8973   H         1 RES1   0.0000
    95 H53       1.0529    3.8182   -1.9081   H         1 RES1   0.0000
    96 H54       1.4359    5.5468   -1.9723   H         1 RES1   0.0000
    97 H55       0.5862    4.8016   -3.3095   H         1 RES1   0.0000
    98 H56      -5.4308    0.7425    2.4971   H         1 RES1   0.0000
    99 H57      -5.0296    1.4024    4.0713   H         1 RES1   0.0000
   100 H58      -4.5935   -1.4996    3.2188   H         1 RES1   0.0000
   101 H59      -5.8469   -0.8674    4.2784   H         1 RES1   0.0000
   102 H60      -4.1249   -0.0577    5.8616   H         1 RES1   0.0000
   103 H61      -2.8502   -0.7888    4.8693   H         1 RES1   0.0000
   104 H62      -5.2104   -2.3425    5.9986   H         1 RES1   0.0000
   105 H63      -3.7347   -2.1211    6.9175   H         1 RES1   0.0000
   106 H64      -3.7218   -3.4264    4.1687   H         1 RES1   0.0000
   107 H65      -4.0331   -4.3152    5.6518   H         1 RES1   0.0000
   108 H66      -1.8393   -3.3754    6.5561   H         1 RES1   0.0000
   109 H67      -1.4616   -2.8674    4.9093   H         1 RES1   0.0000
   110 H68      -2.0310   -5.7098    5.8788   H         1 RES1   0.0000
   111 H69      -0.4450   -5.0433    5.5184   H         1 RES1   0.0000
   112 H70      -1.1397   -6.4433    3.6697   H         1 RES1   0.0000
   113 H71      -1.1786   -4.7735    3.1006   H         1 RES1   0.0000
   114 H72      -2.6821   -5.6108    3.5140   H         1 RES1   0.0000
   115 C37      -0.4369   -0.7109    7.8776   C.3       1 RES1   0.0000
   116 C38      -1.1612    0.6031    7.6146   C.3       1 RES1   0.0000
   117 C39      -0.3552    1.6227    6.8067   C.3       1 RES1   0.0000
   118 C40       0.0990    1.1100    5.4370   C.3       1 RES1   0.0000
   119 C41       0.5259    2.2533    4.5085   C.3       1 RES1   0.0000
   120 C42       1.9100    2.8463    4.8024   C.3       1 RES1   0.0000
   121 C43       2.0837    4.3057    4.3541   C.3       1 RES1   0.0000
   122 C44       2.3710    4.5153    2.8607   C.3       1 RES1   0.0000
   123 N3        1.2888    4.0678    2.0030   N.am      1 RES1   0.0000
   124 C45      -0.0319    4.6838    2.1680   C.3       1 RES1   0.0000
   125 C46      -0.1505    6.1934    2.4107   C.3       1 RES1   0.0000
   126 C47      -1.2561    6.8132    1.5308   C.3       1 RES1   0.0000
   127 C48      -2.0288    7.9437    2.2269   C.3       1 RES1   0.0000
   128 C49      -3.3748    7.4786    2.7890   C.3       1 RES1   0.0000
   129 C50      -4.4230    7.2473    1.7027   C.3       1 RES1   0.0000
   130 C51      -5.7512    6.7521    2.2735   C.3       1 RES1   0.0000
   131 C52      -6.7250    6.3176    1.1799   C.3       1 RES1   0.0000
   132 C53       1.3474    3.0177    1.1948   C.2       1 RES1   0.0000
   133 O4        0.3407    2.5466    0.6211   O.2       1 RES1   0.0000
   134 C54       2.6875    2.3332    0.8897   C.3       1 RES1   0.0000
   135 O5        2.3505    1.3046   -0.0279   O.3       1 RES1   0.0000
   136 C55       3.3785    0.3703   -0.3235   C.3       1 RES1   0.0000
   137 C56       2.7180   -0.6266   -1.2934   C.2       1 RES1   0.0000
   138 O6        1.5440   -0.3628   -1.6337   O.2       1 RES1   0.0000
   139 N4        3.3766   -1.6584   -1.8071   N.am      1 RES1   0.0000
   140 C57       2.8969   -2.2110   -3.0703   C.3       1 RES1   0.0000
   141 C58       3.2029   -1.2436   -4.2139   C.3       1 RES1   0.0000
   142 C59       4.6954   -1.0431   -4.5229   C.3       1 RES1   0.0000
   143 C60       5.4967   -0.0470   -3.6651   C.3       1 RES1   0.0000
   144 C61       5.3711    1.4496   -3.9926   C.3       1 RES1   0.0000
   145 C62       4.0700    2.1408   -3.5634   C.3       1 RES1   0.0000
   146 C63       2.9782    2.0754   -4.6377   C.3       1 RES1   0.0000
   147 C64       1.5637    1.8831   -4.0819   C.3       1 RES1   0.0000
   148 C65       4.5061   -2.3418   -1.2142   C.3       1 RES1   0.0000
   149 C66       4.0962   -3.6475   -0.4991   C.3       1 RES1   0.0000
   150 C67       3.9443   -4.8669   -1.4152   C.3       1 RES1   0.0000
   151 C68       3.9565   -6.1972   -0.6505   C.3       1 RES1   0.0000
   152 C69       2.5919   -6.6137   -0.0941   C.3       1 RES1   0.0000
   153 C70       1.6620   -7.1453   -1.1875   C.3       1 RES1   0.0000
   154 C71       0.4091   -7.8470   -0.6579   C.3       1 RES1   0.0000
   155 C72      -0.6151   -6.9086   -0.0284   C.3       1 RES1   0.0000
   156 H73      -1.0647   -1.3622    8.4801   H         1 RES1   0.0000
   157 H74       0.4904   -0.5482    8.4199   H         1 RES1   0.0000
   158 H75      -0.2155   -1.2221    6.9431   H         1 RES1   0.0000
   159 H76      -1.4233    1.0561    8.5730   H         1 RES1   0.0000
   160 H77      -2.0903    0.3906    7.0805   H         1 RES1   0.0000
   161 H78       0.5027    1.9463    7.3954   H         1 RES1   0.0000
   162 H79      -0.9915    2.4989    6.6552   H         1 RES1   0.0000
   163 H80      -0.7429    0.5881    4.9703   H         1 RES1   0.0000
   164 H81       0.9109    0.3921    5.5495   H         1 RES1   0.0000
   165 H82      -0.2123    3.0459    4.6449   H         1 RES1   0.0000
   166 H83       0.4810    1.9022    3.4720   H         1 RES1   0.0000
   167 H84       2.6913    2.2346    4.3421   H         1 RES1   0.0000
   168 H85       2.0661    2.8213    5.8810   H         1 RES1   0.0000
   169 H86       2.9323    4.7306    4.8937   H         1 RES1   0.0000
   170 H87       1.2047    4.8812    4.6446   H         1 RES1   0.0000
   171 H88       3.2858    3.9931    2.5883   H         1 RES1   0.0000
   172 H89       2.5291    5.5826    2.6875   H         1 RES1   0.0000
   173 H90      -0.5414    4.1539    2.9738   H         1 RES1   0.0000
   174 H91      -0.5473    4.4487    1.2415   H         1 RES1   0.0000
   175 H92       0.7841    6.7068    2.1999   H         1 RES1   0.0000
   176 H93      -0.3919    6.3686    3.4602   H         1 RES1   0.0000
   177 H94      -1.9792    6.0443    1.2551   H         1 RES1   0.0000
   178 H95      -0.8073    7.1825    0.6083   H         1 RES1   0.0000
   179 H96      -2.2077    8.7583    1.5264   H         1 RES1   0.0000
   180 H97      -1.4191    8.3423    3.0356   H         1 RES1   0.0000
   181 H98      -3.7609    8.2287    3.4787   H         1 RES1   0.0000
   182 H99      -3.2331    6.5583    3.3623   H         1 RES1   0.0000
   183 H100     -4.0615    6.5169    0.9748   H         1 RES1   0.0000
   184 H101     -4.5907    8.1802    1.1637   H         1 RES1   0.0000
   185 H102     -6.2064    7.5448    2.8696   H         1 RES1   0.0000
   186 H103     -5.5652    5.9049    2.9420   H         1 RES1   0.0000
   187 H104     -6.9401    7.1431    0.5057   H         1 RES1   0.0000
   188 H105     -7.6629    5.9748    1.6141   H         1 RES1   0.0000
   189 H106     -6.3054    5.5003    0.5909   H         1 RES1   0.0000
   190 H107      3.1532    1.9192    1.7951   H         1 RES1   0.0000
   191 H108      3.3795    3.0499    0.4238   H         1 RES1   0.0000
   192 H109      3.7288   -0.1165    0.5903   H         1 RES1   0.0000
   193 H110      4.2279    0.8877   -0.7966   H         1 RES1   0.0000
   194 H111      1.8198   -2.3838   -3.0035   H         1 RES1   0.0000
   195 H112      3.4023   -3.1552   -3.2357   H         1 RES1   0.0000
   196 H113      2.7303   -0.3011   -3.9690   H         1 RES1   0.0000
   197 H114      2.7287   -1.6485   -5.1100   H         1 RES1   0.0000
   198 H115      4.7932   -0.7204   -5.5597   H         1 RES1   0.0000
   199 H116      5.1847   -2.0183   -4.4541   H         1 RES1   0.0000
   200 H117      6.5508   -0.2958   -3.8163   H         1 RES1   0.0000
   201 H118      5.2874   -0.1975   -2.6045   H         1 RES1   0.0000
   202 H119      5.5174    1.6008   -5.0623   H         1 RES1   0.0000
   203 H120      6.2028    1.9440   -3.4853   H         1 RES1   0.0000
   204 H121      4.2855    3.1857   -3.3267   H         1 RES1   0.0000
   205 H122      3.6937    1.6785   -2.6495   H         1 RES1   0.0000
   206 H123      3.2118    1.2556   -5.3131   H         1 RES1   0.0000
   207 H124      2.9977    2.9895   -5.2313   H         1 RES1   0.0000
   208 H125      1.5470    1.3548   -3.1256   H         1 RES1   0.0000
   209 H126      0.9647    1.3073   -4.7835   H         1 RES1   0.0000
   210 H127      1.0832    2.8415   -3.9277   H         1 RES1   0.0000
   211 H128      4.9908   -1.6769   -0.5049   H         1 RES1   0.0000
   212 H129      5.2244   -2.5817   -2.0010   H         1 RES1   0.0000
   213 H130      3.1830   -3.4811    0.0817   H         1 RES1   0.0000
   214 H131      4.9004   -3.8930    0.1986   H         1 RES1   0.0000
   215 H132      4.7903   -4.8624   -2.1047   H         1 RES1   0.0000
   216 H133      3.0229   -4.8158   -1.9941   H         1 RES1   0.0000
   217 H134      4.6822   -6.1356    0.1619   H         1 RES1   0.0000
   218 H135      4.2994   -6.9822   -1.3262   H         1 RES1   0.0000
   219 H136      2.1277   -5.7694    0.4231   H         1 RES1   0.0000
   220 H137      2.7445   -7.4061    0.6404   H         1 RES1   0.0000
   221 H138      2.2180   -7.8714   -1.7837   H         1 RES1   0.0000
   222 H139      1.3652   -6.3329   -1.8551   H         1 RES1   0.0000
   223 H140      0.7020   -8.6008    0.0750   H         1 RES1   0.0000
   224 H141     -0.0716   -8.3674   -1.4888   H         1 RES1   0.0000
   225 H142     -0.2051   -6.4127    0.8504   H         1 RES1   0.0000
   226 H143     -1.4874   -7.4778    0.2839   H         1 RES1   0.0000
   227 H144     -0.9369   -6.1581   -0.7511   H         1 RES1   0.0000
   228 C73       2.4298    1.9959   10.0344   C.3       1 RES1   0.0000
   229 C74       3.8021    1.3509    9.8635   C.3       1 RES1   0.0000
   230 C75       3.8182    0.1801    8.8753   C.3       1 RES1   0.0000
   231 C76       3.2894    0.5821    7.4998   C.3       1 RES1   0.0000
   232 C77       3.6772   -0.3516    6.3487   C.3       1 RES1   0.0000
   233 C78       3.0982   -1.7670    6.4595   C.3       1 RES1   0.0000
   234 C79       3.6131   -2.7807    5.4195   C.3       1 RES1   0.0000
   235 C80       2.7880   -2.9851    4.1354   C.3       1 RES1   0.0000
   236 N5        2.7568   -1.8733    3.1831   N.am      1 RES1   0.0000
   237 C81       3.9888   -1.0888    3.0587   C.3       1 RES1   0.0000
   238 C82       5.1598   -1.8869    2.4662   C.3       1 RES1   0.0000
   239 C83       6.2699   -1.0561    1.8024   C.3       1 RES1   0.0000
   240 C84       7.1459   -0.2035    2.7221   C.3       1 RES1   0.0000
   241 C85       6.5909    1.1708    3.0970   C.3       1 RES1   0.0000
   242 C86       6.4540    2.1224    1.9064   C.3       1 RES1   0.0000
   243 C87       6.1741    3.5553    2.3590   C.3       1 RES1   0.0000
   244 C88       5.9834    4.5127    1.1878   C.3       1 RES1   0.0000
   245 C89       1.7097   -1.6052    2.3994   C.2       1 RES1   0.0000
   246 O7        1.6373   -0.6011    1.6632   O.2       1 RES1   0.0000
   247 C90       0.5244   -2.5891    2.3154   C.3       1 RES1   0.0000
   248 O8       -0.2004   -2.2208    1.1360   O.3       1 RES1   0.0000
   249 C91      -1.0999   -3.2078    0.6409   C.3       1 RES1   0.0000
   250 C92      -1.5070   -2.7503   -0.7781   C.2       1 RES1   0.0000
   251 O9       -0.8304   -1.8372   -1.2711   O.2       1 RES1   0.0000
   252 N6       -2.4968   -3.3799   -1.4166   N.am      1 RES1   0.0000
   253 C93      -2.7082   -3.2109   -2.8589   C.3       1 RES1   0.0000
   254 C94      -1.4516   -2.9700   -3.6935   C.3       1 RES1   0.0000
   255 C95      -1.5314   -3.6958   -5.0427   C.3       1 RES1   0.0000
   256 C96      -1.2888   -5.2047   -4.9346   C.3       1 RES1   0.0000
   257 C97       0.0979   -5.5824   -4.4065   C.3       1 RES1   0.0000
   258 C98       1.2585   -4.9090   -5.1397   C.3       1 RES1   0.0000
   259 C99       1.3051   -5.2674   -6.6236   C.3       1 RES1   0.0000
   260 C100      2.3833   -4.4965   -7.3741   C.3       1 RES1   0.0000
   261 C101     -3.4590   -4.2777   -0.7789   C.3       1 RES1   0.0000
   262 C102     -4.7121   -3.6110   -0.1712   C.3       1 RES1   0.0000
   263 C103     -5.8208   -3.1352   -1.1238   C.3       1 RES1   0.0000
   264 C104     -7.0096   -2.5184   -0.3522   C.3       1 RES1   0.0000
   265 C105     -7.0650   -0.9845   -0.2546   C.3       1 RES1   0.0000
   266 C106     -7.5940   -0.2790   -1.5068   C.3       1 RES1   0.0000
   267 C107     -7.9279    1.2050   -1.2986   C.3       1 RES1   0.0000
   268 C108     -6.7331    2.1346   -1.1155   C.3       1 RES1   0.0000
   269 H145      2.4584    2.7107   10.8523   H         1 RES1   0.0000
   270 H146      1.6727    1.2484   10.2625   H         1 RES1   0.0000
   271 H147      2.1327    2.5345    9.1366   H         1 RES1   0.0000
   272 H148      4.1446    0.9857   10.8335   H         1 RES1   0.0000
   273 H149      4.5122    2.1106    9.5288   H         1 RES1   0.0000
   274 H150      3.2200   -0.6350    9.2869   H         1 RES1   0.0000
   275 H151      4.8470   -0.1741    8.7785   H         1 RES1   0.0000
   276 H152      3.6878    1.5722    7.2613   H         1 RES1   0.0000
   277 H153      2.2042    0.6548    7.5386   H         1 RES1   0.0000
   278 H154      4.7687   -0.4138    6.3104   H         1 RES1   0.0000
   279 H155      3.3175    0.1285    5.4341   H         1 RES1   0.0000
   280 H156      2.0073   -1.7258    6.4259   H         1 RES1   0.0000
   281 H157      3.3766   -2.1506    7.4419   H         1 RES1   0.0000
   282 H158      3.6110   -3.7624    5.8996   H         1 RES1   0.0000
   283 H159      4.6549   -2.5669    5.1850   H         1 RES1   0.0000
   284 H160      1.7635   -3.2142    4.4311   H         1 RES1   0.0000
   285 H161      3.2132   -3.8588    3.6286   H         1 RES1   0.0000
   286 H162      4.2714   -0.7308    4.0418   H         1 RES1   0.0000
   287 H163      3.7577   -0.2295    2.4324   H         1 RES1   0.0000
   288 H164      4.7566   -2.5631    1.7150   H         1 RES1   0.0000
   289 H165      5.6174   -2.5022    3.2424   H         1 RES1   0.0000
   290 H166      5.8643   -0.4162    1.0196   H         1 RES1   0.0000
   291 H167      6.9268   -1.7696    1.3016   H         1 RES1   0.0000
   292 H168      8.0962   -0.0399    2.2116   H         1 RES1   0.0000
   293 H169      7.3609   -0.7648    3.6302   H         1 RES1   0.0000
   294 H170      7.2837    1.6211    3.8096   H         1 RES1   0.0000
   295 H171      5.6279    1.0799    3.6034   H         1 RES1   0.0000
   296 H172      5.6435    1.7909    1.2492   H         1 RES1   0.0000
   297 H173      7.3755    2.1094    1.3212   H         1 RES1   0.0000
   298 H174      7.0074    3.9059    2.9688   H         1 RES1   0.0000
   299 H175      5.2867    3.5600    2.9998   H         1 RES1   0.0000
   300 H176      6.9011    4.5968    0.6134   H         1 RES1   0.0000
   301 H177      5.7190    5.5029    1.5470   H         1 RES1   0.0000
   302 H178      5.1978    4.1707    0.5143   H         1 RES1   0.0000
   303 H179     -0.1324   -2.4874    3.1985   H         1 RES1   0.0000
   304 H180      0.8751   -3.6276    2.2502   H         1 RES1   0.0000
   305 H181     -1.9514   -3.3286    1.3214   H         1 RES1   0.0000
   306 H182     -0.5850   -4.1749    0.5366   H         1 RES1   0.0000
   307 H183     -3.4330   -2.4134   -3.0282   H         1 RES1   0.0000
   308 H184     -3.1621   -4.1409   -3.1994   H         1 RES1   0.0000
   309 H185     -0.5824   -3.3406   -3.1540   H         1 RES1   0.0000
   310 H186     -1.2986   -1.9014   -3.8505   H         1 RES1   0.0000
   311 H187     -0.7864   -3.2695   -5.7144   H         1 RES1   0.0000
   312 H188     -2.5053   -3.5240   -5.5086   H         1 RES1   0.0000
   313 H189     -1.4214   -5.6402   -5.9248   H         1 RES1   0.0000
   314 H190     -2.0383   -5.6686   -4.2867   H         1 RES1   0.0000
   315 H191      0.2113   -6.6642   -4.4925   H         1 RES1   0.0000
   316 H192      0.1579   -5.3338   -3.3426   H         1 RES1   0.0000
   317 H193      2.1980   -5.2214   -4.6745   H         1 RES1   0.0000
   318 H194      1.1851   -3.8238   -5.0301   H         1 RES1   0.0000
   319 H195      0.3418   -5.0464   -7.0829   H         1 RES1   0.0000
   320 H196      1.4796   -6.3393   -6.7277   H         1 RES1   0.0000
   321 H197      2.1660   -3.4298   -7.3685   H         1 RES1   0.0000
   322 H198      2.4216   -4.8257   -8.4084   H         1 RES1   0.0000
   323 H199      3.3624   -4.6524   -6.9277   H         1 RES1   0.0000
   324 H200     -2.9536   -4.8385    0.0073   H         1 RES1   0.0000
   325 H201     -3.7854   -4.9983   -1.5301   H         1 RES1   0.0000
   326 H202     -4.4086   -2.7817    0.4641   H         1 RES1   0.0000
   327 H203     -5.1676   -4.3692    0.4710   H         1 RES1   0.0000
   328 H204     -6.1821   -4.0062   -1.6711   H         1 RES1   0.0000
   329 H205     -5.4523   -2.4203   -1.8608   H         1 RES1   0.0000
   330 H206     -6.9922   -2.9223    0.6616   H         1 RES1   0.0000
   331 H207     -7.9417   -2.8532   -0.8084   H         1 RES1   0.0000
   332 H208     -6.0791   -0.5962    0.0058   H         1 RES1   0.0000
   333 H209     -7.7390   -0.7313    0.5658   H         1 RES1   0.0000
   334 H210     -8.5188   -0.7742   -1.8062   H         1 RES1   0.0000
   335 H211     -6.8860   -0.3852   -2.3331   H         1 RES1   0.0000
   336 H212     -8.5806    1.3053   -0.4288   H         1 RES1   0.0000
   337 H213     -8.4903    1.5534   -2.1655   H         1 RES1   0.0000
   338 H214     -6.1358    1.8360   -0.2574   H         1 RES1   0.0000
   339 H215     -7.0870    3.1466   -0.9342   H         1 RES1   0.0000
   340 H216     -6.1024    2.1603   -2.0029   H         1 RES1   0.0000
@<TRIPOS>BOND
     1     1    20    1
     2     1    22    1
     3     1    25    1
     4     1   133    1
     5     1   135    1
     6     1   138    1
     7     1   246    1
     8     1   248    1
     9     1   251    1
    10     2     3    1
    11     2    43    1
    12     2    44    1
    13     2    45    1
    14     3     4    1
    15     3    46    1
    16     3    47    1
    17     4     5    1
    18     4    48    1
    19     4    49    1
    20     5     6    1
    21     5    50    1
    22     5    51    1
    23     6     7    1
    24     6    52    1
    25     6    53    1
    26     7     8    1
    27     7    54    1
    28     7    55    1
    29     8     9    1
    30     8    56    1
    31     8    57    1
    32     9    10    1
    33     9    58    1
    34     9    59    1
    35    10    11    1
    36    10    19    1
    37    11    12    1
    38    11    60    1
    39    11    61    1
    40    12    13    1
    41    12    62    1
    42    12    63    1
    43    13    14    1
    44    13    64    1
    45    13    65    1
    46    14    15    1
    47    14    66    1
    48    14    67    1
    49    15    16    1
    50    15    68    1
    51    15    69    1
    52    16    17    1
    53    16    70    1
    54    16    71    1
    55    17    18    1
    56    17    72    1
    57    17    73    1
    58    18    74    1
    59    18    75    1
    60    18    76    1
    61    19    20    2
    62    19    21    1
    63    21    22    1
    64    21    77    1
    65    21    78    1
    66    22    23    1
    67    23    24    1
    68    23    79    1
    69    23    80    1
    70    24    25    2
    71    24    26    1
    72    26    27    1
    73    26    35    1
    74    27    28    1
    75    27    81    1
    76    27    82    1
    77    28    29    1
    78    28    83    1
    79    28    84    1
    80    29    30    1
    81    29    85    1
    82    29    86    1
    83    30    31    1
    84    30    87    1
    85    30    88    1
    86    31    32    1
    87    31    89    1
    88    31    90    1
    89    32    33    1
    90    32    91    1
    91    32    92    1
    92    33    34    1
    93    33    93    1
    94    33    94    1
    95    34    95    1
    96    34    96    1
    97    34    97    1
    98    35    36    1
    99    35    98    1
   100    35    99    1
   101    36    37    1
   102    36   100    1
   103    36   101    1
   104    37    38    1
   105    37   102    1
   106    37   103    1
   107    38    39    1
   108    38   104    1
   109    38   105    1
   110    39    40    1
   111    39   106    1
   112    39   107    1
   113    40    41    1
   114    40   108    1
   115    40   109    1
   116    41    42    1
   117    41   110    1
   118    41   111    1
   119    42   112    1
   120    42   113    1
   121    42   114    1
   122   115   116    1
   123   115   156    1
   124   115   157    1
   125   115   158    1
   126   116   117    1
   127   116   159    1
   128   116   160    1
   129   117   118    1
   130   117   161    1
   131   117   162    1
   132   118   119    1
   133   118   163    1
   134   118   164    1
   135   119   120    1
   136   119   165    1
   137   119   166    1
   138   120   121    1
   139   120   167    1
   140   120   168    1
   141   121   122    1
   142   121   169    1
   143   121   170    1
   144   122   123    1
   145   122   171    1
   146   122   172    1
   147   123   124    1
   148   123   132    1
   149   124   125    1
   150   124   173    1
   151   124   174    1
   152   125   126    1
   153   125   175    1
   154   125   176    1
   155   126   127    1
   156   126   177    1
   157   126   178    1
   158   127   128    1
   159   127   179    1
   160   127   180    1
   161   128   129    1
   162   128   181    1
   163   128   182    1
   164   129   130    1
   165   129   183    1
   166   129   184    1
   167   130   131    1
   168   130   185    1
   169   130   186    1
   170   131   187    1
   171   131   188    1
   172   131   189    1
   173   132   133    2
   174   132   134    1
   175   134   135    1
   176   134   190    1
   177   134   191    1
   178   135   136    1
   179   136   137    1
   180   136   192    1
   181   136   193    1
   182   137   138    2
   183   137   139    1
   184   139   140    1
   185   139   148    1
   186   140   141    1
   187   140   194    1
   188   140   195    1
   189   141   142    1
   190   141   196    1
   191   141   197    1
   192   142   143    1
   193   142   198    1
   194   142   199    1
   195   143   144    1
   196   143   200    1
   197   143   201    1
   198   144   145    1
   199   144   202    1
   200   144   203    1
   201   145   146    1
   202   145   204    1
   203   145   205    1
   204   146   147    1
   205   146   206    1
   206   146   207    1
   207   147   208    1
   208   147   209    1
   209   147   210    1
   210   148   149    1
   211   148   211    1
   212   148   212    1
   213   149   150    1
   214   149   213    1
   215   149   214    1
   216   150   151    1
   217   150   215    1
   218   150   216    1
   219   151   152    1
   220   151   217    1
   221   151   218    1
   222   152   153    1
   223   152   219    1
   224   152   220    1
   225   153   154    1
   226   153   221    1
   227   153   222    1
   228   154   155    1
   229   154   223    1
   230   154   224    1
   231   155   225    1
   232   155   226    1
   233   155   227    1
   234   228   229    1
   235   228   269    1
   236   228   270    1
   237   228   271    1
   238   229   230    1
   239   229   272    1
   240   229   273    1
   241   230   231    1
   242   230   274    1
   243   230   275    1
   244   231   232    1
   245   231   276    1
   246   231   277    1
   247   232   233    1
   248   232   278    1
   249   232   279    1
   250   233   234    1
   251   233   280    1
   252   233   281    1
   253   234   235    1
   254   234   282    1
   255   234   283    1
   256   235   236    1
   257   235   284    1
   258   235   285    1
   259   236   237    1
   260   236   245    1
   261   237   238    1
   262   237   286    1
   263   237   287    1
   264   238   239    1
   265   238   288    1
   266   238   289    1
   267   239   240    1
   268   239   290    1
   269   239   291    1
   270   240   241    1
   271   240   292    1
   272   240   293    1
   273   241   242    1
   274   241   294    1
   275   241   295    1
   276   242   243    1
   277   242   296    1
   278   242   297    1
   279   243   244    1
   280   243   298    1
   281   243   299    1
   282   244   300    1
   283   244   301    1
   284   244   302    1
   285   245   246    2
   286   245   247    1
   287   247   248    1
   288   247   303    1
   289   247   304    1
   290   248   249    1
   291   249   250    1
   292   249   305    1
   293   249   306    1
   294   250   251    2
   295   250   252    1
   296   252   253    1
   297   252   261    1
   298   253   254    1
   299   253   307    1
   300   253   308    1
   301   254   255    1
   302   254   309    1
   303   254   310    1
   304   255   256    1
   305   255   311    1
   306   255   312    1
   307   256   257    1
   308   256   313    1
   309   256   314    1
   310   257   258    1
   311   257   315    1
   312   257   316    1
   313   258   259    1
   314   258   317    1
   315   258   318    1
   316   259   260    1
   317   259   319    1
   318   259   320    1
   319   260   321    1
   320   260   322    1
   321   260   323    1
   322   261   262    1
   323   261   324    1
   324   261   325    1
   325   262   263    1
   326   262   326    1
   327   262   327    1
   328   263   264    1
   329   263   328    1
   330   263   329    1
   331   264   265    1
   332   264   330    1
   333   264   331    1
   334   265   266    1
   335   265   332    1
   336   265   333    1
   337   266   267    1
   338   266   334    1
   339   266   335    1
   340   267   268    1
   341   267   336    1
   342   267   337    1
   343   268   338    1
   344   268   339    1
   345   268   340    1
@<TRIPOS>SUBSTRUCTURE
     1 RES1      340 GROUP             0 ****  ****    0  
