@<TRIPOS>MOLECULE
am_c3_9H2O_c0_0_nunpairedes_0_charge_3 Charge: 3 Unpaired_Electrons: 7 XTB_Unpaired_Electrons: 0 XTB_Charge: 3
   277   282     1     0     0
SMALL
NoCharges
****
Generated from Architector

@<TRIPOS>ATOM
     1 Gd1      -0.0567    0.0453   -0.4654   Gd        1 RES1   0.0000
     2 C1       -0.5261    6.4755   -5.5091   C.3       1 RES1   0.0000
     3 C2       -2.0320    6.6719   -5.3860   C.3       1 RES1   0.0000
     4 C3       -2.5273    6.3702   -3.9738   C.3       1 RES1   0.0000
     5 C4       -4.0229    6.6205   -3.7880   C.3       1 RES1   0.0000
     6 C5       -4.9285    5.6212   -4.5094   C.3       1 RES1   0.0000
     7 C6       -4.7739    4.1735   -4.0084   C.3       1 RES1   0.0000
     8 C7       -4.2934    3.2519   -5.1263   C.3       1 RES1   0.0000
     9 C8       -3.9737    1.8234   -4.6672   C.3       1 RES1   0.0000
    10 N1       -2.6314    1.6790   -4.1165   N.am      1 RES1   0.0000
    11 C9       -1.5668    1.7261   -5.1075   C.3       1 RES1   0.0000
    12 C10      -2.2760    1.4468   -2.8576   C.2       1 RES1   0.0000
    13 O1       -1.0906    1.2239   -2.5482   O.2       1 RES1   0.0000
    14 C11      -3.3209    1.4783   -1.7236   C.3       1 RES1   0.0000
    15 C12      -2.8019    2.4747   -0.6664   C.3       1 RES1   0.0000
    16 C13      -2.8506    2.0565    0.8052   C.3       1 RES1   0.0000
    17 O2       -1.5308    1.8214    1.3213   O.3       1 RES1   0.0000
    18 C14      -1.4153    2.4664    2.6068   C.3       1 RES1   0.0000
    19 C15       0.0153    2.5632    3.1309   C.3       1 RES1   0.0000
    20 C16       0.6596    3.9154    2.7909   C.3       1 RES1   0.0000
    21 C17       1.8734    4.2498    3.6619   C.3       1 RES1   0.0000
    22 C18       2.6033    5.5268    3.2040   C.3       1 RES1   0.0000
    23 C19       3.9294    5.2650    2.4984   C.3       1 RES1   0.0000
    24 C20      -3.3387    0.0096   -1.3149   C.2       1 RES1   0.0000
    25 O3       -2.3369   -0.4855   -0.7605   O.2       1 RES1   0.0000
    26 N2       -4.3609   -0.7583   -1.7017   N.am      1 RES1   0.0000
    27 C21      -5.7046   -0.3319   -2.0501   C.3       1 RES1   0.0000
    28 C22      -4.1120   -2.1884   -1.8953   C.3       1 RES1   0.0000
    29 C23      -4.2099   -3.1005   -0.6723   C.3       1 RES1   0.0000
    30 C24      -5.6205   -3.5251   -0.2766   C.3       1 RES1   0.0000
    31 C25      -5.6357   -4.5962    0.8205   C.3       1 RES1   0.0000
    32 C26      -5.0905   -5.9756    0.4263   C.3       1 RES1   0.0000
    33 C27      -3.5640   -6.1216    0.4805   C.3       1 RES1   0.0000
    34 C28      -3.0926   -7.5552    0.7427   C.3       1 RES1   0.0000
    35 C29      -3.3618   -8.4919   -0.4288   C.3       1 RES1   0.0000
    36 H1       -0.1969    6.6755   -6.5246   H         1 RES1   0.0000
    37 H2       -0.2496    5.4528   -5.2519   H         1 RES1   0.0000
    38 H3        0.0026    7.1548   -4.8450   H         1 RES1   0.0000
    39 H4       -2.5348    6.0286   -6.1094   H         1 RES1   0.0000
    40 H5       -2.2810    7.7023   -5.6383   H         1 RES1   0.0000
    41 H6       -1.9812    7.0121   -3.2785   H         1 RES1   0.0000
    42 H7       -2.2879    5.3332   -3.7191   H         1 RES1   0.0000
    43 H8       -4.2561    7.6235   -4.1477   H         1 RES1   0.0000
    44 H9       -4.2538    6.5968   -2.7212   H         1 RES1   0.0000
    45 H10      -4.7289    5.6580   -5.5793   H         1 RES1   0.0000
    46 H11      -5.9564    5.9524   -4.3735   H         1 RES1   0.0000
    47 H12      -5.7326    3.8084   -3.6403   H         1 RES1   0.0000
    48 H13      -4.0685    4.1423   -3.1775   H         1 RES1   0.0000
    49 H14      -3.4112    3.6893   -5.5932   H         1 RES1   0.0000
    50 H15      -5.0724    3.2001   -5.8864   H         1 RES1   0.0000
    51 H16      -4.0264    1.1488   -5.5289   H         1 RES1   0.0000
    52 H17      -4.7196    1.4921   -3.9489   H         1 RES1   0.0000
    53 H18      -1.9736    2.0386   -6.0673   H         1 RES1   0.0000
    54 H19      -1.1005    0.7464   -5.2132   H         1 RES1   0.0000
    55 H20      -0.8012    2.4339   -4.7964   H         1 RES1   0.0000
    56 H21      -4.2953    1.7994   -2.0758   H         1 RES1   0.0000
    57 H22      -3.3799    3.3907   -0.7821   H         1 RES1   0.0000
    58 H23      -1.7587    2.7182   -0.8714   H         1 RES1   0.0000
    59 H24      -3.4710    1.1710    0.9562   H         1 RES1   0.0000
    60 H25      -3.2978    2.8733    1.3803   H         1 RES1   0.0000
    61 H26      -2.0523    1.9314    3.3269   H         1 RES1   0.0000
    62 H27      -1.8181    3.4857    2.5156   H         1 RES1   0.0000
    63 H28       0.5929    1.7203    2.7375   H         1 RES1   0.0000
    64 H29      -0.0053    2.4588    4.2158   H         1 RES1   0.0000
    65 H30      -0.0738    4.7111    2.9456   H         1 RES1   0.0000
    66 H31       0.9264    3.9395    1.7324   H         1 RES1   0.0000
    67 H32       2.5723    3.4095    3.6718   H         1 RES1   0.0000
    68 H33       1.5204    4.3896    4.6831   H         1 RES1   0.0000
    69 H34       2.8064    6.1512    4.0707   H         1 RES1   0.0000
    70 H35       1.9490    6.0974    2.5423   H         1 RES1   0.0000
    71 H36       4.6440    4.8128    3.1863   H         1 RES1   0.0000
    72 H37       4.3522    6.2075    2.1577   H         1 RES1   0.0000
    73 H38       3.8065    4.5981    1.6429   H         1 RES1   0.0000
    74 H39      -5.9027    0.7048   -1.7829   H         1 RES1   0.0000
    75 H40      -6.4135   -0.9591   -1.5085   H         1 RES1   0.0000
    76 H41      -5.8842   -0.4714   -3.1179   H         1 RES1   0.0000
    77 H42      -3.0952   -2.2524   -2.3012   H         1 RES1   0.0000
    78 H43      -4.8205   -2.5230   -2.6568   H         1 RES1   0.0000
    79 H44      -3.6998   -2.6367    0.1709   H         1 RES1   0.0000
    80 H45      -3.6684   -4.0036   -0.9389   H         1 RES1   0.0000
    81 H46      -6.1365   -3.9233   -1.1535   H         1 RES1   0.0000
    82 H47      -6.1840   -2.6601    0.0821   H         1 RES1   0.0000
    83 H48      -6.6771   -4.7305    1.1173   H         1 RES1   0.0000
    84 H49      -5.0972   -4.2374    1.7014   H         1 RES1   0.0000
    85 H50      -5.4506   -6.2390   -0.5686   H         1 RES1   0.0000
    86 H51      -5.5137   -6.7008    1.1242   H         1 RES1   0.0000
    87 H52      -3.1768   -5.4802    1.2773   H         1 RES1   0.0000
    88 H53      -3.1221   -5.8006   -0.4678   H         1 RES1   0.0000
    89 H54      -3.5841   -7.9400    1.6368   H         1 RES1   0.0000
    90 H55      -2.0164   -7.5374    0.9429   H         1 RES1   0.0000
    91 H56      -4.4269   -8.5753   -0.6246   H         1 RES1   0.0000
    92 H57      -2.9824   -9.4859   -0.2094   H         1 RES1   0.0000
    93 H58      -2.8712   -8.1338   -1.3336   H         1 RES1   0.0000
    94 C30       5.7436   -3.0767   -5.3922   C.3       1 RES1   0.0000
    95 C31       6.5245   -1.7747   -5.5355   C.3       1 RES1   0.0000
    96 C32       6.8628   -1.1598   -4.1783   C.3       1 RES1   0.0000
    97 C33       7.6567    0.1448   -4.2747   C.3       1 RES1   0.0000
    98 C34       6.9013    1.3077   -4.9249   C.3       1 RES1   0.0000
    99 C35       5.7291    1.8111   -4.0757   C.3       1 RES1   0.0000
   100 C36       4.7453    2.6305   -4.9053   C.3       1 RES1   0.0000
   101 C37       3.4741    3.0222   -4.1419   C.3       1 RES1   0.0000
   102 N3        2.7392    1.8763   -3.6184   N.am      1 RES1   0.0000
   103 C38       2.2627    0.9696   -4.6517   C.3       1 RES1   0.0000
   104 C39       2.4722    1.5545   -2.3554   C.2       1 RES1   0.0000
   105 O4        1.8404    0.5164   -2.0723   O.2       1 RES1   0.0000
   106 C40       2.8818    2.4954   -1.2096   C.3       1 RES1   0.0000
   107 C41       3.6082    1.7419   -0.0719   C.3       1 RES1   0.0000
   108 C42       2.8709    1.6013    1.2631   C.3       1 RES1   0.0000
   109 O5        2.1392    0.3716    1.4160   O.3       1 RES1   0.0000
   110 C43       2.6322   -0.3245    2.5908   C.3       1 RES1   0.0000
   111 C44       1.9427   -1.6574    2.8847   C.3       1 RES1   0.0000
   112 C45       2.7819   -2.8771    2.4804   C.3       1 RES1   0.0000
   113 C46       2.4114   -4.1284    3.2806   C.3       1 RES1   0.0000
   114 C47       3.0604   -5.3955    2.7040   C.3       1 RES1   0.0000
   115 C48       2.0868   -6.2290    1.8745   C.3       1 RES1   0.0000
   116 C49       1.5187    3.0993   -0.8828   C.2       1 RES1   0.0000
   117 O6        0.5638    2.3607   -0.5643   O.2       1 RES1   0.0000
   118 N4        1.3379    4.3974   -1.1359   N.am      1 RES1   0.0000
   119 C50       2.3822    5.4033   -1.1755   C.3       1 RES1   0.0000
   120 C51       0.0027    4.8322   -1.5328   C.3       1 RES1   0.0000
   121 C52      -0.9391    5.2836   -0.4169   C.3       1 RES1   0.0000
   122 C53      -0.6786    6.6822    0.1339   C.3       1 RES1   0.0000
   123 C54      -1.6693    7.0752    1.2358   C.3       1 RES1   0.0000
   124 C55      -3.1387    7.2138    0.8122   C.3       1 RES1   0.0000
   125 C56      -3.9813    5.9403    0.9353   C.3       1 RES1   0.0000
   126 C57      -5.4716    6.2342    1.1180   C.3       1 RES1   0.0000
   127 C58      -6.0974    6.9397   -0.0790   C.3       1 RES1   0.0000
   128 H59       5.5357   -3.5028   -6.3709   H         1 RES1   0.0000
   129 H60       4.7921   -2.9027   -4.8854   H         1 RES1   0.0000
   130 H61       6.3175   -3.8029   -4.8207   H         1 RES1   0.0000
   131 H62       5.9324   -1.0779   -6.1322   H         1 RES1   0.0000
   132 H63       7.4473   -1.9747   -6.0814   H         1 RES1   0.0000
   133 H64       7.4642   -1.8774   -3.6166   H         1 RES1   0.0000
   134 H65       5.9398   -0.9989   -3.6133   H         1 RES1   0.0000
   135 H66       8.5582   -0.0481   -4.8578   H         1 RES1   0.0000
   136 H67       7.9706    0.4412   -3.2715   H         1 RES1   0.0000
   137 H68       6.5412    0.9891   -5.9036   H         1 RES1   0.0000
   138 H69       7.6005    2.1283   -5.0970   H         1 RES1   0.0000
   139 H70       6.1125    2.4135   -3.2497   H         1 RES1   0.0000
   140 H71       5.1987    0.9596   -3.6451   H         1 RES1   0.0000
   141 H72       4.4799    2.0691   -5.8007   H         1 RES1   0.0000
   142 H73       5.2243    3.5535   -5.2318   H         1 RES1   0.0000
   143 H74       2.8065    3.5478   -4.8331   H         1 RES1   0.0000
   144 H75       3.7331    3.7134   -3.3437   H         1 RES1   0.0000
   145 H76       2.0051    1.5429   -5.5399   H         1 RES1   0.0000
   146 H77       1.3890    0.4374   -4.2757   H         1 RES1   0.0000
   147 H78       3.0305    0.2414   -4.9145   H         1 RES1   0.0000
   148 H79       3.5453    3.2703   -1.5737   H         1 RES1   0.0000
   149 H80       4.5392    2.2783    0.1232   H         1 RES1   0.0000
   150 H81       3.8778    0.7471   -0.4219   H         1 RES1   0.0000
   151 H82       2.1862    2.4413    1.4008   H         1 RES1   0.0000
   152 H83       3.6168    1.6662    2.0656   H         1 RES1   0.0000
   153 H84       2.4992    0.3442    3.4563   H         1 RES1   0.0000
   154 H85       3.7089   -0.4933    2.4614   H         1 RES1   0.0000
   155 H86       0.9675   -1.6480    2.3958   H         1 RES1   0.0000
   156 H87       1.7821   -1.7255    3.9668   H         1 RES1   0.0000
   157 H88       3.8341   -2.6633    2.6769   H         1 RES1   0.0000
   158 H89       2.6853   -3.0674    1.4103   H         1 RES1   0.0000
   159 H90       1.3258   -4.2534    3.3130   H         1 RES1   0.0000
   160 H91       2.7520   -3.9812    4.3059   H         1 RES1   0.0000
   161 H92       3.4244   -6.0197    3.5174   H         1 RES1   0.0000
   162 H93       3.9230   -5.1172    2.0964   H         1 RES1   0.0000
   163 H94       1.3442   -6.6822    2.5234   H         1 RES1   0.0000
   164 H95       2.6159   -7.0278    1.3610   H         1 RES1   0.0000
   165 H96       1.5644   -5.6201    1.1370   H         1 RES1   0.0000
   166 H97       3.2734    5.0836   -0.6383   H         1 RES1   0.0000
   167 H98       2.0204    6.3087   -0.6905   H         1 RES1   0.0000
   168 H99       2.6429    5.6670   -2.2032   H         1 RES1   0.0000
   169 H100     -0.4426    3.9661   -2.0332   H         1 RES1   0.0000
   170 H101      0.1292    5.6279   -2.2695   H         1 RES1   0.0000
   171 H102     -0.9136    4.5516    0.3905   H         1 RES1   0.0000
   172 H103     -1.9402    5.2818   -0.8464   H         1 RES1   0.0000
   173 H104     -0.7407    7.4069   -0.6809   H         1 RES1   0.0000
   174 H105      0.3268    6.7409    0.5609   H         1 RES1   0.0000
   175 H106     -1.3399    8.0405    1.6203   H         1 RES1   0.0000
   176 H107     -1.5929    6.3568    2.0559   H         1 RES1   0.0000
   177 H108     -3.1917    7.5956   -0.2073   H         1 RES1   0.0000
   178 H109     -3.5906    7.9664    1.4580   H         1 RES1   0.0000
   179 H110     -3.6430    5.3663    1.8015   H         1 RES1   0.0000
   180 H111     -3.8562    5.3140    0.0483   H         1 RES1   0.0000
   181 H112     -5.6008    6.8519    2.0069   H         1 RES1   0.0000
   182 H113     -5.9995    5.2926    1.2914   H         1 RES1   0.0000
   183 H114     -5.6356    7.9088   -0.2466   H         1 RES1   0.0000
   184 H115     -7.1580    7.1019    0.0935   H         1 RES1   0.0000
   185 H116     -5.9900    6.3427   -0.9840   H         1 RES1   0.0000
   186 C59      -6.1272   -3.4185   -5.2419   C.3       1 RES1   0.0000
   187 C60      -5.4166   -4.7627   -5.3740   C.3       1 RES1   0.0000
   188 C61      -4.9378   -5.2926   -4.0233   C.3       1 RES1   0.0000
   189 C62      -4.1923   -6.6255   -4.1060   C.3       1 RES1   0.0000
   190 C63      -2.8381   -6.5458   -4.8127   C.3       1 RES1   0.0000
   191 C64      -1.7828   -5.7482   -4.0445   C.3       1 RES1   0.0000
   192 C65      -0.5631   -5.4910   -4.9221   C.3       1 RES1   0.0000
   193 C66       0.5089   -4.6572   -4.2185   C.3       1 RES1   0.0000
   194 N5        0.0365   -3.3439   -3.8061   N.am      1 RES1   0.0000
   195 C67      -0.4366   -2.4937   -4.8859   C.3       1 RES1   0.0000
   196 C68      -0.0366   -2.8552   -2.5716   C.2       1 RES1   0.0000
   197 O7       -0.4685   -1.7078   -2.3509   O.2       1 RES1   0.0000
   198 C69       0.4172   -3.6851   -1.3554   C.3       1 RES1   0.0000
   199 C70      -0.7756   -3.7764   -0.3914   C.3       1 RES1   0.0000
   200 C71      -0.4884   -3.3778    1.0522   C.3       1 RES1   0.0000
   201 O8       -0.9789   -2.0550    1.3081   O.3       1 RES1   0.0000
   202 C72      -1.7472   -2.0032    2.5171   C.3       1 RES1   0.0000
   203 C73      -2.8394   -0.9444    2.4665   C.3       1 RES1   0.0000
   204 C74      -4.0486   -1.3664    3.3067   C.3       1 RES1   0.0000
   205 C75      -5.0780   -0.2508    3.5145   C.3       1 RES1   0.0000
   206 C76      -6.2376   -0.2182    2.5026   C.3       1 RES1   0.0000
   207 C77      -6.1681    0.9337    1.5000   C.3       1 RES1   0.0000
   208 C78       1.5955   -2.8147   -0.9260   C.2       1 RES1   0.0000
   209 O9        1.3967   -1.6897   -0.4388   O.2       1 RES1   0.0000
   210 N6        2.8181   -3.2023   -1.2998   N.am      1 RES1   0.0000
   211 C79       3.2507   -4.5755   -1.4827   C.3       1 RES1   0.0000
   212 C80       3.7622   -2.1574   -1.6857   C.3       1 RES1   0.0000
   213 C81       4.7100   -1.6411   -0.6032   C.3       1 RES1   0.0000
   214 C82       5.8665   -2.5594   -0.2213   C.3       1 RES1   0.0000
   215 C83       6.7939   -1.9098    0.8116   C.3       1 RES1   0.0000
   216 C84       7.6565   -0.7475    0.3070   C.3       1 RES1   0.0000
   217 C85       6.9715    0.6240    0.3036   C.3       1 RES1   0.0000
   218 C86       7.9583    1.7780    0.5002   C.3       1 RES1   0.0000
   219 C87       8.9264    1.9169   -0.6681   C.3       1 RES1   0.0000
   220 H117     -6.5186   -3.1019   -6.2063   H         1 RES1   0.0000
   221 H118     -5.4370   -2.6484   -4.8884   H         1 RES1   0.0000
   222 H119     -6.9617   -3.4909   -4.5459   H         1 RES1   0.0000
   223 H120     -4.5745   -4.6414   -6.0575   H         1 RES1   0.0000
   224 H121     -6.1032   -5.4814   -5.8218   H         1 RES1   0.0000
   225 H122     -5.8113   -5.4267   -3.3820   H         1 RES1   0.0000
   226 H123     -4.2919   -4.5499   -3.5489   H         1 RES1   0.0000
   227 H124     -4.8180   -7.3436   -4.6371   H         1 RES1   0.0000
   228 H125     -4.0446   -7.0094   -3.0947   H         1 RES1   0.0000
   229 H126     -2.9779   -6.0998   -5.7976   H         1 RES1   0.0000
   230 H127     -2.4669   -7.5590   -4.9697   H         1 RES1   0.0000
   231 H128     -1.4811   -6.2990   -3.1502   H         1 RES1   0.0000
   232 H129     -2.1991   -4.7933   -3.7159   H         1 RES1   0.0000
   233 H130     -0.8746   -5.0056   -5.8455   H         1 RES1   0.0000
   234 H131     -0.1119   -6.4436   -5.1964   H         1 RES1   0.0000
   235 H132      1.3579   -4.5135   -4.8961   H         1 RES1   0.0000
   236 H133      0.8573   -5.2161   -3.3530   H         1 RES1   0.0000
   237 H134      0.2278   -2.5801   -5.7427   H         1 RES1   0.0000
   238 H135     -0.4517   -1.4688   -4.5230   H         1 RES1   0.0000
   239 H136     -1.4455   -2.7759   -5.1882   H         1 RES1   0.0000
   240 H137      0.7617   -4.6788   -1.6152   H         1 RES1   0.0000
   241 H138     -1.1524   -4.8012   -0.4141   H         1 RES1   0.0000
   242 H139     -1.5728   -3.1142   -0.7412   H         1 RES1   0.0000
   243 H140      0.5765   -3.4164    1.2698   H         1 RES1   0.0000
   244 H141     -0.9891   -4.0806    1.7232   H         1 RES1   0.0000
   245 H142     -2.2237   -2.9761    2.6661   H         1 RES1   0.0000
   246 H143     -1.0829   -1.8203    3.3673   H         1 RES1   0.0000
   247 H144     -3.1322   -0.7987    1.4252   H         1 RES1   0.0000
   248 H145     -2.4446   -0.0127    2.8632   H         1 RES1   0.0000
   249 H146     -3.6780   -1.6932    4.2768   H         1 RES1   0.0000
   250 H147     -4.5333   -2.2289    2.8504   H         1 RES1   0.0000
   251 H148     -4.5661    0.7135    3.5128   H         1 RES1   0.0000
   252 H149     -5.5018   -0.3865    4.5076   H         1 RES1   0.0000
   253 H150     -7.1706   -0.1159    3.0528   H         1 RES1   0.0000
   254 H151     -6.2863   -1.1646    1.9595   H         1 RES1   0.0000
   255 H152     -5.4045    0.7572    0.7437   H         1 RES1   0.0000
   256 H153     -7.1249    1.0433    0.9952   H         1 RES1   0.0000
   257 H154     -5.9518    1.8722    2.0093   H         1 RES1   0.0000
   258 H155      4.3181   -4.6231   -1.2735   H         1 RES1   0.0000
   259 H156      3.0932   -4.9252   -2.5047   H         1 RES1   0.0000
   260 H157      2.7483   -5.2429   -0.7843   H         1 RES1   0.0000
   261 H158      3.1479   -1.3106   -2.0188   H         1 RES1   0.0000
   262 H159      4.3275   -2.5438   -2.5399   H         1 RES1   0.0000
   263 H160      4.1208   -1.3899    0.2796   H         1 RES1   0.0000
   264 H161      5.1446   -0.7275   -1.0086   H         1 RES1   0.0000
   265 H162      6.4397   -2.8036   -1.1187   H         1 RES1   0.0000
   266 H163      5.4845   -3.4931    0.2025   H         1 RES1   0.0000
   267 H164      7.4639   -2.6880    1.1729   H         1 RES1   0.0000
   268 H165      6.1984   -1.5744    1.6648   H         1 RES1   0.0000
   269 H166      8.0322   -0.9739   -0.6905   H         1 RES1   0.0000
   270 H167      8.5216   -0.6805    0.9661   H         1 RES1   0.0000
   271 H168      6.2348    0.6605    1.1108   H         1 RES1   0.0000
   272 H169      6.4487    0.7898   -0.6431   H         1 RES1   0.0000
   273 H170      8.5219    1.6184    1.4205   H         1 RES1   0.0000
   274 H171      7.3989    2.7118    0.6167   H         1 RES1   0.0000
   275 H172      9.5578    1.0365   -0.7512   H         1 RES1   0.0000
   276 H173      9.5709    2.7809   -0.5302   H         1 RES1   0.0000
   277 H174      8.3832    2.0433   -1.6040   H         1 RES1   0.0000
@<TRIPOS>BOND
     1     1    13    1
     2     1    17    1
     3     1    25    1
     4     1   105    1
     5     1   109    1
     6     1   117    1
     7     1   197    1
     8     1   201    1
     9     1   209    1
    10     2     3    1
    11     2    36    1
    12     2    37    1
    13     2    38    1
    14     3     4    1
    15     3    39    1
    16     3    40    1
    17     4     5    1
    18     4    41    1
    19     4    42    1
    20     5     6    1
    21     5    43    1
    22     5    44    1
    23     6     7    1
    24     6    45    1
    25     6    46    1
    26     7     8    1
    27     7    47    1
    28     7    48    1
    29     8     9    1
    30     8    49    1
    31     8    50    1
    32     9    10    1
    33     9    51    1
    34     9    52    1
    35    10    11    1
    36    10    12    1
    37    11    53    1
    38    11    54    1
    39    11    55    1
    40    12    13    2
    41    12    14    1
    42    14    15    1
    43    14    24    1
    44    14    56    1
    45    15    16    1
    46    15    57    1
    47    15    58    1
    48    16    17    1
    49    16    59    1
    50    16    60    1
    51    17    18    1
    52    18    19    1
    53    18    61    1
    54    18    62    1
    55    19    20    1
    56    19    63    1
    57    19    64    1
    58    20    21    1
    59    20    65    1
    60    20    66    1
    61    21    22    1
    62    21    67    1
    63    21    68    1
    64    22    23    1
    65    22    69    1
    66    22    70    1
    67    23    71    1
    68    23    72    1
    69    23    73    1
    70    24    25    2
    71    24    26    1
    72    26    27    1
    73    26    28    1
    74    27    74    1
    75    27    75    1
    76    27    76    1
    77    28    29    1
    78    28    77    1
    79    28    78    1
    80    29    30    1
    81    29    79    1
    82    29    80    1
    83    30    31    1
    84    30    81    1
    85    30    82    1
    86    31    32    1
    87    31    83    1
    88    31    84    1
    89    32    33    1
    90    32    85    1
    91    32    86    1
    92    33    34    1
    93    33    87    1
    94    33    88    1
    95    34    35    1
    96    34    89    1
    97    34    90    1
    98    35    91    1
    99    35    92    1
   100    35    93    1
   101    94    95    1
   102    94   128    1
   103    94   129    1
   104    94   130    1
   105    95    96    1
   106    95   131    1
   107    95   132    1
   108    96    97    1
   109    96   133    1
   110    96   134    1
   111    97    98    1
   112    97   135    1
   113    97   136    1
   114    98    99    1
   115    98   137    1
   116    98   138    1
   117    99   100    1
   118    99   139    1
   119    99   140    1
   120   100   101    1
   121   100   141    1
   122   100   142    1
   123   101   102    1
   124   101   143    1
   125   101   144    1
   126   102   103    1
   127   102   104    1
   128   103   145    1
   129   103   146    1
   130   103   147    1
   131   104   105    2
   132   104   106    1
   133   106   107    1
   134   106   116    1
   135   106   148    1
   136   107   108    1
   137   107   149    1
   138   107   150    1
   139   108   109    1
   140   108   151    1
   141   108   152    1
   142   109   110    1
   143   110   111    1
   144   110   153    1
   145   110   154    1
   146   111   112    1
   147   111   155    1
   148   111   156    1
   149   112   113    1
   150   112   157    1
   151   112   158    1
   152   113   114    1
   153   113   159    1
   154   113   160    1
   155   114   115    1
   156   114   161    1
   157   114   162    1
   158   115   163    1
   159   115   164    1
   160   115   165    1
   161   116   117    2
   162   116   118    1
   163   118   119    1
   164   118   120    1
   165   119   166    1
   166   119   167    1
   167   119   168    1
   168   120   121    1
   169   120   169    1
   170   120   170    1
   171   121   122    1
   172   121   171    1
   173   121   172    1
   174   122   123    1
   175   122   173    1
   176   122   174    1
   177   123   124    1
   178   123   175    1
   179   123   176    1
   180   124   125    1
   181   124   177    1
   182   124   178    1
   183   125   126    1
   184   125   179    1
   185   125   180    1
   186   126   127    1
   187   126   181    1
   188   126   182    1
   189   127   183    1
   190   127   184    1
   191   127   185    1
   192   186   187    1
   193   186   220    1
   194   186   221    1
   195   186   222    1
   196   187   188    1
   197   187   223    1
   198   187   224    1
   199   188   189    1
   200   188   225    1
   201   188   226    1
   202   189   190    1
   203   189   227    1
   204   189   228    1
   205   190   191    1
   206   190   229    1
   207   190   230    1
   208   191   192    1
   209   191   231    1
   210   191   232    1
   211   192   193    1
   212   192   233    1
   213   192   234    1
   214   193   194    1
   215   193   235    1
   216   193   236    1
   217   194   195    1
   218   194   196    1
   219   195   237    1
   220   195   238    1
   221   195   239    1
   222   196   197    2
   223   196   198    1
   224   198   199    1
   225   198   208    1
   226   198   240    1
   227   199   200    1
   228   199   241    1
   229   199   242    1
   230   200   201    1
   231   200   243    1
   232   200   244    1
   233   201   202    1
   234   202   203    1
   235   202   245    1
   236   202   246    1
   237   203   204    1
   238   203   247    1
   239   203   248    1
   240   204   205    1
   241   204   249    1
   242   204   250    1
   243   205   206    1
   244   205   251    1
   245   205   252    1
   246   206   207    1
   247   206   253    1
   248   206   254    1
   249   207   255    1
   250   207   256    1
   251   207   257    1
   252   208   209    2
   253   208   210    1
   254   210   211    1
   255   210   212    1
   256   211   258    1
   257   211   259    1
   258   211   260    1
   259   212   213    1
   260   212   261    1
   261   212   262    1
   262   213   214    1
   263   213   263    1
   264   213   264    1
   265   214   215    1
   266   214   265    1
   267   214   266    1
   268   215   216    1
   269   215   267    1
   270   215   268    1
   271   216   217    1
   272   216   269    1
   273   216   270    1
   274   217   218    1
   275   217   271    1
   276   217   272    1
   277   218   219    1
   278   218   273    1
   279   218   274    1
   280   219   275    1
   281   219   276    1
   282   219   277    1
@<TRIPOS>SUBSTRUCTURE
     1 RES1      277 GROUP             0 ****  ****    0  
