@<TRIPOS>MOLECULE
am_c3_9H2O_c0_0_nunpairedes_0_charge_2 Charge: 2 Unpaired_Electrons: 7 XTB_Unpaired_Electrons: 0 XTB_Charge: 2
    66    75     1     0     0
SMALL
NoCharges
****
Generated from Architector

@<TRIPOS>ATOM
     1 Gd1       0.9570    0.3011   -0.1817   Gd        1 RES1   0.0000
     2 C1        6.0874    1.7174    1.8119   C.3       1 RES1   0.0000
     3 C2        5.6552    0.6204    2.7873   C.3       1 RES1   0.0000
     4 C3        4.1578    0.2934    2.6963   C.3       1 RES1   0.0000
     5 C4        3.5986   -0.6922    1.7150   C.ar      1 RES1   0.0000
     6 N1        2.2657   -0.6101    1.6332   N.ar      1 RES1   0.0000
     7 N2        1.5368   -1.4801    0.9385   N.ar      1 RES1   0.0000
     8 C5        2.1593   -2.4737    0.2846   C.ar      1 RES1   0.0000
     9 C6        1.4997   -2.8578   -1.0140   C.ar      1 RES1   0.0000
    10 C7        1.5993   -3.9456   -1.8699   C.ar      1 RES1   0.0000
    11 C8        1.3224   -3.7313   -3.2233   C.ar      1 RES1   0.0000
    12 C9        1.1267   -2.4458   -3.7359   C.ar      1 RES1   0.0000
    13 C10       1.0512   -1.4165   -2.8184   C.ar      1 RES1   0.0000
    14 C11       1.2108    0.0835   -2.7935   C.ar      1 RES1   0.0000
    15 N3        2.4301    0.3694   -2.3058   N.ar      1 RES1   0.0000
    16 N4        2.5780    1.4547   -1.5807   N.ar      1 RES1   0.0000
    17 C12       1.6062    2.3573   -1.4409   C.ar      1 RES1   0.0000
    18 C13       1.9023    3.5114   -0.5180   C.3       1 RES1   0.0000
    19 C14       3.4139    3.7108   -0.3388   C.3       1 RES1   0.0000
    20 C15       4.0281    4.2744   -1.6126   C.3       1 RES1   0.0000
    21 C16       0.3710    2.1256   -2.1595   C.ar      1 RES1   0.0000
    22 C17      -0.6691    3.1434   -2.3761   C.3       1 RES1   0.0000
    23 C18      -0.1529    4.1068   -3.4867   C.3       1 RES1   0.0000
    24 C19       0.1957    3.3707   -4.7712   C.3       1 RES1   0.0000
    25 N5        0.1886    0.9286   -2.7255   N.ar      1 RES1   0.0000
    26 N6        1.1296   -1.6637   -1.5030   N.ar      1 RES1   0.0000
    27 N7        3.4691   -2.6070    0.2952   N.ar      1 RES1   0.0000
    28 C20       4.2287   -1.6873    0.8829   C.ar      1 RES1   0.0000
    29 C21       5.5796   -1.6189    0.2895   C.3       1 RES1   0.0000
    30 C22       5.4099   -1.4811   -1.2489   C.3       1 RES1   0.0000
    31 C23       5.1496   -2.8119   -1.9358   C.3       1 RES1   0.0000
    32 H1        5.6949    2.6825    2.1350   H         1 RES1   0.0000
    33 H2        5.7438    1.5227    0.7954   H         1 RES1   0.0000
    34 H3        7.1716    1.7930    1.7963   H         1 RES1   0.0000
    35 H4        5.8487    0.9891    3.7985   H         1 RES1   0.0000
    36 H5        6.2577   -0.2831    2.6774   H         1 RES1   0.0000
    37 H6        3.5795    1.2199    2.5820   H         1 RES1   0.0000
    38 H7        3.8464   -0.1130    3.6698   H         1 RES1   0.0000
    39 H8        1.9189   -4.9197   -1.5332   H         1 RES1   0.0000
    40 H9        1.3481   -4.5679   -3.9078   H         1 RES1   0.0000
    41 H10       1.0635   -2.2734   -4.7961   H         1 RES1   0.0000
    42 H11       1.4417    3.3385    0.4691   H         1 RES1   0.0000
    43 H12       1.4547    4.4208   -0.9201   H         1 RES1   0.0000
    44 H13       3.8817    2.7544   -0.0916   H         1 RES1   0.0000
    45 H14       3.5866    4.3960    0.4876   H         1 RES1   0.0000
    46 H15       3.9416    3.5539   -2.4224   H         1 RES1   0.0000
    47 H16       5.0812    4.4869   -1.4575   H         1 RES1   0.0000
    48 H17       3.5266    5.1950   -1.9068   H         1 RES1   0.0000
    49 H18      -0.8811    3.7256   -1.4762   H         1 RES1   0.0000
    50 H19      -1.5732    2.6463   -2.7311   H         1 RES1   0.0000
    51 H20       0.7130    4.6666   -3.1288   H         1 RES1   0.0000
    52 H21      -0.9580    4.8169   -3.6740   H         1 RES1   0.0000
    53 H22       1.0736    2.7324   -4.6538   H         1 RES1   0.0000
    54 H23       0.4157    4.1026   -5.5454   H         1 RES1   0.0000
    55 H24      -0.6366    2.7524   -5.1051   H         1 RES1   0.0000
    56 H25       6.1140   -2.5558    0.4605   H         1 RES1   0.0000
    57 H26       6.1696   -0.7970    0.6802   H         1 RES1   0.0000
    58 H27       6.3344   -1.0549   -1.6359   H         1 RES1   0.0000
    59 H28       4.5989   -0.7795   -1.4732   H         1 RES1   0.0000
    60 H29       5.8418   -3.5610   -1.5625   H         1 RES1   0.0000
    61 H30       5.2999   -2.7062   -3.0059   H         1 RES1   0.0000
    62 H31       4.1377   -3.1661   -1.7613   H         1 RES1   0.0000
    63 N8       -1.0764    1.1334    0.8204   N.3       1 RES1   0.0000
    64 O1       -2.0272    1.4362    1.4287   O.2       1 RES1   0.0000
    65 O2       -1.0864    0.3048   -0.1208   O.co2     1 RES1   0.0000
    66 O3        0.0599    1.6362    1.0482   O.co2     1 RES1   0.0000
@<TRIPOS>BOND
     1     1     6    1
     2     1     7    1
     3     1    15    1
     4     1    16    1
     5     1    25    1
     6     1    26    1
     7     1    27    1
     8     1    65    1
     9     1    66    1
    10     2     3    1
    11     2    32    1
    12     2    33    1
    13     2    34    1
    14     3     4    1
    15     3    35    1
    16     3    36    1
    17     4     5    1
    18     4    37    1
    19     4    38    1
    20     5     6    1
    21     5    28    2
    22     6     7    2
    23     7     8    1
    24     8     9    1
    25     8    27    2
    26     9    10    1
    27     9    26    2
    28    10    11    2
    29    10    39    1
    30    11    12    1
    31    11    40    1
    32    12    13    2
    33    12    41    1
    34    13    14    1
    35    13    26    1
    36    14    15    1
    37    14    25    2
    38    15    16    2
    39    16    17    1
    40    17    18    1
    41    17    21    2
    42    18    19    1
    43    18    42    1
    44    18    43    1
    45    19    20    1
    46    19    44    1
    47    19    45    1
    48    20    46    1
    49    20    47    1
    50    20    48    1
    51    21    22    1
    52    21    25    1
    53    22    23    1
    54    22    49    1
    55    22    50    1
    56    23    24    1
    57    23    51    1
    58    23    52    1
    59    24    53    1
    60    24    54    1
    61    24    55    1
    62    27    28    1
    63    28    29    1
    64    29    30    1
    65    29    56    1
    66    29    57    1
    67    30    31    1
    68    30    58    1
    69    30    59    1
    70    31    60    1
    71    31    61    1
    72    31    62    1
    73    63    64    2
    74    63    65    1
    75    63    66    1
@<TRIPOS>SUBSTRUCTURE
     1 RES1       66 GROUP             0 ****  ****    0  
