@<TRIPOS>MOLECULE
am_c3_9H2O_c0_0_nunpairedes_0_charge_3 Charge: 3 Unpaired_Electrons: 2 XTB_Unpaired_Electrons: 0 XTB_Charge: 3
   184   198     1     0     0
SMALL
NoCharges
****
Generated from Architector

@<TRIPOS>ATOM
     1 Pr1       0.0050   -0.0058    0.0041   Pr        1 RES1   0.0000
     2 C1        0.3773   -1.4805   -6.7680   C.3       1 RES1   0.0000
     3 C2        0.3579   -2.8993   -6.2199   C.3       1 RES1   0.0000
     4 C3        0.5130   -2.9766   -4.6940   C.3       1 RES1   0.0000
     5 C4       -0.5703   -2.4558   -3.7924   C.ar      1 RES1   0.0000
     6 N1       -0.1374   -1.6238   -2.8625   N.ar      1 RES1   0.0000
     7 N2       -0.9244   -1.1655   -1.9153   N.ar      1 RES1   0.0000
     8 C5       -2.2130   -1.5014   -1.9252   C.ar      1 RES1   0.0000
     9 C6       -3.0627   -0.8205   -0.9083   C.ar      1 RES1   0.0000
    10 C7       -4.4517   -0.9058   -0.9119   C.ar      1 RES1   0.0000
    11 C8       -5.1647   -0.1540    0.0136   C.ar      1 RES1   0.0000
    12 C9       -4.4892    0.6290    0.9342   C.ar      1 RES1   0.0000
    13 C10      -3.0962    0.6408    0.8893   C.ar      1 RES1   0.0000
    14 C11      -2.3085    1.5031    1.7997   C.ar      1 RES1   0.0000
    15 N3       -0.9825    1.4316    1.7100   N.ar      1 RES1   0.0000
    16 N4       -0.2547    2.2891    2.4015   N.ar      1 RES1   0.0000
    17 C12      -0.8136    3.2009    3.1775   C.ar      1 RES1   0.0000
    18 C13       0.1263    4.1407    3.8719   C.3       1 RES1   0.0000
    19 C14       0.0412    5.6098    3.4241   C.3       1 RES1   0.0000
    20 C15       0.3367    5.7873    1.9426   C.3       1 RES1   0.0000
    21 C16      -2.2317    3.1941    3.3309   C.ar      1 RES1   0.0000
    22 C17      -2.9532    4.1118    4.2429   C.3       1 RES1   0.0000
    23 C18      -4.0758    4.8590    3.5082   C.3       1 RES1   0.0000
    24 C19      -3.5681    5.7441    2.3770   C.3       1 RES1   0.0000
    25 N5       -2.9466    2.3321    2.6219   N.ar      1 RES1   0.0000
    26 N6       -2.4153   -0.0591   -0.0200   N.ar      1 RES1   0.0000
    27 N7       -2.7068   -2.4137   -2.7604   N.ar      1 RES1   0.0000
    28 C20      -1.9065   -2.9410   -3.6832   C.ar      1 RES1   0.0000
    29 C21      -2.3716   -4.0972   -4.4885   C.3       1 RES1   0.0000
    30 C22      -3.5074   -3.7707   -5.4726   C.3       1 RES1   0.0000
    31 C23      -4.7837   -3.3563   -4.7620   C.3       1 RES1   0.0000
    32 H1        0.2993   -1.4905   -7.8530   H         1 RES1   0.0000
    33 H2        1.3017   -0.9702   -6.5078   H         1 RES1   0.0000
    34 H3       -0.4557   -0.9045   -6.3779   H         1 RES1   0.0000
    35 H4        1.1951   -3.4507   -6.6503   H         1 RES1   0.0000
    36 H5       -0.5581   -3.3887   -6.5398   H         1 RES1   0.0000
    37 H6        1.4142   -2.4291   -4.4141   H         1 RES1   0.0000
    38 H7        0.6720   -4.0290   -4.4308   H         1 RES1   0.0000
    39 H8       -4.9451   -1.5329   -1.6302   H         1 RES1   0.0000
    40 H9       -6.2407   -0.1640    0.0160   H         1 RES1   0.0000
    41 H10      -5.0072    1.2188    1.6708   H         1 RES1   0.0000
    42 H11       1.1379    3.7845    3.6755   H         1 RES1   0.0000
    43 H12      -0.0516    4.1077    4.9496   H         1 RES1   0.0000
    44 H13       0.7644    6.1821    4.0063   H         1 RES1   0.0000
    45 H14      -0.9417    6.0149    3.6450   H         1 RES1   0.0000
    46 H15       1.3453    5.4523    1.7131   H         1 RES1   0.0000
    47 H16       0.2539    6.8342    1.6585   H         1 RES1   0.0000
    48 H17      -0.3606    5.2123    1.3328   H         1 RES1   0.0000
    49 H18      -2.2604    4.8104    4.7051   H         1 RES1   0.0000
    50 H19      -3.4188    3.5155    5.0299   H         1 RES1   0.0000
    51 H20      -4.6011    5.4720    4.2386   H         1 RES1   0.0000
    52 H21      -4.7735    4.1269    3.1047   H         1 RES1   0.0000
    53 H22      -2.9355    6.5434    2.7541   H         1 RES1   0.0000
    54 H23      -4.4130    6.2052    1.8727   H         1 RES1   0.0000
    55 H24      -3.0012    5.1759    1.6377   H         1 RES1   0.0000
    56 H25      -2.7422   -4.8643   -3.8082   H         1 RES1   0.0000
    57 H26      -1.5314   -4.5049   -5.0454   H         1 RES1   0.0000
    58 H27      -3.6902   -4.6750   -6.0532   H         1 RES1   0.0000
    59 H28      -3.1880   -2.9850   -6.1586   H         1 RES1   0.0000
    60 H29      -5.0898   -4.1155   -4.0459   H         1 RES1   0.0000
    61 H30      -5.5827   -3.2236   -5.4852   H         1 RES1   0.0000
    62 H31      -4.6501   -2.4189   -4.2257   H         1 RES1   0.0000
    63 C24      -2.7639    0.2854   -5.5736   C.3       1 RES1   0.0000
    64 C25      -3.6798    1.4746   -5.3305   C.3       1 RES1   0.0000
    65 C26      -3.8121    1.7921   -3.8330   C.3       1 RES1   0.0000
    66 C27      -2.5515    2.2439   -3.1553   C.ar      1 RES1   0.0000
    67 N8       -2.0522    1.4020   -2.2733   N.ar      1 RES1   0.0000
    68 N9       -0.9760    1.6875   -1.5691   N.ar      1 RES1   0.0000
    69 C28      -0.3846    2.8631   -1.7463   C.ar      1 RES1   0.0000
    70 C29       0.8330    3.1021   -0.9222   C.ar      1 RES1   0.0000
    71 C30       1.5695    4.2774   -1.0434   C.ar      1 RES1   0.0000
    72 C31       2.7156    4.4169   -0.2771   C.ar      1 RES1   0.0000
    73 C32       3.1012    3.3981    0.5829   C.ar      1 RES1   0.0000
    74 C33       2.3005    2.2594    0.6671   C.ar      1 RES1   0.0000
    75 C34       2.6536    1.1264    1.5678   C.ar      1 RES1   0.0000
    76 N10       1.8579    0.0594    1.5129   N.ar      1 RES1   0.0000
    77 N11       2.1151   -0.9777    2.2846   N.ar      1 RES1   0.0000
    78 C35       3.1554   -0.9853    3.1005   C.ar      1 RES1   0.0000
    79 C36       3.2970   -2.2052    3.9596   C.3       1 RES1   0.0000
    80 C37       4.4475   -3.1531    3.5810   C.3       1 RES1   0.0000
    81 C38       4.3035   -3.7025    2.1703   C.3       1 RES1   0.0000
    82 C39       4.0162    0.1539    3.1272   C.ar      1 RES1   0.0000
    83 C40       5.2125    0.2205    4.0050   C.3       1 RES1   0.0000
    84 C41       6.5017    0.5312    3.2290   C.3       1 RES1   0.0000
    85 C42       6.8585   -0.5512    2.2195   C.3       1 RES1   0.0000
    86 N12       3.7285    1.1941    2.3537   N.ar      1 RES1   0.0000
    87 N13       1.1927    2.1315   -0.0723   N.ar      1 RES1   0.0000
    88 N14      -0.8503    3.7942   -2.5851   N.ar      1 RES1   0.0000
    89 C43      -1.9295    3.5184   -3.3112   C.ar      1 RES1   0.0000
    90 C44      -2.5182    4.5425   -4.2111   C.3       1 RES1   0.0000
    91 C45      -1.6471    4.8901   -5.4323   C.3       1 RES1   0.0000
    92 C46      -0.3486    5.5734   -5.0404   C.3       1 RES1   0.0000
    93 H32      -2.6657    0.0918   -6.6401   H         1 RES1   0.0000
    94 H33      -3.1604   -0.6095   -5.0981   H         1 RES1   0.0000
    95 H34      -1.7764    0.4838   -5.1590   H         1 RES1   0.0000
    96 H35      -4.6734    1.2493   -5.7206   H         1 RES1   0.0000
    97 H36      -3.3003    2.3401   -5.8697   H         1 RES1   0.0000
    98 H37      -4.1432    0.8877   -3.3195   H         1 RES1   0.0000
    99 H38      -4.5869    2.5517   -3.7119   H         1 RES1   0.0000
   100 H39       1.2275    5.0457   -1.7143   H         1 RES1   0.0000
   101 H40       3.3076    5.3144   -0.3340   H         1 RES1   0.0000
   102 H41       3.9918    3.4796    1.1790   H         1 RES1   0.0000
   103 H42       2.3621   -2.7597    3.8734   H         1 RES1   0.0000
   104 H43       3.4304   -1.9134    5.0032   H         1 RES1   0.0000
   105 H44       4.4457   -3.9808    4.2916   H         1 RES1   0.0000
   106 H45       5.4032   -2.6444    3.6749   H         1 RES1   0.0000
   107 H46       3.3789   -4.2680    2.0765   H         1 RES1   0.0000
   108 H47       5.1335   -4.3641    1.9327   H         1 RES1   0.0000
   109 H48       4.2883   -2.8961    1.4366   H         1 RES1   0.0000
   110 H49       5.3239   -0.7103    4.5575   H         1 RES1   0.0000
   111 H50       5.0615    1.0316    4.7215   H         1 RES1   0.0000
   112 H51       7.3129    0.6326    3.9489   H         1 RES1   0.0000
   113 H52       6.3803    1.4837    2.7169   H         1 RES1   0.0000
   114 H53       7.0761   -1.4953    2.7125   H         1 RES1   0.0000
   115 H54       7.7469   -0.2589    1.6662   H         1 RES1   0.0000
   116 H55       6.0489   -0.7118    1.5072   H         1 RES1   0.0000
   117 H56      -2.6623    5.4632   -3.6450   H         1 RES1   0.0000
   118 H57      -3.4864    4.1917   -4.5661   H         1 RES1   0.0000
   119 H58      -2.2369    5.5602   -6.0578   H         1 RES1   0.0000
   120 H59      -1.4359    3.9891   -6.0116   H         1 RES1   0.0000
   121 H60      -0.5462    6.4752   -4.4662   H         1 RES1   0.0000
   122 H61       0.2094    5.8524   -5.9295   H         1 RES1   0.0000
   123 H62       0.2744    4.9160   -4.4371   H         1 RES1   0.0000
   124 C47       0.8138    1.6865   -5.6102   C.3       1 RES1   0.0000
   125 C48       2.3093    1.9261   -5.7459   C.3       1 RES1   0.0000
   126 C49       2.9636    2.1087   -4.3686   C.3       1 RES1   0.0000
   127 C50       2.8788    0.8912   -3.5001   C.ar      1 RES1   0.0000
   128 N15       2.0530    0.9731   -2.4737   N.ar      1 RES1   0.0000
   129 N16       1.8632   -0.0384   -1.6530   N.ar      1 RES1   0.0000
   130 C51       2.4991   -1.1798   -1.8989   C.ar      1 RES1   0.0000
   131 C52       2.1269   -2.3513   -1.0679   C.ar      1 RES1   0.0000
   132 C53       2.8001   -3.5620   -1.2170   C.ar      1 RES1   0.0000
   133 C54       2.3581   -4.6581   -0.5004   C.ar      1 RES1   0.0000
   134 C55       1.2840   -4.5160    0.3649   C.ar      1 RES1   0.0000
   135 C56       0.6874   -3.2611    0.4932   C.ar      1 RES1   0.0000
   136 C57      -0.4578   -3.0598    1.4157   C.ar      1 RES1   0.0000
   137 N17      -0.9418   -1.8239    1.5308   N.ar      1 RES1   0.0000
   138 N18      -2.0114   -1.6389    2.2824   N.ar      1 RES1   0.0000
   139 C58      -2.5894   -2.6333    2.9344   C.ar      1 RES1   0.0000
   140 C59      -3.7599   -2.2503    3.7914   C.3       1 RES1   0.0000
   141 C60      -5.1169   -2.9085    3.4935   C.3       1 RES1   0.0000
   142 C61      -5.6548   -2.5843    2.1083   C.3       1 RES1   0.0000
   143 C62      -1.9968   -3.9308    2.8682   C.ar      1 RES1   0.0000
   144 C63      -2.4792   -5.0796    3.6740   C.3       1 RES1   0.0000
   145 C64      -2.8482   -6.2949    2.8076   C.3       1 RES1   0.0000
   146 C65      -4.0323   -6.0482    1.8825   C.3       1 RES1   0.0000
   147 N19      -0.9450   -4.1062    2.0818   N.ar      1 RES1   0.0000
   148 N20       1.0972   -2.2090   -0.2229   N.ar      1 RES1   0.0000
   149 N21       3.4384   -1.3056   -2.8362   N.ar      1 RES1   0.0000
   150 C66       3.6706   -0.2858   -3.6534   C.ar      1 RES1   0.0000
   151 C67       4.7465   -0.3878   -4.6732   C.3       1 RES1   0.0000
   152 C68       4.5324   -1.5358   -5.6768   C.3       1 RES1   0.0000
   153 C69       4.6219   -2.9135   -5.0430   C.3       1 RES1   0.0000
   154 H63       0.3581    1.5349   -6.5865   H         1 RES1   0.0000
   155 H64       0.3356    2.5382   -5.1322   H         1 RES1   0.0000
   156 H65       0.6275    0.8082   -4.9927   H         1 RES1   0.0000
   157 H66       2.4798    2.8261   -6.3377   H         1 RES1   0.0000
   158 H67       2.7734    1.0917   -6.2701   H         1 RES1   0.0000
   159 H68       2.4478    2.9144   -3.8453   H         1 RES1   0.0000
   160 H69       4.0041    2.4025   -4.5135   H         1 RES1   0.0000
   161 H70       3.6398   -3.6067   -1.8879   H         1 RES1   0.0000
   162 H71       2.8368   -5.6169   -0.6063   H         1 RES1   0.0000
   163 H72       0.9049   -5.3482    0.9289   H         1 RES1   0.0000
   164 H73      -3.8738   -1.1705    3.6923   H         1 RES1   0.0000
   165 H74      -3.5110   -2.4758    4.8333   H         1 RES1   0.0000
   166 H75      -5.8258   -2.5534    4.2437   H         1 RES1   0.0000
   167 H76      -5.0480   -3.9859    3.6021   H         1 RES1   0.0000
   168 H77      -5.8569   -1.5208    2.0195   H         1 RES1   0.0000
   169 H78      -6.5865   -3.1178    1.9321   H         1 RES1   0.0000
   170 H79      -4.9466   -2.8670    1.3289   H         1 RES1   0.0000
   171 H80      -3.3228   -4.7785    4.2899   H         1 RES1   0.0000
   172 H81      -1.6660   -5.3946    4.3319   H         1 RES1   0.0000
   173 H82      -3.0839   -7.1202    3.4784   H         1 RES1   0.0000
   174 H83      -1.9774   -6.5719    2.2153   H         1 RES1   0.0000
   175 H84      -4.9444   -5.8635    2.4439   H         1 RES1   0.0000
   176 H85      -4.1995   -6.9309    1.2707   H         1 RES1   0.0000
   177 H86      -3.8575   -5.2010    1.2189   H         1 RES1   0.0000
   178 H87       5.6965   -0.5689   -4.1677   H         1 RES1   0.0000
   179 H88       4.8209    0.5472   -5.2271   H         1 RES1   0.0000
   180 H89       5.3071   -1.4383   -6.4372   H         1 RES1   0.0000
   181 H90       3.5638   -1.4198   -6.1662   H         1 RES1   0.0000
   182 H91       5.5752   -3.0466   -4.5376   H         1 RES1   0.0000
   183 H92       4.5327   -3.6791   -5.8085   H         1 RES1   0.0000
   184 H93       3.8252   -3.0642   -4.3185   H         1 RES1   0.0000
@<TRIPOS>BOND
     1     1     7    1
     2     1    15    1
     3     1    26    1
     4     1    68    1
     5     1    76    1
     6     1    87    1
     7     1   129    1
     8     1   137    1
     9     1   148    1
    10     2     3    1
    11     2    32    1
    12     2    33    1
    13     2    34    1
    14     3     4    1
    15     3    35    1
    16     3    36    1
    17     4     5    1
    18     4    37    1
    19     4    38    1
    20     5     6    1
    21     5    28    2
    22     6     7    2
    23     7     8    1
    24     8     9    1
    25     8    27    2
    26     9    10    1
    27     9    26    2
    28    10    11    2
    29    10    39    1
    30    11    12    1
    31    11    40    1
    32    12    13    2
    33    12    41    1
    34    13    14    1
    35    13    26    1
    36    14    15    1
    37    14    25    2
    38    15    16    2
    39    16    17    1
    40    17    18    1
    41    17    21    2
    42    18    19    1
    43    18    42    1
    44    18    43    1
    45    19    20    1
    46    19    44    1
    47    19    45    1
    48    20    46    1
    49    20    47    1
    50    20    48    1
    51    21    22    1
    52    21    25    1
    53    22    23    1
    54    22    49    1
    55    22    50    1
    56    23    24    1
    57    23    51    1
    58    23    52    1
    59    24    53    1
    60    24    54    1
    61    24    55    1
    62    27    28    1
    63    28    29    1
    64    29    30    1
    65    29    56    1
    66    29    57    1
    67    30    31    1
    68    30    58    1
    69    30    59    1
    70    31    60    1
    71    31    61    1
    72    31    62    1
    73    63    64    1
    74    63    93    1
    75    63    94    1
    76    63    95    1
    77    64    65    1
    78    64    96    1
    79    64    97    1
    80    65    66    1
    81    65    98    1
    82    65    99    1
    83    66    67    1
    84    66    89    2
    85    67    68    2
    86    68    69    1
    87    69    70    1
    88    69    88    2
    89    70    71    1
    90    70    87    2
    91    71    72    2
    92    71   100    1
    93    72    73    1
    94    72   101    1
    95    73    74    2
    96    73   102    1
    97    74    75    1
    98    74    87    1
    99    75    76    1
   100    75    86    2
   101    76    77    2
   102    77    78    1
   103    78    79    1
   104    78    82    2
   105    79    80    1
   106    79   103    1
   107    79   104    1
   108    80    81    1
   109    80   105    1
   110    80   106    1
   111    81   107    1
   112    81   108    1
   113    81   109    1
   114    82    83    1
   115    82    86    1
   116    83    84    1
   117    83   110    1
   118    83   111    1
   119    84    85    1
   120    84   112    1
   121    84   113    1
   122    85   114    1
   123    85   115    1
   124    85   116    1
   125    88    89    1
   126    89    90    1
   127    90    91    1
   128    90   117    1
   129    90   118    1
   130    91    92    1
   131    91   119    1
   132    91   120    1
   133    92   121    1
   134    92   122    1
   135    92   123    1
   136   124   125    1
   137   124   154    1
   138   124   155    1
   139   124   156    1
   140   125   126    1
   141   125   157    1
   142   125   158    1
   143   126   127    1
   144   126   159    1
   145   126   160    1
   146   127   128    1
   147   127   150    2
   148   128   129    2
   149   129   130    1
   150   130   131    1
   151   130   149    2
   152   131   132    1
   153   131   148    2
   154   132   133    2
   155   132   161    1
   156   133   134    1
   157   133   162    1
   158   134   135    2
   159   134   163    1
   160   135   136    1
   161   135   148    1
   162   136   137    1
   163   136   147    2
   164   137   138    2
   165   138   139    1
   166   139   140    1
   167   139   143    2
   168   140   141    1
   169   140   164    1
   170   140   165    1
   171   141   142    1
   172   141   166    1
   173   141   167    1
   174   142   168    1
   175   142   169    1
   176   142   170    1
   177   143   144    1
   178   143   147    1
   179   144   145    1
   180   144   171    1
   181   144   172    1
   182   145   146    1
   183   145   173    1
   184   145   174    1
   185   146   175    1
   186   146   176    1
   187   146   177    1
   188   149   150    1
   189   150   151    1
   190   151   152    1
   191   151   178    1
   192   151   179    1
   193   152   153    1
   194   152   180    1
   195   152   181    1
   196   153   182    1
   197   153   183    1
   198   153   184    1
@<TRIPOS>SUBSTRUCTURE
     1 RES1      184 GROUP             0 ****  ****    0  
