@<TRIPOS>MOLECULE
tri_tri_mer_capped_0_nunpairedes_0_charge_3 Charge: 3 Unpaired_Electrons: 0 XTB_Unpaired_Electrons: 0 XTB_Charge: 3
   361   369     1     0     0
SMALL
NoCharges
****
Generated from Architector

@<TRIPOS>ATOM
     1 La1      -0.0727    0.1007    0.2852   La        1 RES1   0.0000
     2 C1        2.3297    6.9223   -6.1386   C.3       1 RES1   0.0000
     3 C2        3.3642    6.6836   -5.0478   C.3       1 RES1   0.0000
     4 C3        2.7692    6.0811   -3.7770   C.3       1 RES1   0.0000
     5 C4        1.8193    7.0401   -3.0621   C.3       1 RES1   0.0000
     6 C5        1.5283    6.6207   -1.6172   C.3       1 RES1   0.0000
     7 C6        0.6195    5.3876   -1.5023   C.3       1 RES1   0.0000
     8 C7       -0.8227    5.7140   -1.9005   C.3       1 RES1   0.0000
     9 C8       -1.8685    5.0397   -1.0180   C.3       1 RES1   0.0000
    10 P1       -2.2893    3.2575   -1.2783   P.3       1 RES1   0.0000
    11 O1       -1.5818    2.3359   -0.3381   O.2       1 RES1   0.0000
    12 C9       -4.1209    3.1183   -1.0048   C.3       1 RES1   0.0000
    13 C10      -5.0346    4.2698   -1.4102   C.3       1 RES1   0.0000
    14 C11      -6.4741    4.0487   -0.9087   C.3       1 RES1   0.0000
    15 C12      -7.2512    5.3785   -0.8490   C.3       1 RES1   0.0000
    16 C13      -7.9564    5.6256    0.4873   C.3       1 RES1   0.0000
    17 C14      -8.3014    7.1107    0.6442   C.3       1 RES1   0.0000
    18 C15      -7.0804    7.9855    0.9571   C.3       1 RES1   0.0000
    19 C16      -6.7648    7.9259    2.4437   C.3       1 RES1   0.0000
    20 C17      -2.1414    2.8666   -3.1147   C.3       1 RES1   0.0000
    21 C18      -0.8038    2.5513   -3.7056   C.ar      1 RES1   0.0000
    22 C19      -0.3718    3.1557   -4.8746   C.ar      1 RES1   0.0000
    23 C20       0.8931    2.8960   -5.3807   C.ar      1 RES1   0.0000
    24 C21       1.7318    2.0695   -4.6548   C.ar      1 RES1   0.0000
    25 C22       1.2690    1.4292   -3.5176   C.ar      1 RES1   0.0000
    26 C23       2.1520    0.6469   -2.6207   C.3       1 RES1   0.0000
    27 P2        2.0010   -1.2110   -2.4846   P.3       1 RES1   0.0000
    28 O2        0.9143   -1.5940   -1.5402   O.2       1 RES1   0.0000
    29 C24       1.7499   -1.9073   -4.1639   C.3       1 RES1   0.0000
    30 C25       2.2305   -3.3640   -4.1685   C.3       1 RES1   0.0000
    31 C26       1.4712   -4.2742   -5.1323   C.3       1 RES1   0.0000
    32 C27       1.6677   -3.9565   -6.6227   C.3       1 RES1   0.0000
    33 C28       0.3088   -3.9489   -7.3295   C.3       1 RES1   0.0000
    34 C29      -0.5465   -2.7341   -6.9530   C.3       1 RES1   0.0000
    35 C30      -2.0510   -2.9691   -7.0906   C.3       1 RES1   0.0000
    36 C31      -2.6185   -3.8537   -5.9839   C.3       1 RES1   0.0000
    37 C32       3.6636   -1.7730   -1.8886   C.3       1 RES1   0.0000
    38 C33       4.9239   -1.2553   -2.5857   C.3       1 RES1   0.0000
    39 C34       6.1856   -2.0319   -2.1807   C.3       1 RES1   0.0000
    40 C35       6.6997   -1.7126   -0.7735   C.3       1 RES1   0.0000
    41 C36       7.4587   -0.3869   -0.6793   C.3       1 RES1   0.0000
    42 C37       7.8055   -0.0689    0.7726   C.3       1 RES1   0.0000
    43 C38       8.4545    1.3045    0.9357   C.3       1 RES1   0.0000
    44 C39       8.4272    1.7829    2.3821   C.3       1 RES1   0.0000
    45 N1       -0.0124    1.6208   -3.1105   N.ar      1 RES1   0.0000
    46 O3       -0.4770    0.8960   -2.1408   O.co2     1 RES1   0.0000
    47 H1        2.8179    7.2494   -7.0522   H         1 RES1   0.0000
    48 H2        1.6208    7.6905   -5.8431   H         1 RES1   0.0000
    49 H3        1.7776    6.0079   -6.3479   H         1 RES1   0.0000
    50 H4        3.8492    7.6271   -4.7993   H         1 RES1   0.0000
    51 H5        4.1392    6.0146   -5.4250   H         1 RES1   0.0000
    52 H6        3.5887    5.8379   -3.0984   H         1 RES1   0.0000
    53 H7        2.2478    5.1525   -4.0270   H         1 RES1   0.0000
    54 H8        0.8845    7.1266   -3.6158   H         1 RES1   0.0000
    55 H9        2.2753    8.0307   -3.0422   H         1 RES1   0.0000
    56 H10       1.0563    7.4557   -1.0897   H         1 RES1   0.0000
    57 H11       2.4766    6.4347   -1.1027   H         1 RES1   0.0000
    58 H12       0.6277    5.0308   -0.4666   H         1 RES1   0.0000
    59 H13       0.9920    4.5772   -2.1364   H         1 RES1   0.0000
    60 H14      -0.9952    5.4644   -2.9471   H         1 RES1   0.0000
    61 H15      -0.9677    6.7926   -1.8059   H         1 RES1   0.0000
    62 H16      -2.7955    5.5992   -1.1390   H         1 RES1   0.0000
    63 H17      -1.5657    5.1105    0.0298   H         1 RES1   0.0000
    64 H18      -4.2332    2.9691    0.0704   H         1 RES1   0.0000
    65 H19      -4.4569    2.2036   -1.4942   H         1 RES1   0.0000
    66 H20      -5.0379    4.4117   -2.4921   H         1 RES1   0.0000
    67 H21      -4.6688    5.1907   -0.9547   H         1 RES1   0.0000
    68 H22      -6.4346    3.6063    0.0910   H         1 RES1   0.0000
    69 H23      -7.0053    3.3355   -1.5424   H         1 RES1   0.0000
    70 H24      -7.9842    5.4324   -1.6574   H         1 RES1   0.0000
    71 H25      -6.5472    6.1944   -1.0107   H         1 RES1   0.0000
    72 H26      -7.3190    5.3127    1.3187   H         1 RES1   0.0000
    73 H27      -8.8698    5.0297    0.5381   H         1 RES1   0.0000
    74 H28      -9.0137    7.2300    1.4601   H         1 RES1   0.0000
    75 H29      -8.7810    7.4609   -0.2691   H         1 RES1   0.0000
    76 H30      -7.2810    9.0162    0.6637   H         1 RES1   0.0000
    77 H31      -6.2059    7.6708    0.3811   H         1 RES1   0.0000
    78 H32      -7.5893    8.3570    3.0037   H         1 RES1   0.0000
    79 H33      -5.8531    8.4671    2.6884   H         1 RES1   0.0000
    80 H34      -6.6442    6.8937    2.7668   H         1 RES1   0.0000
    81 H35      -2.5580    3.7330   -3.6286   H         1 RES1   0.0000
    82 H36      -2.8278    2.0382   -3.3011   H         1 RES1   0.0000
    83 H37      -1.0228    3.8529   -5.3789   H         1 RES1   0.0000
    84 H38       1.2475    3.3646   -6.2839   H         1 RES1   0.0000
    85 H39       2.7585    1.9258   -4.9636   H         1 RES1   0.0000
    86 H40       1.9320    0.9567   -1.5881   H         1 RES1   0.0000
    87 H41       3.1901    0.8446   -2.8864   H         1 RES1   0.0000
    88 H42       2.2503   -1.3131   -4.9283   H         1 RES1   0.0000
    89 H43       0.6714   -1.8560   -4.3435   H         1 RES1   0.0000
    90 H44       2.0934   -3.7835   -3.1658   H         1 RES1   0.0000
    91 H45       3.2917   -3.3992   -4.4149   H         1 RES1   0.0000
    92 H46       0.4084   -4.2116   -4.8962   H         1 RES1   0.0000
    93 H47       1.7865   -5.3012   -4.9398   H         1 RES1   0.0000
    94 H48       2.3113   -4.7146   -7.0793   H         1 RES1   0.0000
    95 H49       2.1661   -2.9937   -6.7506   H         1 RES1   0.0000
    96 H50      -0.2024   -4.8694   -7.0463   H         1 RES1   0.0000
    97 H51       0.4535   -3.9719   -8.4083   H         1 RES1   0.0000
    98 H52      -0.2622   -1.8875   -7.5814   H         1 RES1   0.0000
    99 H53      -0.3551   -2.4475   -5.9166   H         1 RES1   0.0000
   100 H54      -2.2647   -3.4178   -8.0607   H         1 RES1   0.0000
   101 H55      -2.5530   -1.9984   -7.0498   H         1 RES1   0.0000
   102 H56      -2.1784   -4.8473   -6.0123   H         1 RES1   0.0000
   103 H57      -3.6925   -3.9633   -6.1038   H         1 RES1   0.0000
   104 H58      -2.4307   -3.4133   -5.0018   H         1 RES1   0.0000
   105 H59       3.6343   -2.8631   -1.9825   H         1 RES1   0.0000
   106 H60       3.6815   -1.5452   -0.8245   H         1 RES1   0.0000
   107 H61       5.0904   -0.2020   -2.3526   H         1 RES1   0.0000
   108 H62       4.8032   -1.3448   -3.6654   H         1 RES1   0.0000
   109 H63       6.9791   -1.7950   -2.8925   H         1 RES1   0.0000
   110 H64       6.0020   -3.1069   -2.2503   H         1 RES1   0.0000
   111 H65       7.3849   -2.5016   -0.4569   H         1 RES1   0.0000
   112 H66       5.8688   -1.6969   -0.0590   H         1 RES1   0.0000
   113 H67       6.8585    0.4309   -1.0899   H         1 RES1   0.0000
   114 H68       8.3794   -0.4420   -1.2619   H         1 RES1   0.0000
   115 H69       8.4740   -0.8379    1.1608   H         1 RES1   0.0000
   116 H70       6.8903   -0.1168    1.3690   H         1 RES1   0.0000
   117 H71       7.9320    2.0294    0.3011   H         1 RES1   0.0000
   118 H72       9.4887    1.2536    0.5903   H         1 RES1   0.0000
   119 H73       7.3998    1.9193    2.7264   H         1 RES1   0.0000
   120 H74       8.9411    2.7348    2.4749   H         1 RES1   0.0000
   121 H75       8.9225    1.0633    3.0302   H         1 RES1   0.0000
   122 C40      -4.5684   -5.8192    4.4871   C.3       1 RES1   0.0000
   123 C41      -3.9072   -6.9380    3.6875   C.3       1 RES1   0.0000
   124 C42      -3.7903   -6.6194    2.1948   C.3       1 RES1   0.0000
   125 C43      -5.1522   -6.4677    1.5205   C.3       1 RES1   0.0000
   126 C44      -5.1095   -6.4064   -0.0084   C.3       1 RES1   0.0000
   127 C45      -4.1879   -5.3512   -0.6364   C.3       1 RES1   0.0000
   128 C46      -4.3023   -3.9415   -0.0286   C.3       1 RES1   0.0000
   129 C47      -4.2302   -2.8518   -1.1046   C.3       1 RES1   0.0000
   130 P3       -3.1796   -1.3473   -0.8896   P.3       1 RES1   0.0000
   131 O4       -1.7805   -1.6005   -0.4370   O.2       1 RES1   0.0000
   132 C48      -3.1861   -0.6404   -2.5837   C.3       1 RES1   0.0000
   133 C49      -4.5184   -0.1766   -3.1701   C.3       1 RES1   0.0000
   134 C50      -4.5222   -0.1587   -4.7126   C.3       1 RES1   0.0000
   135 C51      -5.4442   -1.2337   -5.2894   C.3       1 RES1   0.0000
   136 C52      -5.6265   -1.0976   -6.7994   C.3       1 RES1   0.0000
   137 C53      -6.7289   -2.0111   -7.3425   C.3       1 RES1   0.0000
   138 C54      -6.3439   -3.4886   -7.4533   C.3       1 RES1   0.0000
   139 C55      -5.4388   -3.7679   -8.6467   C.3       1 RES1   0.0000
   140 C56      -3.8859   -0.0909    0.2990   C.3       1 RES1   0.0000
   141 C57      -3.7371   -0.6266    1.6777   C.ar      1 RES1   0.0000
   142 C58      -4.6767   -1.4973    2.2031   C.ar      1 RES1   0.0000
   143 C59      -4.5353   -2.0129    3.4778   C.ar      1 RES1   0.0000
   144 C60      -3.4309   -1.6226    4.2123   C.ar      1 RES1   0.0000
   145 C61      -2.5056   -0.7459    3.6755   C.ar      1 RES1   0.0000
   146 C62      -1.3614   -0.3080    4.5210   C.3       1 RES1   0.0000
   147 P4        0.0333    0.7563    3.8837   P.3       1 RES1   0.0000
   148 O5        0.8120    0.4329    2.6472   O.2       1 RES1   0.0000
   149 C63      -0.5644    2.4753    4.1181   C.3       1 RES1   0.0000
   150 C64      -1.0008    3.3312    2.9399   C.3       1 RES1   0.0000
   151 C65      -0.9686    4.8168    3.3422   C.3       1 RES1   0.0000
   152 C66      -1.4743    5.1764    4.7505   C.3       1 RES1   0.0000
   153 C67      -2.9840    5.2499    5.0180   C.3       1 RES1   0.0000
   154 C68      -3.8304    4.0266    4.6253   C.3       1 RES1   0.0000
   155 C69      -4.8641    4.3380    3.5378   C.3       1 RES1   0.0000
   156 C70      -4.2473    4.9138    2.2697   C.3       1 RES1   0.0000
   157 C71       1.1820    0.6540    5.3375   C.3       1 RES1   0.0000
   158 C72       1.9536   -0.6530    5.5295   C.3       1 RES1   0.0000
   159 C73       3.2215   -0.4047    6.3486   C.3       1 RES1   0.0000
   160 C74       4.0924   -1.6178    6.7730   C.3       1 RES1   0.0000
   161 C75       3.6668   -3.0172    6.3137   C.3       1 RES1   0.0000
   162 C76       4.8544   -3.9758    6.1183   C.3       1 RES1   0.0000
   163 C77       4.6042   -5.0650    5.0541   C.3       1 RES1   0.0000
   164 C78       4.8388   -6.4718    5.5797   C.3       1 RES1   0.0000
   165 N2       -2.6614   -0.2664    2.4260   N.ar      1 RES1   0.0000
   166 O6       -1.7921    0.5954    1.9842   O.co2     1 RES1   0.0000
   167 H76      -4.5829   -6.0686    5.5460   H         1 RES1   0.0000
   168 H77      -5.5973   -5.6707    4.1670   H         1 RES1   0.0000
   169 H78      -4.0212   -4.8834    4.3554   H         1 RES1   0.0000
   170 H79      -4.4831   -7.8544    3.8131   H         1 RES1   0.0000
   171 H80      -2.9074   -7.1224    4.0912   H         1 RES1   0.0000
   172 H81      -3.2378   -7.4266    1.7079   H         1 RES1   0.0000
   173 H82      -3.2140   -5.6972    2.0724   H         1 RES1   0.0000
   174 H83      -5.6483   -5.5743    1.8998   H         1 RES1   0.0000
   175 H84      -5.7689   -7.3248    1.7970   H         1 RES1   0.0000
   176 H85      -6.1327   -6.2337   -0.3532   H         1 RES1   0.0000
   177 H86      -4.8082   -7.3823   -0.3961   H         1 RES1   0.0000
   178 H87      -4.4488   -5.3107   -1.6948   H         1 RES1   0.0000
   179 H88      -3.1555   -5.6855   -0.5713   H         1 RES1   0.0000
   180 H89      -3.5034   -3.7907    0.6988   H         1 RES1   0.0000
   181 H90      -5.2515   -3.8646    0.5040   H         1 RES1   0.0000
   182 H91      -5.2332   -2.5099   -1.3620   H         1 RES1   0.0000
   183 H92      -3.7941   -3.2796   -2.0144   H         1 RES1   0.0000
   184 H93      -2.7826   -1.4554   -3.1957   H         1 RES1   0.0000
   185 H94      -2.4240    0.1418   -2.5639   H         1 RES1   0.0000
   186 H95      -4.7633    0.8182   -2.7967   H         1 RES1   0.0000
   187 H96      -5.3139   -0.8441   -2.8352   H         1 RES1   0.0000
   188 H97      -3.5125   -0.3095   -5.1031   H         1 RES1   0.0000
   189 H98      -4.8610    0.8161   -5.0678   H         1 RES1   0.0000
   190 H99      -6.4260   -1.1563   -4.8148   H         1 RES1   0.0000
   191 H100     -5.0380   -2.2182   -5.0540   H         1 RES1   0.0000
   192 H101     -4.6834   -1.3096   -7.3068   H         1 RES1   0.0000
   193 H102     -5.8938   -0.0616   -7.0227   H         1 RES1   0.0000
   194 H103     -7.0125   -1.6584   -8.3351   H         1 RES1   0.0000
   195 H104     -7.6067   -1.9172   -6.6993   H         1 RES1   0.0000
   196 H105     -7.2568   -4.0760   -7.5612   H         1 RES1   0.0000
   197 H106     -5.8586   -3.8176   -6.5326   H         1 RES1   0.0000
   198 H107     -5.9445   -3.4981   -9.5692   H         1 RES1   0.0000
   199 H108     -5.1803   -4.8226   -8.6985   H         1 RES1   0.0000
   200 H109     -4.5183   -3.1938   -8.5865   H         1 RES1   0.0000
   201 H110     -4.9289    0.1195    0.0721   H         1 RES1   0.0000
   202 H111     -3.2688    0.8042    0.1601   H         1 RES1   0.0000
   203 H112     -5.5356   -1.7520    1.6043   H         1 RES1   0.0000
   204 H113     -5.2609   -2.6909    3.8965   H         1 RES1   0.0000
   205 H114     -3.3057   -1.9699    5.2253   H         1 RES1   0.0000
   206 H115     -0.9211   -1.1798    5.0064   H         1 RES1   0.0000
   207 H116     -1.7834    0.2946    5.3330   H         1 RES1   0.0000
   208 H117      0.2701    2.9774    4.6112   H         1 RES1   0.0000
   209 H118     -1.3714    2.4196    4.8508   H         1 RES1   0.0000
   210 H119     -1.9922    3.0247    2.6166   H         1 RES1   0.0000
   211 H120     -0.3337    3.1618    2.0887   H         1 RES1   0.0000
   212 H121     -1.5241    5.3977    2.6105   H         1 RES1   0.0000
   213 H122      0.0756    5.1398    3.2961   H         1 RES1   0.0000
   214 H123     -1.0862    6.1738    4.9690   H         1 RES1   0.0000
   215 H124     -1.0239    4.5038    5.4801   H         1 RES1   0.0000
   216 H125     -3.3989    6.1309    4.5289   H         1 RES1   0.0000
   217 H126     -3.0880    5.4292    6.0900   H         1 RES1   0.0000
   218 H127     -4.3696    3.6509    5.4991   H         1 RES1   0.0000
   219 H128     -3.1877    3.2202    4.2836   H         1 RES1   0.0000
   220 H129     -5.5822    5.0532    3.9406   H         1 RES1   0.0000
   221 H130     -5.4071    3.4160    3.3039   H         1 RES1   0.0000
   222 H131     -3.7084    5.8273    2.5007   H         1 RES1   0.0000
   223 H132     -5.0213    5.1532    1.5487   H         1 RES1   0.0000
   224 H133     -3.5589    4.2040    1.8174   H         1 RES1   0.0000
   225 H134      0.6489    0.9265    6.2513   H         1 RES1   0.0000
   226 H135      1.9100    1.4454    5.1401   H         1 RES1   0.0000
   227 H136      2.2036   -1.0473    4.5436   H         1 RES1   0.0000
   228 H137      1.3353   -1.3770    6.0555   H         1 RES1   0.0000
   229 H138      2.9128    0.1227    7.2530   H         1 RES1   0.0000
   230 H139      3.8466    0.2804    5.7713   H         1 RES1   0.0000
   231 H140      4.1679   -1.6461    7.8594   H         1 RES1   0.0000
   232 H141      5.1109   -1.4335    6.4248   H         1 RES1   0.0000
   233 H142      3.1006   -2.9487    5.3914   H         1 RES1   0.0000
   234 H143      3.0083   -3.4578    7.0604   H         1 RES1   0.0000
   235 H144      5.0716   -4.4482    7.0767   H         1 RES1   0.0000
   236 H145      5.7536   -3.4195    5.8454   H         1 RES1   0.0000
   237 H146      5.2594   -4.9115    4.1908   H         1 RES1   0.0000
   238 H147      3.5683   -5.0151    4.7054   H         1 RES1   0.0000
   239 H148      5.8523   -6.5803    5.9588   H         1 RES1   0.0000
   240 H149      4.6922   -7.1889    4.7741   H         1 RES1   0.0000
   241 H150      4.1362   -6.6936    6.3827   H         1 RES1   0.0000
   242 C79       5.9182   -6.1881   -1.1881   C.3       1 RES1   0.0000
   243 C80       5.0132   -7.2354   -1.8290   C.3       1 RES1   0.0000
   244 C81       3.6708   -7.3603   -1.1090   C.3       1 RES1   0.0000
   245 C82       2.7357   -6.1997   -1.4390   C.3       1 RES1   0.0000
   246 C83       1.5379   -6.1359   -0.4954   C.3       1 RES1   0.0000
   247 C84       0.6406   -4.9360   -0.7965   C.3       1 RES1   0.0000
   248 C85      -0.5635   -4.8326    0.1372   C.3       1 RES1   0.0000
   249 C86      -0.2491   -4.7684    1.6263   C.3       1 RES1   0.0000
   250 P5        0.3728   -3.1734    2.2830   P.3       1 RES1   0.0000
   251 O7       -0.3604   -1.9658    1.8033   O.2       1 RES1   0.0000
   252 C87       0.0550   -3.3699    4.0984   C.3       1 RES1   0.0000
   253 C88       0.4091   -4.6534    4.8462   C.3       1 RES1   0.0000
   254 C89      -0.2339   -4.7358    6.2446   C.3       1 RES1   0.0000
   255 C90       0.1907   -3.6245    7.2163   C.3       1 RES1   0.0000
   256 C91       0.2702   -4.0657    8.6881   C.3       1 RES1   0.0000
   257 C92       1.2794   -3.2608    9.5181   C.3       1 RES1   0.0000
   258 C93       0.9800   -1.7656    9.6097   C.3       1 RES1   0.0000
   259 C94       2.1122   -1.0033   10.2917   C.3       1 RES1   0.0000
   260 C95       2.1843   -3.1124    1.7888   C.3       1 RES1   0.0000
   261 C96       3.0800   -1.9851    2.1801   C.ar      1 RES1   0.0000
   262 C97       4.0695   -2.1728    3.1303   C.ar      1 RES1   0.0000
   263 C98       4.9271   -1.1456    3.4767   C.ar      1 RES1   0.0000
   264 C99       4.8616    0.0354    2.7605   C.ar      1 RES1   0.0000
   265 C100      3.9703    0.1558    1.7073   C.ar      1 RES1   0.0000
   266 C101      4.1686    1.1777    0.6407   C.3       1 RES1   0.0000
   267 P6        2.9824    2.5948    0.3989   P.3       1 RES1   0.0000
   268 O8        1.5584    2.1568    0.2343   O.2       1 RES1   0.0000
   269 C102      3.6298    3.4458   -1.1075   C.3       1 RES1   0.0000
   270 C103      5.0815    3.9524   -1.0885   C.3       1 RES1   0.0000
   271 C104      5.3095    5.3527   -0.4837   C.3       1 RES1   0.0000
   272 C105      6.5976    5.4606    0.3461   C.3       1 RES1   0.0000
   273 C106      7.8550    5.5565   -0.5247   C.3       1 RES1   0.0000
   274 C107      9.1343    5.1417    0.2018   C.3       1 RES1   0.0000
   275 C108      9.4428    5.9262    1.4748   C.3       1 RES1   0.0000
   276 C109     10.7866    5.5138    2.0648   C.3       1 RES1   0.0000
   277 C110      3.3234    3.8027    1.7206   C.3       1 RES1   0.0000
   278 C111      2.9371    3.3772    3.1210   C.3       1 RES1   0.0000
   279 C112      3.4157    4.4272    4.1234   C.3       1 RES1   0.0000
   280 C113      2.7183    4.3080    5.4744   C.3       1 RES1   0.0000
   281 C114      3.1792    5.3600    6.4900   C.3       1 RES1   0.0000
   282 C115      4.2494    4.8542    7.4614   C.3       1 RES1   0.0000
   283 C116      4.1333    5.5513    8.8169   C.3       1 RES1   0.0000
   284 C117      5.1501    5.0302    9.8241   C.3       1 RES1   0.0000
   285 N3        3.0367   -0.8070    1.5023   N.ar      1 RES1   0.0000
   286 O9        2.1952   -0.6402    0.5251   O.co2     1 RES1   0.0000
   287 H151      6.8546   -6.1072   -1.7334   H         1 RES1   0.0000
   288 H152      6.1457   -6.4639   -0.1606   H         1 RES1   0.0000
   289 H153      5.4444   -5.2075   -1.1805   H         1 RES1   0.0000
   290 H154      5.5261   -8.1969   -1.8010   H         1 RES1   0.0000
   291 H155      4.8390   -6.9814   -2.8774   H         1 RES1   0.0000
   292 H156      3.8487   -7.3955   -0.0321   H         1 RES1   0.0000
   293 H157      3.1911   -8.2968   -1.3943   H         1 RES1   0.0000
   294 H158      2.3886   -6.2993   -2.4686   H         1 RES1   0.0000
   295 H159      3.2819   -5.2556   -1.3607   H         1 RES1   0.0000
   296 H160      1.9189   -6.0822    0.5286   H         1 RES1   0.0000
   297 H161      0.9463   -7.0519   -0.5817   H         1 RES1   0.0000
   298 H162      0.2588   -5.0413   -1.8149   H         1 RES1   0.0000
   299 H163      1.2110   -4.0048   -0.7739   H         1 RES1   0.0000
   300 H164     -1.1804   -5.7196   -0.0265   H         1 RES1   0.0000
   301 H165     -1.1349   -3.9433   -0.1345   H         1 RES1   0.0000
   302 H166      0.4268   -5.5663    1.9261   H         1 RES1   0.0000
   303 H167     -1.1817   -4.9218    2.1759   H         1 RES1   0.0000
   304 H168     -1.0323   -3.2326    4.1320   H         1 RES1   0.0000
   305 H169      0.5187   -2.5148    4.5829   H         1 RES1   0.0000
   306 H170      1.4904   -4.7316    4.9594   H         1 RES1   0.0000
   307 H171      0.0611   -5.5218    4.2863   H         1 RES1   0.0000
   308 H172      0.0660   -5.6957    6.6688   H         1 RES1   0.0000
   309 H173     -1.3217   -4.7520    6.1564   H         1 RES1   0.0000
   310 H174     -0.4848   -2.7697    7.1336   H         1 RES1   0.0000
   311 H175      1.1823   -3.2922    6.9309   H         1 RES1   0.0000
   312 H176      0.5818   -5.1110    8.7243   H         1 RES1   0.0000
   313 H177     -0.7122   -4.0024    9.1576   H         1 RES1   0.0000
   314 H178      2.2805   -3.4029    9.0999   H         1 RES1   0.0000
   315 H179      1.2969   -3.6742   10.5293   H         1 RES1   0.0000
   316 H180      0.0582   -1.6205   10.1770   H         1 RES1   0.0000
   317 H181      0.8279   -1.3491    8.6095   H         1 RES1   0.0000
   318 H182      2.3132   -1.4061   11.2801   H         1 RES1   0.0000
   319 H183      1.8568    0.0485   10.3987   H         1 RES1   0.0000
   320 H184      3.0325   -1.0675    9.7136   H         1 RES1   0.0000
   321 H185      2.1284   -3.1440    0.6952   H         1 RES1   0.0000
   322 H186      2.6171   -4.0422    2.1588   H         1 RES1   0.0000
   323 H187      4.1726   -3.1339    3.5976   H         1 RES1   0.0000
   324 H188      5.6597   -1.2839    4.2522   H         1 RES1   0.0000
   325 H189      5.5492    0.8374    2.9775   H         1 RES1   0.0000
   326 H190      4.1451    0.6448   -0.3174   H         1 RES1   0.0000
   327 H191      5.1644    1.6069    0.7678   H         1 RES1   0.0000
   328 H192      2.9442    4.2703   -1.2913   H         1 RES1   0.0000
   329 H193      3.5057    2.7572   -1.9429   H         1 RES1   0.0000
   330 H194      5.4255    3.9745   -2.1246   H         1 RES1   0.0000
   331 H195      5.7037    3.2261   -0.5654   H         1 RES1   0.0000
   332 H196      4.4647    5.6368    0.1416   H         1 RES1   0.0000
   333 H197      5.3708    6.0888   -1.2861   H         1 RES1   0.0000
   334 H198      6.6810    4.6018    1.0228   H         1 RES1   0.0000
   335 H199      6.5322    6.3579    0.9653   H         1 RES1   0.0000
   336 H200      7.9609    6.5813   -0.8841   H         1 RES1   0.0000
   337 H201      7.7373    4.9095   -1.3981   H         1 RES1   0.0000
   338 H202      9.9647    5.2662   -0.4922   H         1 RES1   0.0000
   339 H203      9.0686    4.0809    0.4470   H         1 RES1   0.0000
   340 H204      8.6589    5.7567    2.2160   H         1 RES1   0.0000
   341 H205      9.4593    6.9945    1.2540   H         1 RES1   0.0000
   342 H206     10.8025    4.4502    2.2912   H         1 RES1   0.0000
   343 H207     10.9864    6.0586    2.9827   H         1 RES1   0.0000
   344 H208     11.5914    5.7206    1.3652   H         1 RES1   0.0000
   345 H209      2.7945    4.7237    1.4653   H         1 RES1   0.0000
   346 H210      4.3903    4.0160    1.6812   H         1 RES1   0.0000
   347 H211      3.3649    2.4005    3.3555   H         1 RES1   0.0000
   348 H212      1.8543    3.2771    3.1534   H         1 RES1   0.0000
   349 H213      3.2169    5.4231    3.7225   H         1 RES1   0.0000
   350 H214      4.4961    4.3450    4.2516   H         1 RES1   0.0000
   351 H215      2.8872    3.3079    5.8788   H         1 RES1   0.0000
   352 H216      1.6421    4.4248    5.3179   H         1 RES1   0.0000
   353 H217      2.3118    5.6819    7.0702   H         1 RES1   0.0000
   354 H218      3.5498    6.2349    5.9565   H         1 RES1   0.0000
   355 H219      5.2476    5.0172    7.0505   H         1 RES1   0.0000
   356 H220      4.1304    3.7778    7.6121   H         1 RES1   0.0000
   357 H221      3.1263    5.3874    9.2115   H         1 RES1   0.0000
   358 H222      4.2673    6.6268    8.6846   H         1 RES1   0.0000
   359 H223      5.0759    3.9486    9.9203   H         1 RES1   0.0000
   360 H224      4.9690    5.4681   10.8017   H         1 RES1   0.0000
   361 H225      6.1624    5.2789    9.5156   H         1 RES1   0.0000
@<TRIPOS>BOND
     1     1    11    1
     2     1    28    1
     3     1    46    1
     4     1   131    1
     5     1   148    1
     6     1   166    1
     7     1   251    1
     8     1   268    1
     9     1   286    1
    10     2     3    1
    11     2    47    1
    12     2    48    1
    13     2    49    1
    14     3     4    1
    15     3    50    1
    16     3    51    1
    17     4     5    1
    18     4    52    1
    19     4    53    1
    20     5     6    1
    21     5    54    1
    22     5    55    1
    23     6     7    1
    24     6    56    1
    25     6    57    1
    26     7     8    1
    27     7    58    1
    28     7    59    1
    29     8     9    1
    30     8    60    1
    31     8    61    1
    32     9    10    1
    33     9    62    1
    34     9    63    1
    35    10    11    2
    36    10    12    1
    37    10    20    1
    38    12    13    1
    39    12    64    1
    40    12    65    1
    41    13    14    1
    42    13    66    1
    43    13    67    1
    44    14    15    1
    45    14    68    1
    46    14    69    1
    47    15    16    1
    48    15    70    1
    49    15    71    1
    50    16    17    1
    51    16    72    1
    52    16    73    1
    53    17    18    1
    54    17    74    1
    55    17    75    1
    56    18    19    1
    57    18    76    1
    58    18    77    1
    59    19    78    1
    60    19    79    1
    61    19    80    1
    62    20    21    1
    63    20    81    1
    64    20    82    1
    65    21    22    1
    66    21    45    2
    67    22    23    2
    68    22    83    1
    69    23    24    1
    70    23    84    1
    71    24    25    2
    72    24    85    1
    73    25    26    1
    74    25    45    1
    75    26    27    1
    76    26    86    1
    77    26    87    1
    78    27    28    2
    79    27    29    1
    80    27    37    1
    81    29    30    1
    82    29    88    1
    83    29    89    1
    84    30    31    1
    85    30    90    1
    86    30    91    1
    87    31    32    1
    88    31    92    1
    89    31    93    1
    90    32    33    1
    91    32    94    1
    92    32    95    1
    93    33    34    1
    94    33    96    1
    95    33    97    1
    96    34    35    1
    97    34    98    1
    98    34    99    1
    99    35    36    1
   100    35   100    1
   101    35   101    1
   102    36   102    1
   103    36   103    1
   104    36   104    1
   105    37    38    1
   106    37   105    1
   107    37   106    1
   108    38    39    1
   109    38   107    1
   110    38   108    1
   111    39    40    1
   112    39   109    1
   113    39   110    1
   114    40    41    1
   115    40   111    1
   116    40   112    1
   117    41    42    1
   118    41   113    1
   119    41   114    1
   120    42    43    1
   121    42   115    1
   122    42   116    1
   123    43    44    1
   124    43   117    1
   125    43   118    1
   126    44   119    1
   127    44   120    1
   128    44   121    1
   129    45    46    1
   130   122   123    1
   131   122   167    1
   132   122   168    1
   133   122   169    1
   134   123   124    1
   135   123   170    1
   136   123   171    1
   137   124   125    1
   138   124   172    1
   139   124   173    1
   140   125   126    1
   141   125   174    1
   142   125   175    1
   143   126   127    1
   144   126   176    1
   145   126   177    1
   146   127   128    1
   147   127   178    1
   148   127   179    1
   149   128   129    1
   150   128   180    1
   151   128   181    1
   152   129   130    1
   153   129   182    1
   154   129   183    1
   155   130   131    2
   156   130   132    1
   157   130   140    1
   158   132   133    1
   159   132   184    1
   160   132   185    1
   161   133   134    1
   162   133   186    1
   163   133   187    1
   164   134   135    1
   165   134   188    1
   166   134   189    1
   167   135   136    1
   168   135   190    1
   169   135   191    1
   170   136   137    1
   171   136   192    1
   172   136   193    1
   173   137   138    1
   174   137   194    1
   175   137   195    1
   176   138   139    1
   177   138   196    1
   178   138   197    1
   179   139   198    1
   180   139   199    1
   181   139   200    1
   182   140   141    1
   183   140   201    1
   184   140   202    1
   185   141   142    1
   186   141   165    2
   187   142   143    2
   188   142   203    1
   189   143   144    1
   190   143   204    1
   191   144   145    2
   192   144   205    1
   193   145   146    1
   194   145   165    1
   195   146   147    1
   196   146   206    1
   197   146   207    1
   198   147   148    2
   199   147   149    1
   200   147   157    1
   201   149   150    1
   202   149   208    1
   203   149   209    1
   204   150   151    1
   205   150   210    1
   206   150   211    1
   207   151   152    1
   208   151   212    1
   209   151   213    1
   210   152   153    1
   211   152   214    1
   212   152   215    1
   213   153   154    1
   214   153   216    1
   215   153   217    1
   216   154   155    1
   217   154   218    1
   218   154   219    1
   219   155   156    1
   220   155   220    1
   221   155   221    1
   222   156   222    1
   223   156   223    1
   224   156   224    1
   225   157   158    1
   226   157   225    1
   227   157   226    1
   228   158   159    1
   229   158   227    1
   230   158   228    1
   231   159   160    1
   232   159   229    1
   233   159   230    1
   234   160   161    1
   235   160   231    1
   236   160   232    1
   237   161   162    1
   238   161   233    1
   239   161   234    1
   240   162   163    1
   241   162   235    1
   242   162   236    1
   243   163   164    1
   244   163   237    1
   245   163   238    1
   246   164   239    1
   247   164   240    1
   248   164   241    1
   249   165   166    1
   250   242   243    1
   251   242   287    1
   252   242   288    1
   253   242   289    1
   254   243   244    1
   255   243   290    1
   256   243   291    1
   257   244   245    1
   258   244   292    1
   259   244   293    1
   260   245   246    1
   261   245   294    1
   262   245   295    1
   263   246   247    1
   264   246   296    1
   265   246   297    1
   266   247   248    1
   267   247   298    1
   268   247   299    1
   269   248   249    1
   270   248   300    1
   271   248   301    1
   272   249   250    1
   273   249   302    1
   274   249   303    1
   275   250   251    2
   276   250   252    1
   277   250   260    1
   278   252   253    1
   279   252   304    1
   280   252   305    1
   281   253   254    1
   282   253   306    1
   283   253   307    1
   284   254   255    1
   285   254   308    1
   286   254   309    1
   287   255   256    1
   288   255   310    1
   289   255   311    1
   290   256   257    1
   291   256   312    1
   292   256   313    1
   293   257   258    1
   294   257   314    1
   295   257   315    1
   296   258   259    1
   297   258   316    1
   298   258   317    1
   299   259   318    1
   300   259   319    1
   301   259   320    1
   302   260   261    1
   303   260   321    1
   304   260   322    1
   305   261   262    1
   306   261   285    2
   307   262   263    2
   308   262   323    1
   309   263   264    1
   310   263   324    1
   311   264   265    2
   312   264   325    1
   313   265   266    1
   314   265   285    1
   315   266   267    1
   316   266   326    1
   317   266   327    1
   318   267   268    2
   319   267   269    1
   320   267   277    1
   321   269   270    1
   322   269   328    1
   323   269   329    1
   324   270   271    1
   325   270   330    1
   326   270   331    1
   327   271   272    1
   328   271   332    1
   329   271   333    1
   330   272   273    1
   331   272   334    1
   332   272   335    1
   333   273   274    1
   334   273   336    1
   335   273   337    1
   336   274   275    1
   337   274   338    1
   338   274   339    1
   339   275   276    1
   340   275   340    1
   341   275   341    1
   342   276   342    1
   343   276   343    1
   344   276   344    1
   345   277   278    1
   346   277   345    1
   347   277   346    1
   348   278   279    1
   349   278   347    1
   350   278   348    1
   351   279   280    1
   352   279   349    1
   353   279   350    1
   354   280   281    1
   355   280   351    1
   356   280   352    1
   357   281   282    1
   358   281   353    1
   359   281   354    1
   360   282   283    1
   361   282   355    1
   362   282   356    1
   363   283   284    1
   364   283   357    1
   365   283   358    1
   366   284   359    1
   367   284   360    1
   368   284   361    1
   369   285   286    1
@<TRIPOS>SUBSTRUCTURE
     1 RES1      361 GROUP             0 ****  ****    0  
