@<TRIPOS>MOLECULE
am_c3_9H2O_c0_0_nunpairedes_0_charge_3 Charge: 3 Unpaired_Electrons: 0 XTB_Unpaired_Electrons: 0 XTB_Charge: 3
   439   444     1     0     0
SMALL
NoCharges
****
Generated from Architector

@<TRIPOS>ATOM
     1 La1      -0.0040   -0.2764   -0.0051   La        1 RES1   0.0000
     2 C1       -5.0343    8.8020   -4.7976   C.3       1 RES1   0.0000
     3 C2       -3.8904    9.6047   -4.1884   C.3       1 RES1   0.0000
     4 C3       -4.1764   10.0801   -2.7572   C.3       1 RES1   0.0000
     5 C4       -4.2795    8.9831   -1.6800   C.3       1 RES1   0.0000
     6 C5       -2.9716    8.8200   -0.9016   C.3       1 RES1   0.0000
     7 C6       -3.0169    7.6421    0.0768   C.3       1 RES1   0.0000
     8 C7       -1.7024    7.4067    0.8364   C.3       1 RES1   0.0000
     9 C8       -1.3407    5.9222    0.9957   C.3       1 RES1   0.0000
    10 C9       -2.0924    5.0848    2.0432   C.3       1 RES1   0.0000
    11 C10      -1.6859    3.6146    1.8491   C.3       1 RES1   0.0000
    12 N1       -2.6868    2.5329    1.7696   N.am      1 RES1   0.0000
    13 C11      -3.9901    2.7846    1.1493   C.3       1 RES1   0.0000
    14 C12      -5.2641    2.9125    1.9982   C.3       1 RES1   0.0000
    15 C13      -5.7116    1.7486    2.8899   C.3       1 RES1   0.0000
    16 C14      -6.8464    0.8924    2.3138   C.3       1 RES1   0.0000
    17 C15      -7.1450   -0.3003    3.2250   C.3       1 RES1   0.0000
    18 C16      -8.1749   -1.2762    2.6540   C.3       1 RES1   0.0000
    19 C17      -8.5733   -2.3546    3.6657   C.3       1 RES1   0.0000
    20 C18      -7.4725   -3.3590    4.0150   C.3       1 RES1   0.0000
    21 C19      -7.1607   -4.3505    2.8949   C.3       1 RES1   0.0000
    22 C20      -6.2444   -5.4630    3.3927   C.3       1 RES1   0.0000
    23 C21      -2.1294    1.3252    1.6787   C.2       1 RES1   0.0000
    24 O1       -0.8952    1.1371    1.7472   O.2       1 RES1   0.0000
    25 C22      -3.0359    0.0978    1.5747   C.3       1 RES1   0.0000
    26 C23      -2.7686   -0.7268    2.8315   C.3       1 RES1   0.0000
    27 O2       -2.7017   -0.7158    0.4443   O.3       1 RES1   0.0000
    28 C24      -3.4892   -0.5281   -0.7662   C.3       1 RES1   0.0000
    29 C25      -4.9892   -0.7965   -0.5710   C.3       1 RES1   0.0000
    30 C26      -5.8758    0.1746   -1.3631   C.3       1 RES1   0.0000
    31 C27      -2.6378   -1.3108   -1.7948   C.2       1 RES1   0.0000
    32 O3       -1.3998   -1.1294   -1.6706   O.2       1 RES1   0.0000
    33 N2       -3.0866   -2.0949   -2.7633   N.am      1 RES1   0.0000
    34 C28      -2.0669   -2.7083   -3.6256   C.3       1 RES1   0.0000
    35 C29      -1.1212   -3.6889   -2.9084   C.3       1 RES1   0.0000
    36 C30      -1.1100   -5.1038   -3.5091   C.3       1 RES1   0.0000
    37 C31      -2.3336   -5.9560   -3.1531   C.3       1 RES1   0.0000
    38 C32      -2.0867   -7.4638   -3.2284   C.3       1 RES1   0.0000
    39 C33      -3.3433   -8.2872   -2.9226   C.3       1 RES1   0.0000
    40 C34      -4.0500   -7.9667   -1.6034   C.3       1 RES1   0.0000
    41 C35      -3.1566   -8.1278   -0.3776   C.3       1 RES1   0.0000
    42 C36      -3.8879   -7.8807    0.9420   C.3       1 RES1   0.0000
    43 C37      -4.8570   -9.0034    1.2968   C.3       1 RES1   0.0000
    44 C38      -4.4663   -2.3905   -3.1325   C.3       1 RES1   0.0000
    45 C39      -4.9642   -3.6838   -2.4785   C.3       1 RES1   0.0000
    46 C40      -6.2792   -4.1681   -3.0873   C.3       1 RES1   0.0000
    47 C41      -7.4533   -3.2233   -2.8445   C.3       1 RES1   0.0000
    48 C42      -8.7714   -3.8085   -3.3542   C.3       1 RES1   0.0000
    49 C43      -9.3428   -4.9521   -2.5142   C.3       1 RES1   0.0000
    50 C44      -9.8043   -4.5179   -1.1242   C.3       1 RES1   0.0000
    51 C45     -10.5465   -5.6410   -0.4016   C.3       1 RES1   0.0000
    52 C46     -11.0460   -5.2033    0.9741   C.3       1 RES1   0.0000
    53 C47     -11.7700   -6.3271    1.7077   C.3       1 RES1   0.0000
    54 H1       -4.8650    8.6594   -5.8599   H         1 RES1   0.0000
    55 H2       -5.9769    9.3250   -4.6680   H         1 RES1   0.0000
    56 H3       -5.1298    7.8227   -4.3354   H         1 RES1   0.0000
    57 H4       -3.7282   10.4985   -4.7970   H         1 RES1   0.0000
    58 H5       -2.9692    9.0172   -4.2241   H         1 RES1   0.0000
    59 H6       -5.1067   10.6495   -2.7864   H         1 RES1   0.0000
    60 H7       -3.3899   10.7779   -2.4609   H         1 RES1   0.0000
    61 H8       -4.5741    8.0330   -2.1352   H         1 RES1   0.0000
    62 H9       -5.0656    9.2544   -0.9733   H         1 RES1   0.0000
    63 H10      -2.7669    9.7413   -0.3544   H         1 RES1   0.0000
    64 H11      -2.1601    8.6698   -1.6193   H         1 RES1   0.0000
    65 H12      -3.2262    6.7516   -0.5093   H         1 RES1   0.0000
    66 H13      -3.8346    7.7799    0.7830   H         1 RES1   0.0000
    67 H14      -1.7230    7.9046    1.8064   H         1 RES1   0.0000
    68 H15      -0.8921    7.8566    0.2545   H         1 RES1   0.0000
    69 H16      -0.2782    5.8605    1.2386   H         1 RES1   0.0000
    70 H17      -1.4902    5.4458    0.0232   H         1 RES1   0.0000
    71 H18      -3.1627    5.2554    1.9667   H         1 RES1   0.0000
    72 H19      -1.8040    5.4133    3.0432   H         1 RES1   0.0000
    73 H20      -0.9995    3.3226    2.6474   H         1 RES1   0.0000
    74 H21      -1.1324    3.5473    0.9045   H         1 RES1   0.0000
    75 H22      -4.1359    2.0487    0.3575   H         1 RES1   0.0000
    76 H23      -3.8692    3.7349    0.6348   H         1 RES1   0.0000
    77 H24      -6.0562    3.0925    1.2700   H         1 RES1   0.0000
    78 H25      -5.1881    3.8073    2.6089   H         1 RES1   0.0000
    79 H26      -6.0852    2.1580    3.8251   H         1 RES1   0.0000
    80 H27      -4.8622    1.1240    3.1563   H         1 RES1   0.0000
    81 H28      -6.6100    0.5493    1.3067   H         1 RES1   0.0000
    82 H29      -7.7505    1.4983    2.2365   H         1 RES1   0.0000
    83 H30      -7.5081    0.0873    4.1786   H         1 RES1   0.0000
    84 H31      -6.2197   -0.8419    3.4317   H         1 RES1   0.0000
    85 H32      -7.7880   -1.7419    1.7440   H         1 RES1   0.0000
    86 H33      -9.0718   -0.7240    2.3729   H         1 RES1   0.0000
    87 H34      -9.4272   -2.9112    3.2694   H         1 RES1   0.0000
    88 H35      -8.8868   -1.8610    4.5889   H         1 RES1   0.0000
    89 H36      -7.8139   -3.9303    4.8789   H         1 RES1   0.0000
    90 H37      -6.5540   -2.8454    4.3167   H         1 RES1   0.0000
    91 H38      -6.6925   -3.8271    2.0573   H         1 RES1   0.0000
    92 H39      -8.0931   -4.7850    2.5280   H         1 RES1   0.0000
    93 H40      -5.2930   -5.0518    3.7311   H         1 RES1   0.0000
    94 H41      -6.0579   -6.1944    2.6098   H         1 RES1   0.0000
    95 H42      -6.7128   -5.9733    4.2307   H         1 RES1   0.0000
    96 H43      -4.0783    0.3966    1.5308   H         1 RES1   0.0000
    97 H44      -1.7064   -0.9677    2.8855   H         1 RES1   0.0000
    98 H45      -3.3609   -1.6357    2.8027   H         1 RES1   0.0000
    99 H46      -3.0296   -0.1501    3.7141   H         1 RES1   0.0000
   100 H47      -3.3611    0.5175   -1.0844   H         1 RES1   0.0000
   101 H48      -5.2521   -1.8202   -0.8111   H         1 RES1   0.0000
   102 H49      -5.2283   -0.6802    0.4873   H         1 RES1   0.0000
   103 H50      -5.9331    1.1460   -0.8756   H         1 RES1   0.0000
   104 H51      -6.8938   -0.2064   -1.4251   H         1 RES1   0.0000
   105 H52      -5.5113    0.3451   -2.3751   H         1 RES1   0.0000
   106 H53      -1.4872   -1.8926   -4.0679   H         1 RES1   0.0000
   107 H54      -2.5855   -3.2272   -4.4276   H         1 RES1   0.0000
   108 H55      -1.4063   -3.7280   -1.8567   H         1 RES1   0.0000
   109 H56      -0.1100   -3.2776   -2.9473   H         1 RES1   0.0000
   110 H57      -0.2161   -5.6095   -3.1451   H         1 RES1   0.0000
   111 H58      -1.0168   -5.0310   -4.5916   H         1 RES1   0.0000
   112 H59      -3.1590   -5.7247   -3.8289   H         1 RES1   0.0000
   113 H60      -2.6309   -5.7145   -2.1297   H         1 RES1   0.0000
   114 H61      -1.2977   -7.7320   -2.5262   H         1 RES1   0.0000
   115 H62      -1.7410   -7.7246   -4.2318   H         1 RES1   0.0000
   116 H63      -3.0622   -9.3415   -2.9231   H         1 RES1   0.0000
   117 H64      -4.0576   -8.1430   -3.7346   H         1 RES1   0.0000
   118 H65      -4.8963   -8.6458   -1.5210   H         1 RES1   0.0000
   119 H66      -4.4572   -6.9533   -1.6330   H         1 RES1   0.0000
   120 H67      -2.3215   -7.4271   -0.4502   H         1 RES1   0.0000
   121 H68      -2.7482   -9.1389   -0.3629   H         1 RES1   0.0000
   122 H69      -4.4303   -6.9318    0.8847   H         1 RES1   0.0000
   123 H70      -3.1502   -7.7939    1.7466   H         1 RES1   0.0000
   124 H71      -5.3066   -8.8260    2.2715   H         1 RES1   0.0000
   125 H72      -5.6580   -9.0775    0.5649   H         1 RES1   0.0000
   126 H73      -4.3372   -9.9588    1.3366   H         1 RES1   0.0000
   127 H74      -4.4965   -2.5240   -4.2172   H         1 RES1   0.0000
   128 H75      -5.1097   -1.5496   -2.8989   H         1 RES1   0.0000
   129 H76      -5.0974   -3.5541   -1.4017   H         1 RES1   0.0000
   130 H77      -4.2010   -4.4461   -2.6167   H         1 RES1   0.0000
   131 H78      -6.5105   -5.1406   -2.6557   H         1 RES1   0.0000
   132 H79      -6.1469   -4.3126   -4.1604   H         1 RES1   0.0000
   133 H80      -7.2691   -2.2847   -3.3709   H         1 RES1   0.0000
   134 H81      -7.5314   -3.0008   -1.7785   H         1 RES1   0.0000
   135 H82      -8.6156   -4.1624   -4.3748   H         1 RES1   0.0000
   136 H83      -9.5112   -3.0081   -3.4008   H         1 RES1   0.0000
   137 H84      -8.6178   -5.7652   -2.4246   H         1 RES1   0.0000
   138 H85     -10.2071   -5.3457   -3.0509   H         1 RES1   0.0000
   139 H86     -10.4661   -3.6542   -1.2226   H         1 RES1   0.0000
   140 H87      -8.9471   -4.2073   -0.5207   H         1 RES1   0.0000
   141 H88      -9.8823   -6.5017   -0.2865   H         1 RES1   0.0000
   142 H89     -11.3979   -5.9578   -1.0082   H         1 RES1   0.0000
   143 H90     -11.7270   -4.3572    0.8562   H         1 RES1   0.0000
   144 H91     -10.1947   -4.8645    1.5753   H         1 RES1   0.0000
   145 H92     -12.6393   -6.6628    1.1445   H         1 RES1   0.0000
   146 H93     -12.1043   -5.9887    2.6864   H         1 RES1   0.0000
   147 H94     -11.1079   -7.1784    1.8513   H         1 RES1   0.0000
   148 C48      -5.2384    4.7642    5.1703   C.3       1 RES1   0.0000
   149 C49      -6.6192    5.2184    4.6988   C.3       1 RES1   0.0000
   150 C50      -6.5819    6.5880    4.0058   C.3       1 RES1   0.0000
   151 C51      -5.8918    6.5666    2.6303   C.3       1 RES1   0.0000
   152 C52      -6.7487    6.0235    1.4728   C.3       1 RES1   0.0000
   153 C53      -5.8581    5.7049    0.2642   C.3       1 RES1   0.0000
   154 C54      -6.4989    4.9793   -0.9317   C.3       1 RES1   0.0000
   155 C55      -5.5296    4.1147   -1.7949   C.3       1 RES1   0.0000
   156 C56      -4.0884    4.6283   -1.9096   C.3       1 RES1   0.0000
   157 C57      -3.1433    3.6057   -2.5660   C.3       1 RES1   0.0000
   158 N3       -1.7269    3.7533   -2.2134   N.am      1 RES1   0.0000
   159 C58      -0.9140    4.8804   -2.6909   C.3       1 RES1   0.0000
   160 C59      -1.4750    5.9241   -3.6484   C.3       1 RES1   0.0000
   161 C60      -0.5056    7.1228   -3.6893   C.3       1 RES1   0.0000
   162 C61       0.9895    6.7899   -3.7109   C.3       1 RES1   0.0000
   163 C62       1.4630    5.9054   -4.8658   C.3       1 RES1   0.0000
   164 C63       2.7530    5.1768   -4.4939   C.3       1 RES1   0.0000
   165 C64       3.2384    4.2648   -5.6176   C.3       1 RES1   0.0000
   166 C65       4.4093    3.3752   -5.2006   C.3       1 RES1   0.0000
   167 C66       5.6663    4.1695   -4.8418   C.3       1 RES1   0.0000
   168 C67       6.8830    3.2730   -4.6233   C.3       1 RES1   0.0000
   169 C68      -1.1076    2.8073   -1.5054   C.2       1 RES1   0.0000
   170 O4       -1.6693    1.8109   -1.0129   O.2       1 RES1   0.0000
   171 C69       0.4248    2.8599   -1.3553   C.3       1 RES1   0.0000
   172 C70       0.9650    2.0872   -2.5626   C.3       1 RES1   0.0000
   173 O5        0.7479    2.1526   -0.1570   O.3       1 RES1   0.0000
   174 C71       1.8009    2.6027    0.7186   C.3       1 RES1   0.0000
   175 C72       2.8894    3.5246    0.1164   C.3       1 RES1   0.0000
   176 C73       2.6955    5.0133    0.4177   C.3       1 RES1   0.0000
   177 C74       2.4805    1.2935    1.1706   C.2       1 RES1   0.0000
   178 O6        2.3031    0.2819    0.4628   O.2       1 RES1   0.0000
   179 N4        3.3234    1.2737    2.1941   N.am      1 RES1   0.0000
   180 C75       4.1096    0.0537    2.3642   C.3       1 RES1   0.0000
   181 C76       5.2541   -0.0115    1.3437   C.3       1 RES1   0.0000
   182 C77       5.9094   -1.3912    1.3502   C.3       1 RES1   0.0000
   183 C78       6.9721   -1.5474    0.2543   C.3       1 RES1   0.0000
   184 C79       7.0753   -2.9946   -0.2186   C.3       1 RES1   0.0000
   185 C80       8.1085   -3.1884   -1.3259   C.3       1 RES1   0.0000
   186 C81       8.1427   -4.6362   -1.8318   C.3       1 RES1   0.0000
   187 C82       8.8423   -5.5959   -0.8715   C.3       1 RES1   0.0000
   188 C83       8.8415   -7.0484   -1.3476   C.3       1 RES1   0.0000
   189 C84       7.4484   -7.6645   -1.4664   C.3       1 RES1   0.0000
   190 C85       3.3572    2.2768    3.2451   C.3       1 RES1   0.0000
   191 C86       4.7580    2.6598    3.7202   C.3       1 RES1   0.0000
   192 C87       4.6730    3.9744    4.4998   C.3       1 RES1   0.0000
   193 C88       6.0070    4.4501    5.0651   C.3       1 RES1   0.0000
   194 C89       5.9004    5.8799    5.6230   C.3       1 RES1   0.0000
   195 C90       6.9291    6.8212    5.0016   C.3       1 RES1   0.0000
   196 C91       6.7332    7.0660    3.5003   C.3       1 RES1   0.0000
   197 C92       8.0594    7.1810    2.7479   C.3       1 RES1   0.0000
   198 C93       7.8871    7.2720    1.2323   C.3       1 RES1   0.0000
   199 C94       9.2376    7.2439    0.5188   C.3       1 RES1   0.0000
   200 H95      -5.2747    3.7704    5.6083   H         1 RES1   0.0000
   201 H96      -4.8459    5.4425    5.9228   H         1 RES1   0.0000
   202 H97      -4.5260    4.7296    4.3487   H         1 RES1   0.0000
   203 H98      -7.2746    5.2757    5.5686   H         1 RES1   0.0000
   204 H99      -7.0511    4.4733    4.0270   H         1 RES1   0.0000
   205 H100     -6.0373    7.2736    4.6635   H         1 RES1   0.0000
   206 H101     -7.5986    6.9769    3.9104   H         1 RES1   0.0000
   207 H102     -4.9945    5.9488    2.7288   H         1 RES1   0.0000
   208 H103     -5.5395    7.5746    2.3912   H         1 RES1   0.0000
   209 H104     -7.5031    6.7645    1.2111   H         1 RES1   0.0000
   210 H105     -7.2544    5.1160    1.8117   H         1 RES1   0.0000
   211 H106     -5.0411    5.1035    0.6487   H         1 RES1   0.0000
   212 H107     -5.4366    6.6388   -0.0899   H         1 RES1   0.0000
   213 H108     -6.9570    5.7268   -1.5797   H         1 RES1   0.0000
   214 H109     -7.3082    4.3263   -0.5896   H         1 RES1   0.0000
   215 H110     -5.9577    4.0488   -2.7988   H         1 RES1   0.0000
   216 H111     -5.4938    3.0932   -1.4078   H         1 RES1   0.0000
   217 H112     -3.6993    4.8333   -0.9166   H         1 RES1   0.0000
   218 H113     -4.1173    5.5589   -2.4687   H         1 RES1   0.0000
   219 H114     -3.2339    3.6461   -3.6552   H         1 RES1   0.0000
   220 H115     -3.4124    2.5970   -2.2357   H         1 RES1   0.0000
   221 H116     -0.0413    4.4680   -3.1955   H         1 RES1   0.0000
   222 H117     -0.5814    5.4263   -1.8033   H         1 RES1   0.0000
   223 H118     -2.4472    6.2919   -3.3357   H         1 RES1   0.0000
   224 H119     -1.5848    5.5166   -4.6510   H         1 RES1   0.0000
   225 H120     -0.6733    7.7436   -2.8049   H         1 RES1   0.0000
   226 H121     -0.7606    7.7237   -4.5622   H         1 RES1   0.0000
   227 H122      1.2757    6.3215   -2.7662   H         1 RES1   0.0000
   228 H123      1.5259    7.7376   -3.7373   H         1 RES1   0.0000
   229 H124      1.6505    6.5183   -5.7447   H         1 RES1   0.0000
   230 H125      0.6921    5.1803   -5.1380   H         1 RES1   0.0000
   231 H126      2.5809    4.5716   -3.5951   H         1 RES1   0.0000
   232 H127      3.5214    5.9144   -4.2564   H         1 RES1   0.0000
   233 H128      3.5286    4.8645   -6.4789   H         1 RES1   0.0000
   234 H129      2.4116    3.6280   -5.9412   H         1 RES1   0.0000
   235 H130      4.6474    2.6977   -6.0247   H         1 RES1   0.0000
   236 H131      4.1018    2.7633   -4.3459   H         1 RES1   0.0000
   237 H132      5.4970    4.7496   -3.9318   H         1 RES1   0.0000
   238 H133      5.8737    4.8757   -5.6471   H         1 RES1   0.0000
   239 H134      6.7314    2.6170   -3.7628   H         1 RES1   0.0000
   240 H135      7.7669    3.8809   -4.4329   H         1 RES1   0.0000
   241 H136      7.0715    2.6592   -5.5037   H         1 RES1   0.0000
   242 H137      0.7883    3.8796   -1.2936   H         1 RES1   0.0000
   243 H138      0.5726    1.0661   -2.5137   H         1 RES1   0.0000
   244 H139      2.0512    2.0306   -2.5432   H         1 RES1   0.0000
   245 H140      0.6424    2.5356   -3.4993   H         1 RES1   0.0000
   246 H141      1.3240    3.0957    1.5764   H         1 RES1   0.0000
   247 H142      3.8567    3.2327    0.5318   H         1 RES1   0.0000
   248 H143      2.9597    3.3617   -0.9613   H         1 RES1   0.0000
   249 H144      2.7975    5.2171    1.4847   H         1 RES1   0.0000
   250 H145      3.4672    5.5773   -0.1013   H         1 RES1   0.0000
   251 H146      1.7286    5.3848    0.0845   H         1 RES1   0.0000
   252 H147      3.4440   -0.8035    2.2020   H         1 RES1   0.0000
   253 H148      4.5023    0.0216    3.3801   H         1 RES1   0.0000
   254 H149      6.0138    0.7398    1.5588   H         1 RES1   0.0000
   255 H150      4.8520    0.2030    0.3501   H         1 RES1   0.0000
   256 H151      5.1289   -2.1450    1.2073   H         1 RES1   0.0000
   257 H152      6.3486   -1.5680    2.3330   H         1 RES1   0.0000
   258 H153      7.9428   -1.2053    0.6134   H         1 RES1   0.0000
   259 H154      6.7070   -0.9278   -0.6050   H         1 RES1   0.0000
   260 H155      6.1006   -3.3090   -0.6104   H         1 RES1   0.0000
   261 H156      7.3200   -3.6368    0.6262   H         1 RES1   0.0000
   262 H157      9.0976   -2.9071   -0.9603   H         1 RES1   0.0000
   263 H158      7.8489   -2.5220   -2.1545   H         1 RES1   0.0000
   264 H159      8.6603   -4.6702   -2.7926   H         1 RES1   0.0000
   265 H160      7.1157   -4.9737   -1.9960   H         1 RES1   0.0000
   266 H161      8.3648   -5.5489    0.1069   H         1 RES1   0.0000
   267 H162      9.8743   -5.2707   -0.7403   H         1 RES1   0.0000
   268 H163      9.4276   -7.6375   -0.6401   H         1 RES1   0.0000
   269 H164      9.3360   -7.1166   -2.3160   H         1 RES1   0.0000
   270 H165      6.9111   -7.2815   -2.3345   H         1 RES1   0.0000
   271 H166      6.8601   -7.4615   -0.5709   H         1 RES1   0.0000
   272 H167      7.5328   -8.7446   -1.5774   H         1 RES1   0.0000
   273 H168      2.7797    1.9048    4.1001   H         1 RES1   0.0000
   274 H169      2.8780    3.1765    2.8702   H         1 RES1   0.0000
   275 H170      5.4216    2.7759    2.8618   H         1 RES1   0.0000
   276 H171      5.1730    1.8850    4.3626   H         1 RES1   0.0000
   277 H172      3.9685    3.8555    5.3256   H         1 RES1   0.0000
   278 H173      4.2777    4.7459    3.8354   H         1 RES1   0.0000
   279 H174      6.7612    4.4207    4.2792   H         1 RES1   0.0000
   280 H175      6.3204    3.7467    5.8367   H         1 RES1   0.0000
   281 H176      6.0632    5.8680    6.6982   H         1 RES1   0.0000
   282 H177      4.8961    6.2758    5.4630   H         1 RES1   0.0000
   283 H178      7.9137    6.3967    5.1843   H         1 RES1   0.0000
   284 H179      6.9008    7.7722    5.5251   H         1 RES1   0.0000
   285 H180      6.1513    7.9750    3.3361   H         1 RES1   0.0000
   286 H181      6.1611    6.2431    3.0682   H         1 RES1   0.0000
   287 H182      8.6797    6.3100    2.9736   H         1 RES1   0.0000
   288 H183      8.6011    8.0661    3.0788   H         1 RES1   0.0000
   289 H184      7.3645    8.1951    0.9762   H         1 RES1   0.0000
   290 H185      7.2686    6.4385    0.8843   H         1 RES1   0.0000
   291 H186      9.8703    8.0476    0.8895   H         1 RES1   0.0000
   292 H187      9.1198    7.3629   -0.5594   H         1 RES1   0.0000
   293 H188      9.7492    6.3033    0.7158   H         1 RES1   0.0000
   294 C95       9.7327    0.6360    2.8842   C.3       1 RES1   0.0000
   295 C96       9.4577    0.3646    4.3572   C.3       1 RES1   0.0000
   296 C97       7.9697    0.1440    4.6136   C.3       1 RES1   0.0000
   297 C98       7.6787   -0.1204    6.0898   C.3       1 RES1   0.0000
   298 C99       6.2682   -0.6553    6.3609   C.3       1 RES1   0.0000
   299 C100      6.0809   -2.1153    5.9346   C.3       1 RES1   0.0000
   300 C101      4.8642   -2.7634    6.5928   C.3       1 RES1   0.0000
   301 C102      3.5153   -2.2603    6.0711   C.3       1 RES1   0.0000
   302 C103      3.2138   -2.7941    4.6628   C.3       1 RES1   0.0000
   303 C104      1.7138   -2.7504    4.3560   C.3       1 RES1   0.0000
   304 N5        1.3503   -3.4742    3.1426   N.am      1 RES1   0.0000
   305 C105      1.5326   -4.9163    3.2185   C.3       1 RES1   0.0000
   306 C106      0.2948   -5.7180    3.6237   C.3       1 RES1   0.0000
   307 C107      0.5140   -7.1960    3.2887   C.3       1 RES1   0.0000
   308 C108      0.2726   -7.4691    1.8061   C.3       1 RES1   0.0000
   309 C109      0.8855   -8.7697    1.2851   C.3       1 RES1   0.0000
   310 C110      0.7292   -8.8090   -0.2384   C.3       1 RES1   0.0000
   311 C111      1.3490  -10.0262   -0.9237   C.3       1 RES1   0.0000
   312 C112      1.0881  -10.0450   -2.4362   C.3       1 RES1   0.0000
   313 C113      1.7075   -8.8699   -3.1956   C.3       1 RES1   0.0000
   314 C114      1.3919   -8.9222   -4.6872   C.3       1 RES1   0.0000
   315 C115      0.8507   -2.8265    2.0991   C.2       1 RES1   0.0000
   316 O7        0.6931   -1.5841    2.0576   O.2       1 RES1   0.0000
   317 C116      0.3803   -3.6104    0.8701   C.3       1 RES1   0.0000
   318 C117     -1.1473   -3.7412    0.9172   C.3       1 RES1   0.0000
   319 O8        0.6987   -2.8481   -0.2954   O.3       1 RES1   0.0000
   320 C118      2.0032   -3.0944   -0.8578   C.3       1 RES1   0.0000
   321 C119      2.1653   -4.5577   -1.3104   C.3       1 RES1   0.0000
   322 C120      3.3083   -5.2812   -0.6022   C.3       1 RES1   0.0000
   323 C121      2.1834   -1.9584   -1.9019   C.2       1 RES1   0.0000
   324 O9        1.4274   -0.9677   -1.7799   O.2       1 RES1   0.0000
   325 N6        3.1518   -1.9210   -2.8162   N.am      1 RES1   0.0000
   326 C122      3.3380   -0.6306   -3.4945   C.3       1 RES1   0.0000
   327 C123      2.3576   -0.3783   -4.6527   C.3       1 RES1   0.0000
   328 C124      2.9522   -0.5816   -6.0515   C.3       1 RES1   0.0000
   329 C125      1.8577   -0.6994   -7.1115   C.3       1 RES1   0.0000
   330 C126      1.1793    0.6382   -7.4022   C.3       1 RES1   0.0000
   331 C127     -0.0829    0.4797   -8.2513   C.3       1 RES1   0.0000
   332 C128     -1.2924   -0.0147   -7.4501   C.3       1 RES1   0.0000
   333 C129     -1.9497    1.0927   -6.6231   C.3       1 RES1   0.0000
   334 C130     -2.9660    0.5693   -5.6052   C.3       1 RES1   0.0000
   335 C131     -4.0855   -0.2404   -6.2456   C.3       1 RES1   0.0000
   336 C132      4.0017   -3.0046   -3.2920   C.3       1 RES1   0.0000
   337 C133      3.3928   -3.7690   -4.4846   C.3       1 RES1   0.0000
   338 C134      4.4688   -4.4619   -5.3225   C.3       1 RES1   0.0000
   339 C135      5.2652   -5.4931   -4.5255   C.3       1 RES1   0.0000
   340 C136      6.2118   -6.2958   -5.4231   C.3       1 RES1   0.0000
   341 C137      5.5459   -7.4827   -6.1229   C.3       1 RES1   0.0000
   342 C138      5.3762   -8.6997   -5.2145   C.3       1 RES1   0.0000
   343 C139      4.7554   -9.8763   -5.9615   C.3       1 RES1   0.0000
   344 C140      4.5982  -11.1148   -5.0850   C.3       1 RES1   0.0000
   345 C141      3.8701  -12.2347   -5.8156   C.3       1 RES1   0.0000
   346 H189     10.7993    0.7333    2.7013   H         1 RES1   0.0000
   347 H190      9.3531   -0.1851    2.2812   H         1 RES1   0.0000
   348 H191      9.2434    1.5485    2.5462   H         1 RES1   0.0000
   349 H192     10.0120   -0.5242    4.6623   H         1 RES1   0.0000
   350 H193      9.8155    1.2023    4.9572   H         1 RES1   0.0000
   351 H194      7.4284    1.0346    4.2748   H         1 RES1   0.0000
   352 H195      7.6347   -0.7083    4.0159   H         1 RES1   0.0000
   353 H196      8.4029   -0.8418    6.4727   H         1 RES1   0.0000
   354 H197      7.8257    0.8089    6.6433   H         1 RES1   0.0000
   355 H198      6.0806   -0.5945    7.4351   H         1 RES1   0.0000
   356 H199      5.5281   -0.0160    5.8672   H         1 RES1   0.0000
   357 H200      6.0047   -2.2045    4.8496   H         1 RES1   0.0000
   358 H201      6.9652   -2.6750    6.2393   H         1 RES1   0.0000
   359 H202      4.9014   -3.8427    6.4398   H         1 RES1   0.0000
   360 H203      4.9194   -2.5958    7.6696   H         1 RES1   0.0000
   361 H204      2.7490   -2.6069    6.7686   H         1 RES1   0.0000
   362 H205      3.4923   -1.1692    6.0856   H         1 RES1   0.0000
   363 H206      3.7607   -2.2140    3.9199   H         1 RES1   0.0000
   364 H207      3.5886   -3.8192    4.6194   H         1 RES1   0.0000
   365 H208      1.1683   -3.2072    5.1862   H         1 RES1   0.0000
   366 H209      1.3896   -1.7161    4.2353   H         1 RES1   0.0000
   367 H210      1.9167   -5.2872    2.2714   H         1 RES1   0.0000
   368 H211      2.3092   -5.1158    3.9534   H         1 RES1   0.0000
   369 H212      0.1094   -5.5921    4.6884   H         1 RES1   0.0000
   370 H213     -0.5885   -5.3673    3.0953   H         1 RES1   0.0000
   371 H214      1.5284   -7.4902    3.5584   H         1 RES1   0.0000
   372 H215     -0.1635   -7.8088    3.8773   H         1 RES1   0.0000
   373 H216     -0.8017   -7.4749    1.6147   H         1 RES1   0.0000
   374 H217      0.6944   -6.6545    1.2118   H         1 RES1   0.0000
   375 H218      1.9455   -8.8188    1.5537   H         1 RES1   0.0000
   376 H219      0.3840   -9.6247    1.7409   H         1 RES1   0.0000
   377 H220     -0.3373   -8.7887   -0.4761   H         1 RES1   0.0000
   378 H221      1.1929   -7.9049   -0.6481   H         1 RES1   0.0000
   379 H222      2.4251  -10.0500   -0.7372   H         1 RES1   0.0000
   380 H223      0.9233  -10.9332   -0.4909   H         1 RES1   0.0000
   381 H224      1.4931  -10.9747   -2.8430   H         1 RES1   0.0000
   382 H225      0.0099  -10.0563   -2.6146   H         1 RES1   0.0000
   383 H226      1.3364   -7.9215   -2.7923   H         1 RES1   0.0000
   384 H227      2.7909   -8.8920   -3.0546   H         1 RES1   0.0000
   385 H228      0.3190   -8.8620   -4.8576   H         1 RES1   0.0000
   386 H229      1.8730   -8.0933   -5.2037   H         1 RES1   0.0000
   387 H230      1.7509   -9.8499   -5.1234   H         1 RES1   0.0000
   388 H231      0.8472   -4.5922    0.8137   H         1 RES1   0.0000
   389 H232     -1.5858   -2.7746    0.6545   H         1 RES1   0.0000
   390 H233     -1.4808   -4.4951    0.2059   H         1 RES1   0.0000
   391 H234     -1.4972   -4.0149    1.9100   H         1 RES1   0.0000
   392 H235      2.7502   -2.8622   -0.0807   H         1 RES1   0.0000
   393 H236      2.3195   -4.5869   -2.3803   H         1 RES1   0.0000
   394 H237      1.2277   -5.0830   -1.1299   H         1 RES1   0.0000
   395 H238      4.1811   -4.6406   -0.5074   H         1 RES1   0.0000
   396 H239      3.0270   -5.5981    0.3977   H         1 RES1   0.0000
   397 H240      3.6034   -6.1642   -1.1590   H         1 RES1   0.0000
   398 H241      3.2076    0.1327   -2.7202   H         1 RES1   0.0000
   399 H242      4.3661   -0.5821   -3.8590   H         1 RES1   0.0000
   400 H243      1.4798   -1.0147   -4.5082   H         1 RES1   0.0000
   401 H244      2.0181    0.6524   -4.5839   H         1 RES1   0.0000
   402 H245      3.5895    0.2689   -6.2962   H         1 RES1   0.0000
   403 H246      3.5832   -1.4687   -6.0830   H         1 RES1   0.0000
   404 H247      1.1135   -1.4283   -6.7841   H         1 RES1   0.0000
   405 H248      2.2924   -1.0759   -8.0367   H         1 RES1   0.0000
   406 H249      0.9198    1.1365   -6.4666   H         1 RES1   0.0000
   407 H250      1.8840    1.2800   -7.9309   H         1 RES1   0.0000
   408 H251     -0.3373    1.4355   -8.7137   H         1 RES1   0.0000
   409 H252      0.1241   -0.2275   -9.0563   H         1 RES1   0.0000
   410 H253     -2.0269   -0.4172   -8.1480   H         1 RES1   0.0000
   411 H254     -0.9840   -0.8259   -6.7846   H         1 RES1   0.0000
   412 H255     -1.1763    1.6479   -6.0845   H         1 RES1   0.0000
   413 H256     -2.4451    1.7933   -7.2980   H         1 RES1   0.0000
   414 H257     -2.4495   -0.0406   -4.8582   H         1 RES1   0.0000
   415 H258     -3.4026    1.4214   -5.0773   H         1 RES1   0.0000
   416 H259     -3.7087   -1.1683   -6.6640   H         1 RES1   0.0000
   417 H260     -4.8560   -0.4797   -5.5174   H         1 RES1   0.0000
   418 H261     -4.5466    0.3282   -7.0464   H         1 RES1   0.0000
   419 H262      4.9354   -2.5446   -3.6257   H         1 RES1   0.0000
   420 H263      4.2408   -3.6726   -2.4689   H         1 RES1   0.0000
   421 H264      2.6743   -4.5258   -4.1573   H         1 RES1   0.0000
   422 H265      2.8434   -3.0669   -5.1102   H         1 RES1   0.0000
   423 H266      3.9758   -4.9552   -6.1610   H         1 RES1   0.0000
   424 H267      5.1549   -3.7175   -5.7344   H         1 RES1   0.0000
   425 H268      5.8535   -4.9736   -3.7676   H         1 RES1   0.0000
   426 H269      4.5759   -6.1669   -4.0110   H         1 RES1   0.0000
   427 H270      6.6314   -5.6206   -6.1726   H         1 RES1   0.0000
   428 H271      7.0429   -6.6700   -4.8239   H         1 RES1   0.0000
   429 H272      4.5745   -7.1830   -6.5230   H         1 RES1   0.0000
   430 H273      6.1673   -7.7746   -6.9695   H         1 RES1   0.0000
   431 H274      6.3532   -8.9942   -4.8268   H         1 RES1   0.0000
   432 H275      4.7487   -8.4408   -4.3587   H         1 RES1   0.0000
   433 H276      3.7807   -9.5809   -6.3514   H         1 RES1   0.0000
   434 H277      5.3821  -10.1228   -6.8185   H         1 RES1   0.0000
   435 H278      5.5852  -11.4645   -4.7821   H         1 RES1   0.0000
   436 H279      4.0515  -10.8551   -4.1759   H         1 RES1   0.0000
   437 H280      4.3991  -12.5009   -6.7267   H         1 RES1   0.0000
   438 H281      3.7993  -13.1200   -5.1896   H         1 RES1   0.0000
   439 H282      2.8617  -11.9291   -6.0862   H         1 RES1   0.0000
@<TRIPOS>BOND
     1     1    24    1
     2     1    27    1
     3     1    32    1
     4     1   170    1
     5     1   173    1
     6     1   178    1
     7     1   316    1
     8     1   319    1
     9     1   324    1
    10     2     3    1
    11     2    54    1
    12     2    55    1
    13     2    56    1
    14     3     4    1
    15     3    57    1
    16     3    58    1
    17     4     5    1
    18     4    59    1
    19     4    60    1
    20     5     6    1
    21     5    61    1
    22     5    62    1
    23     6     7    1
    24     6    63    1
    25     6    64    1
    26     7     8    1
    27     7    65    1
    28     7    66    1
    29     8     9    1
    30     8    67    1
    31     8    68    1
    32     9    10    1
    33     9    69    1
    34     9    70    1
    35    10    11    1
    36    10    71    1
    37    10    72    1
    38    11    12    1
    39    11    73    1
    40    11    74    1
    41    12    13    1
    42    12    23    1
    43    13    14    1
    44    13    75    1
    45    13    76    1
    46    14    15    1
    47    14    77    1
    48    14    78    1
    49    15    16    1
    50    15    79    1
    51    15    80    1
    52    16    17    1
    53    16    81    1
    54    16    82    1
    55    17    18    1
    56    17    83    1
    57    17    84    1
    58    18    19    1
    59    18    85    1
    60    18    86    1
    61    19    20    1
    62    19    87    1
    63    19    88    1
    64    20    21    1
    65    20    89    1
    66    20    90    1
    67    21    22    1
    68    21    91    1
    69    21    92    1
    70    22    93    1
    71    22    94    1
    72    22    95    1
    73    23    24    2
    74    23    25    1
    75    25    26    1
    76    25    27    1
    77    25    96    1
    78    26    97    1
    79    26    98    1
    80    26    99    1
    81    27    28    1
    82    28    29    1
    83    28    31    1
    84    28   100    1
    85    29    30    1
    86    29   101    1
    87    29   102    1
    88    30   103    1
    89    30   104    1
    90    30   105    1
    91    31    32    2
    92    31    33    1
    93    33    34    1
    94    33    44    1
    95    34    35    1
    96    34   106    1
    97    34   107    1
    98    35    36    1
    99    35   108    1
   100    35   109    1
   101    36    37    1
   102    36   110    1
   103    36   111    1
   104    37    38    1
   105    37   112    1
   106    37   113    1
   107    38    39    1
   108    38   114    1
   109    38   115    1
   110    39    40    1
   111    39   116    1
   112    39   117    1
   113    40    41    1
   114    40   118    1
   115    40   119    1
   116    41    42    1
   117    41   120    1
   118    41   121    1
   119    42    43    1
   120    42   122    1
   121    42   123    1
   122    43   124    1
   123    43   125    1
   124    43   126    1
   125    44    45    1
   126    44   127    1
   127    44   128    1
   128    45    46    1
   129    45   129    1
   130    45   130    1
   131    46    47    1
   132    46   131    1
   133    46   132    1
   134    47    48    1
   135    47   133    1
   136    47   134    1
   137    48    49    1
   138    48   135    1
   139    48   136    1
   140    49    50    1
   141    49   137    1
   142    49   138    1
   143    50    51    1
   144    50   139    1
   145    50   140    1
   146    51    52    1
   147    51   141    1
   148    51   142    1
   149    52    53    1
   150    52   143    1
   151    52   144    1
   152    53   145    1
   153    53   146    1
   154    53   147    1
   155   148   149    1
   156   148   200    1
   157   148   201    1
   158   148   202    1
   159   149   150    1
   160   149   203    1
   161   149   204    1
   162   150   151    1
   163   150   205    1
   164   150   206    1
   165   151   152    1
   166   151   207    1
   167   151   208    1
   168   152   153    1
   169   152   209    1
   170   152   210    1
   171   153   154    1
   172   153   211    1
   173   153   212    1
   174   154   155    1
   175   154   213    1
   176   154   214    1
   177   155   156    1
   178   155   215    1
   179   155   216    1
   180   156   157    1
   181   156   217    1
   182   156   218    1
   183   157   158    1
   184   157   219    1
   185   157   220    1
   186   158   159    1
   187   158   169    1
   188   159   160    1
   189   159   221    1
   190   159   222    1
   191   160   161    1
   192   160   223    1
   193   160   224    1
   194   161   162    1
   195   161   225    1
   196   161   226    1
   197   162   163    1
   198   162   227    1
   199   162   228    1
   200   163   164    1
   201   163   229    1
   202   163   230    1
   203   164   165    1
   204   164   231    1
   205   164   232    1
   206   165   166    1
   207   165   233    1
   208   165   234    1
   209   166   167    1
   210   166   235    1
   211   166   236    1
   212   167   168    1
   213   167   237    1
   214   167   238    1
   215   168   239    1
   216   168   240    1
   217   168   241    1
   218   169   170    2
   219   169   171    1
   220   171   172    1
   221   171   173    1
   222   171   242    1
   223   172   243    1
   224   172   244    1
   225   172   245    1
   226   173   174    1
   227   174   175    1
   228   174   177    1
   229   174   246    1
   230   175   176    1
   231   175   247    1
   232   175   248    1
   233   176   249    1
   234   176   250    1
   235   176   251    1
   236   177   178    2
   237   177   179    1
   238   179   180    1
   239   179   190    1
   240   180   181    1
   241   180   252    1
   242   180   253    1
   243   181   182    1
   244   181   254    1
   245   181   255    1
   246   182   183    1
   247   182   256    1
   248   182   257    1
   249   183   184    1
   250   183   258    1
   251   183   259    1
   252   184   185    1
   253   184   260    1
   254   184   261    1
   255   185   186    1
   256   185   262    1
   257   185   263    1
   258   186   187    1
   259   186   264    1
   260   186   265    1
   261   187   188    1
   262   187   266    1
   263   187   267    1
   264   188   189    1
   265   188   268    1
   266   188   269    1
   267   189   270    1
   268   189   271    1
   269   189   272    1
   270   190   191    1
   271   190   273    1
   272   190   274    1
   273   191   192    1
   274   191   275    1
   275   191   276    1
   276   192   193    1
   277   192   277    1
   278   192   278    1
   279   193   194    1
   280   193   279    1
   281   193   280    1
   282   194   195    1
   283   194   281    1
   284   194   282    1
   285   195   196    1
   286   195   283    1
   287   195   284    1
   288   196   197    1
   289   196   285    1
   290   196   286    1
   291   197   198    1
   292   197   287    1
   293   197   288    1
   294   198   199    1
   295   198   289    1
   296   198   290    1
   297   199   291    1
   298   199   292    1
   299   199   293    1
   300   294   295    1
   301   294   346    1
   302   294   347    1
   303   294   348    1
   304   295   296    1
   305   295   349    1
   306   295   350    1
   307   296   297    1
   308   296   351    1
   309   296   352    1
   310   297   298    1
   311   297   353    1
   312   297   354    1
   313   298   299    1
   314   298   355    1
   315   298   356    1
   316   299   300    1
   317   299   357    1
   318   299   358    1
   319   300   301    1
   320   300   359    1
   321   300   360    1
   322   301   302    1
   323   301   361    1
   324   301   362    1
   325   302   303    1
   326   302   363    1
   327   302   364    1
   328   303   304    1
   329   303   365    1
   330   303   366    1
   331   304   305    1
   332   304   315    1
   333   305   306    1
   334   305   367    1
   335   305   368    1
   336   306   307    1
   337   306   369    1
   338   306   370    1
   339   307   308    1
   340   307   371    1
   341   307   372    1
   342   308   309    1
   343   308   373    1
   344   308   374    1
   345   309   310    1
   346   309   375    1
   347   309   376    1
   348   310   311    1
   349   310   377    1
   350   310   378    1
   351   311   312    1
   352   311   379    1
   353   311   380    1
   354   312   313    1
   355   312   381    1
   356   312   382    1
   357   313   314    1
   358   313   383    1
   359   313   384    1
   360   314   385    1
   361   314   386    1
   362   314   387    1
   363   315   316    2
   364   315   317    1
   365   317   318    1
   366   317   319    1
   367   317   388    1
   368   318   389    1
   369   318   390    1
   370   318   391    1
   371   319   320    1
   372   320   321    1
   373   320   323    1
   374   320   392    1
   375   321   322    1
   376   321   393    1
   377   321   394    1
   378   322   395    1
   379   322   396    1
   380   322   397    1
   381   323   324    2
   382   323   325    1
   383   325   326    1
   384   325   336    1
   385   326   327    1
   386   326   398    1
   387   326   399    1
   388   327   328    1
   389   327   400    1
   390   327   401    1
   391   328   329    1
   392   328   402    1
   393   328   403    1
   394   329   330    1
   395   329   404    1
   396   329   405    1
   397   330   331    1
   398   330   406    1
   399   330   407    1
   400   331   332    1
   401   331   408    1
   402   331   409    1
   403   332   333    1
   404   332   410    1
   405   332   411    1
   406   333   334    1
   407   333   412    1
   408   333   413    1
   409   334   335    1
   410   334   414    1
   411   334   415    1
   412   335   416    1
   413   335   417    1
   414   335   418    1
   415   336   337    1
   416   336   419    1
   417   336   420    1
   418   337   338    1
   419   337   421    1
   420   337   422    1
   421   338   339    1
   422   338   423    1
   423   338   424    1
   424   339   340    1
   425   339   425    1
   426   339   426    1
   427   340   341    1
   428   340   427    1
   429   340   428    1
   430   341   342    1
   431   341   429    1
   432   341   430    1
   433   342   343    1
   434   342   431    1
   435   342   432    1
   436   343   344    1
   437   343   433    1
   438   343   434    1
   439   344   345    1
   440   344   435    1
   441   344   436    1
   442   345   437    1
   443   345   438    1
   444   345   439    1
@<TRIPOS>SUBSTRUCTURE
     1 RES1      439 GROUP             0 ****  ****    0  
