@<TRIPOS>MOLECULE
capped_square_antiprismatic_0_nunpairedes_0_charge_3 Charge: 3 Unpaired_Electrons: 0 XTB_Unpaired_Electrons: 0 XTB_Charge: 3
   440   443     1     0     0
SMALL
NoCharges
****
Generated from Architector

@<TRIPOS>ATOM
     1 La1       0.1421   -0.2344   -0.2979   La        1 RES1   0.0000
     2 C1       -3.4733    0.9320    7.1273   C.3       1 RES1   0.0000
     3 C2       -4.5470   -0.1548    7.1708   C.3       1 RES1   0.0000
     4 C3       -5.1648   -0.4902    5.8085   C.3       1 RES1   0.0000
     5 C4       -6.3585    0.3659    5.3792   C.3       1 RES1   0.0000
     6 C5       -6.0405    1.8264    5.0669   C.3       1 RES1   0.0000
     7 C6       -5.1935    2.0141    3.8069   C.3       1 RES1   0.0000
     8 C7       -4.6640    3.4426    3.7121   C.3       1 RES1   0.0000
     9 C8       -3.9531    3.7265    2.3850   C.3       1 RES1   0.0000
    10 N1       -2.7184    2.9753    2.1824   N.am      1 RES1   0.0000
    11 C9       -1.6749    3.1667    3.1937   C.3       1 RES1   0.0000
    12 C10      -1.2914    4.6206    3.4706   C.3       1 RES1   0.0000
    13 C11      -0.0417    4.7313    4.3568   C.3       1 RES1   0.0000
    14 C12      -0.2825    4.4863    5.8522   C.3       1 RES1   0.0000
    15 C13       0.9944    4.6287    6.7062   C.3       1 RES1   0.0000
    16 C14       1.7764    3.3234    6.8788   C.3       1 RES1   0.0000
    17 C15       3.1101    3.4887    7.6189   C.3       1 RES1   0.0000
    18 C16       2.9647    3.4087    9.1316   C.3       1 RES1   0.0000
    19 C17      -2.4571    2.1515    1.1508   C.2       1 RES1   0.0000
    20 O1       -1.3347    1.6547    0.9887   O.2       1 RES1   0.0000
    21 C18      -3.6227    1.8158    0.2007   C.3       1 RES1   0.0000
    22 C19      -3.2111    0.9244   -0.9749   C.2       1 RES1   0.0000
    23 O2       -2.1793    0.2311   -0.9586   O.2       1 RES1   0.0000
    24 N2       -3.9885    0.9053   -2.0626   N.am      1 RES1   0.0000
    25 C20      -5.2974    1.5318   -2.1698   C.3       1 RES1   0.0000
    26 C21      -6.4240    0.8269   -1.4027   C.3       1 RES1   0.0000
    27 C22      -6.6266   -0.6408   -1.7813   C.3       1 RES1   0.0000
    28 C23      -7.1303   -0.8575   -3.2108   C.3       1 RES1   0.0000
    29 C24      -7.4192   -2.3411   -3.4572   C.3       1 RES1   0.0000
    30 C25      -8.1520   -2.6443   -4.7712   C.3       1 RES1   0.0000
    31 C26      -7.2451   -3.1083   -5.9095   C.3       1 RES1   0.0000
    32 C27      -6.3246   -2.0187   -6.4422   C.3       1 RES1   0.0000
    33 C28      -3.3672    0.3911   -3.2842   C.3       1 RES1   0.0000
    34 C29      -3.2137   -1.1130   -3.4797   C.3       1 RES1   0.0000
    35 C30      -2.7792   -1.3783   -4.9287   C.3       1 RES1   0.0000
    36 C31      -1.5223   -0.6509   -5.4197   C.3       1 RES1   0.0000
    37 C32      -0.2019   -1.1043   -4.7951   C.3       1 RES1   0.0000
    38 C33       0.9917   -0.8075   -5.7059   C.3       1 RES1   0.0000
    39 C34       1.2218    0.6838   -5.9365   C.3       1 RES1   0.0000
    40 C35       2.5877    0.9584   -6.5538   C.3       1 RES1   0.0000
    41 H1       -2.8835    0.9121    8.0418   H         1 RES1   0.0000
    42 H2       -3.9024    1.9260    7.0390   H         1 RES1   0.0000
    43 H3       -2.8041    0.7756    6.2793   H         1 RES1   0.0000
    44 H4       -5.3329    0.1352    7.8684   H         1 RES1   0.0000
    45 H5       -4.0876   -1.0645    7.5671   H         1 RES1   0.0000
    46 H6       -5.5196   -1.5218    5.8546   H         1 RES1   0.0000
    47 H7       -4.3830   -0.4463    5.0441   H         1 RES1   0.0000
    48 H8       -7.1066    0.3404    6.1730   H         1 RES1   0.0000
    49 H9       -6.8033   -0.0904    4.4902   H         1 RES1   0.0000
    50 H10      -5.5342    2.2758    5.9180   H         1 RES1   0.0000
    51 H11      -6.9799    2.3663    4.9326   H         1 RES1   0.0000
    52 H12      -5.8175    1.8035    2.9337   H         1 RES1   0.0000
    53 H13      -4.3516    1.3173    3.7991   H         1 RES1   0.0000
    54 H14      -4.0039    3.6551    4.5538   H         1 RES1   0.0000
    55 H15      -5.5066    4.1344    3.7791   H         1 RES1   0.0000
    56 H16      -3.7067    4.7918    2.3435   H         1 RES1   0.0000
    57 H17      -4.6558    3.5130    1.5832   H         1 RES1   0.0000
    58 H18      -0.7943    2.6339    2.8289   H         1 RES1   0.0000
    59 H19      -2.0076    2.6934    4.1202   H         1 RES1   0.0000
    60 H20      -2.1125    5.1545    3.9459   H         1 RES1   0.0000
    61 H21      -1.0796    5.1044    2.5171   H         1 RES1   0.0000
    62 H22       0.3504    5.7457    4.2511   H         1 RES1   0.0000
    63 H23       0.7196    4.0386    3.9873   H         1 RES1   0.0000
    64 H24      -0.7167    3.4970    6.0177   H         1 RES1   0.0000
    65 H25      -1.0087    5.2206    6.2036   H         1 RES1   0.0000
    66 H26       0.7140    4.9972    7.6937   H         1 RES1   0.0000
    67 H27       1.6411    5.3835    6.2545   H         1 RES1   0.0000
    68 H28       1.9770    2.8998    5.8895   H         1 RES1   0.0000
    69 H29       1.1568    2.6141    7.4346   H         1 RES1   0.0000
    70 H30       3.5680    4.4400    7.3426   H         1 RES1   0.0000
    71 H31       3.7881    2.6925    7.3030   H         1 RES1   0.0000
    72 H32       2.2353    4.1250    9.4922   H         1 RES1   0.0000
    73 H33       3.9154    3.6208    9.6100   H         1 RES1   0.0000
    74 H34       2.6512    2.4117    9.4341   H         1 RES1   0.0000
    75 H35      -4.0475    2.7363   -0.2059   H         1 RES1   0.0000
    76 H36      -4.3942    1.3155    0.7957   H         1 RES1   0.0000
    77 H37      -5.5562    1.5528   -3.2283   H         1 RES1   0.0000
    78 H38      -5.2455    2.5704   -1.8257   H         1 RES1   0.0000
    79 H39      -7.3453    1.3724   -1.6196   H         1 RES1   0.0000
    80 H40      -6.2565    0.8942   -0.3248   H         1 RES1   0.0000
    81 H41      -7.3728   -1.0568   -1.0994   H         1 RES1   0.0000
    82 H42      -5.6941   -1.1925   -1.6261   H         1 RES1   0.0000
    83 H43      -6.4037   -0.4887   -3.9359   H         1 RES1   0.0000
    84 H44      -8.0510   -0.2864   -3.3470   H         1 RES1   0.0000
    85 H45      -8.0340   -2.6946   -2.6275   H         1 RES1   0.0000
    86 H46      -6.4826   -2.9044   -3.4279   H         1 RES1   0.0000
    87 H47      -8.7154   -1.7681   -5.0944   H         1 RES1   0.0000
    88 H48      -8.8734   -3.4400   -4.5854   H         1 RES1   0.0000
    89 H49      -7.8744   -3.4597   -6.7274   H         1 RES1   0.0000
    90 H50      -6.6491   -3.9601   -5.5733   H         1 RES1   0.0000
    91 H51      -6.9073   -1.1701   -6.7962   H         1 RES1   0.0000
    92 H52      -5.7264   -2.3979   -7.2696   H         1 RES1   0.0000
    93 H53      -5.6468   -1.6714   -5.6661   H         1 RES1   0.0000
    94 H54      -2.3608    0.8126   -3.3090   H         1 RES1   0.0000
    95 H55      -3.9512    0.7690   -4.1219   H         1 RES1   0.0000
    96 H56      -4.1685   -1.6122   -3.3143   H         1 RES1   0.0000
    97 H57      -2.4826   -1.5088   -2.7742   H         1 RES1   0.0000
    98 H58      -3.5949   -1.0693   -5.5846   H         1 RES1   0.0000
    99 H59      -2.6530   -2.4510   -5.0695   H         1 RES1   0.0000
   100 H60      -1.6359    0.4257   -5.2896   H         1 RES1   0.0000
   101 H61      -1.4561   -0.8286   -6.4951   H         1 RES1   0.0000
   102 H62      -0.2241   -2.1801   -4.6537   H         1 RES1   0.0000
   103 H63      -0.0525   -0.6463   -3.8056   H         1 RES1   0.0000
   104 H64       0.8366   -1.3042   -6.6672   H         1 RES1   0.0000
   105 H65       1.8892   -1.2375   -5.2551   H         1 RES1   0.0000
   106 H66       1.1363    1.1989   -4.9751   H         1 RES1   0.0000
   107 H67       0.4457    1.0786   -6.5946   H         1 RES1   0.0000
   108 H68       3.3746    0.4888   -5.9680   H         1 RES1   0.0000
   109 H69       2.7816    2.0274   -6.6053   H         1 RES1   0.0000
   110 H70       2.6324    0.5571   -7.5619   H         1 RES1   0.0000
   111 C36       9.1620    0.0140   -1.0151   C.3       1 RES1   0.0000
   112 C37       8.4786   -0.0374    0.3414   C.3       1 RES1   0.0000
   113 C38       6.9868    0.2725    0.2384   C.3       1 RES1   0.0000
   114 C39       6.2276    0.1374    1.5555   C.3       1 RES1   0.0000
   115 C40       6.3242   -1.2750    2.1408   C.3       1 RES1   0.0000
   116 C41       5.1133   -1.6472    2.9969   C.3       1 RES1   0.0000
   117 C42       3.9553   -2.1148    2.1184   C.3       1 RES1   0.0000
   118 C43       2.7615   -2.5881    2.9465   C.3       1 RES1   0.0000
   119 N3        1.9172   -3.5710    2.2731   N.am      1 RES1   0.0000
   120 C44       1.9911   -4.9192    2.8147   C.3       1 RES1   0.0000
   121 C45       3.3965   -5.5044    2.6470   C.3       1 RES1   0.0000
   122 C46       3.7683   -5.6848    1.1713   C.3       1 RES1   0.0000
   123 C47       5.2769   -5.6054    0.9327   C.3       1 RES1   0.0000
   124 C48       6.0764   -6.6491    1.7079   C.3       1 RES1   0.0000
   125 C49       7.5809   -6.4877    1.4966   C.3       1 RES1   0.0000
   126 C50       8.1706   -5.2861    2.2352   C.3       1 RES1   0.0000
   127 C51       9.6884   -5.2466    2.1035   C.3       1 RES1   0.0000
   128 C52       1.2024   -3.1350    1.2336   C.2       1 RES1   0.0000
   129 O3        1.3972   -1.9952    0.7765   O.2       1 RES1   0.0000
   130 C53       0.0852   -3.9969    0.6680   C.3       1 RES1   0.0000
   131 C54       0.0586   -3.8627   -0.8476   C.2       1 RES1   0.0000
   132 O4       -0.0694   -2.7305   -1.3505   O.2       1 RES1   0.0000
   133 N4        0.1357   -4.9812   -1.5733   N.am      1 RES1   0.0000
   134 C55       0.5053   -6.3004   -1.0688   C.3       1 RES1   0.0000
   135 C56      -0.6357   -7.3265   -0.9562   C.3       1 RES1   0.0000
   136 C57      -1.4942   -7.2912    0.3180   C.3       1 RES1   0.0000
   137 C58      -2.7215   -6.3743    0.2747   C.3       1 RES1   0.0000
   138 C59      -3.8818   -6.9239   -0.5767   C.3       1 RES1   0.0000
   139 C60      -5.1507   -7.3065    0.1944   C.3       1 RES1   0.0000
   140 C61      -5.0863   -8.5907    1.0273   C.3       1 RES1   0.0000
   141 C62      -4.5600   -8.3962    2.4455   C.3       1 RES1   0.0000
   142 C63       0.0812   -4.9000   -3.0337   C.3       1 RES1   0.0000
   143 C64      -1.1775   -4.2450   -3.5871   C.3       1 RES1   0.0000
   144 C65      -2.4702   -5.0012   -3.2933   C.3       1 RES1   0.0000
   145 C66      -2.7839   -6.1113   -4.2933   C.3       1 RES1   0.0000
   146 C67      -3.2720   -5.5633   -5.6342   C.3       1 RES1   0.0000
   147 C68      -3.7964   -6.6563   -6.5665   C.3       1 RES1   0.0000
   148 C69      -2.7660   -7.7231   -6.9407   C.3       1 RES1   0.0000
   149 C70      -1.5215   -7.1709   -7.6280   C.3       1 RES1   0.0000
   150 H71      10.2390   -0.0660   -0.9047   H         1 RES1   0.0000
   151 H72       8.8322   -0.8021   -1.6487   H         1 RES1   0.0000
   152 H73       8.9405    0.9487   -1.5209   H         1 RES1   0.0000
   153 H74       8.9483    0.6982    0.9940   H         1 RES1   0.0000
   154 H75       8.6309   -1.0275    0.7743   H         1 RES1   0.0000
   155 H76       6.5230   -0.3916   -0.4921   H         1 RES1   0.0000
   156 H77       6.8811    1.2966   -0.1195   H         1 RES1   0.0000
   157 H78       5.1742    0.3861    1.3704   H         1 RES1   0.0000
   158 H79       6.6285    0.8552    2.2723   H         1 RES1   0.0000
   159 H80       6.4082   -1.9897    1.3213   H         1 RES1   0.0000
   160 H81       7.2346   -1.3641    2.7362   H         1 RES1   0.0000
   161 H82       4.8178   -0.7901    3.6064   H         1 RES1   0.0000
   162 H83       5.3963   -2.4488    3.6803   H         1 RES1   0.0000
   163 H84       4.3035   -2.9439    1.5051   H         1 RES1   0.0000
   164 H85       3.6467   -1.3188    1.4401   H         1 RES1   0.0000
   165 H86       2.1284   -1.7352    3.1960   H         1 RES1   0.0000
   166 H87       3.1243   -3.0425    3.8681   H         1 RES1   0.0000
   167 H88       1.2718   -5.5776    2.3310   H         1 RES1   0.0000
   168 H89       1.7331   -4.8724    3.8773   H         1 RES1   0.0000
   169 H90       3.4244   -6.4622    3.1656   H         1 RES1   0.0000
   170 H91       4.1233   -4.8543    3.1347   H         1 RES1   0.0000
   171 H92       3.2850   -4.9010    0.5737   H         1 RES1   0.0000
   172 H93       3.4006   -6.6509    0.8191   H         1 RES1   0.0000
   173 H94       5.6288   -4.6096    1.2143   H         1 RES1   0.0000
   174 H95       5.4614   -5.7412   -0.1362   H         1 RES1   0.0000
   175 H96       5.7655   -7.6429    1.3808   H         1 RES1   0.0000
   176 H97       5.8619   -6.5680    2.7748   H         1 RES1   0.0000
   177 H98       7.7904   -6.4018    0.4282   H         1 RES1   0.0000
   178 H99       8.0775   -7.3890    1.8541   H         1 RES1   0.0000
   179 H100      7.9051   -5.3438    3.2944   H         1 RES1   0.0000
   180 H101      7.7578   -4.3537    1.8409   H         1 RES1   0.0000
   181 H102     10.1283   -6.1562    2.5060   H         1 RES1   0.0000
   182 H103     10.1044   -4.4007    2.6474   H         1 RES1   0.0000
   183 H104      9.9781   -5.1607    1.0580   H         1 RES1   0.0000
   184 H105     -0.8430   -3.5375    1.0231   H         1 RES1   0.0000
   185 H106      0.0880   -5.0258    1.0003   H         1 RES1   0.0000
   186 H107      1.0252   -6.2176   -0.1149   H         1 RES1   0.0000
   187 H108      1.2343   -6.7049   -1.7797   H         1 RES1   0.0000
   188 H109     -0.1546   -8.3060   -0.9953   H         1 RES1   0.0000
   189 H110     -1.2798   -7.2564   -1.8321   H         1 RES1   0.0000
   190 H111     -0.8708   -7.0300    1.1800   H         1 RES1   0.0000
   191 H112     -1.8545   -8.3043    0.4994   H         1 RES1   0.0000
   192 H113     -2.4249   -5.3852   -0.0869   H         1 RES1   0.0000
   193 H114     -3.0802   -6.2497    1.2952   H         1 RES1   0.0000
   194 H115     -3.5484   -7.7922   -1.1467   H         1 RES1   0.0000
   195 H116     -4.1842   -6.1637   -1.2998   H         1 RES1   0.0000
   196 H117     -5.9370   -7.4357   -0.5523   H         1 RES1   0.0000
   197 H118     -5.4545   -6.4782    0.8380   H         1 RES1   0.0000
   198 H119     -4.4853   -9.3401    0.5086   H         1 RES1   0.0000
   199 H120     -6.1006   -8.9884    1.1044   H         1 RES1   0.0000
   200 H121     -3.5236   -8.0678    2.4551   H         1 RES1   0.0000
   201 H122     -4.6165   -9.3346    2.9929   H         1 RES1   0.0000
   202 H123     -5.1645   -7.6591    2.9719   H         1 RES1   0.0000
   203 H124      0.1549   -5.9123   -3.4289   H         1 RES1   0.0000
   204 H125      0.9531   -4.3279   -3.3660   H         1 RES1   0.0000
   205 H126     -1.0296   -4.1610   -4.6639   H         1 RES1   0.0000
   206 H127     -1.2501   -3.2464   -3.1671   H         1 RES1   0.0000
   207 H128     -3.3042   -4.2962   -3.2988   H         1 RES1   0.0000
   208 H129     -2.4137   -5.4167   -2.2905   H         1 RES1   0.0000
   209 H130     -3.5720   -6.7408   -3.8753   H         1 RES1   0.0000
   210 H131     -1.9057   -6.7386   -4.4473   H         1 RES1   0.0000
   211 H132     -2.4734   -5.0157   -6.1390   H         1 RES1   0.0000
   212 H133     -4.0855   -4.8557   -5.4463   H         1 RES1   0.0000
   213 H134     -4.1689   -6.1815   -7.4766   H         1 RES1   0.0000
   214 H135     -4.6470   -7.1505   -6.0900   H         1 RES1   0.0000
   215 H136     -3.2549   -8.4302   -7.6129   H         1 RES1   0.0000
   216 H137     -2.4728   -8.2772   -6.0467   H         1 RES1   0.0000
   217 H138     -1.7976   -6.5658   -8.4882   H         1 RES1   0.0000
   218 H139     -0.9017   -7.9921   -7.9797   H         1 RES1   0.0000
   219 H140     -0.9246   -6.5608   -6.9511   H         1 RES1   0.0000
   220 C71       9.9776    0.8184    3.6327   C.3       1 RES1   0.0000
   221 C72       9.6605    0.6099    5.1063   C.3       1 RES1   0.0000
   222 C73       8.1900    0.8525    5.4664   C.3       1 RES1   0.0000
   223 C74       7.8333    2.3383    5.6274   C.3       1 RES1   0.0000
   224 C75       7.1837    2.9940    4.4027   C.3       1 RES1   0.0000
   225 C76       5.6728    2.7602    4.3768   C.3       1 RES1   0.0000
   226 C77       4.9800    3.4382    3.1928   C.3       1 RES1   0.0000
   227 C78       3.4487    3.3080    3.3005   C.3       1 RES1   0.0000
   228 N5        2.8257    2.7607    2.1001   N.am      1 RES1   0.0000
   229 C79       3.0609    3.5098    0.8694   C.3       1 RES1   0.0000
   230 C80       2.7732    5.0015    1.0310   C.3       1 RES1   0.0000
   231 C81       2.5085    5.6709   -0.3156   C.3       1 RES1   0.0000
   232 C82       3.7741    5.8008   -1.1643   C.3       1 RES1   0.0000
   233 C83       3.5746    6.5571   -2.4943   C.3       1 RES1   0.0000
   234 C84       4.1335    5.7861   -3.6935   C.3       1 RES1   0.0000
   235 C85       4.0854    6.5666   -5.0127   C.3       1 RES1   0.0000
   236 C86       5.3505    6.3076   -5.8225   C.3       1 RES1   0.0000
   237 C87       2.0448    1.6758    2.0184   C.2       1 RES1   0.0000
   238 O5        1.6715    1.2402    0.9156   O.2       1 RES1   0.0000
   239 C88       1.6578    1.0112    3.3366   C.3       1 RES1   0.0000
   240 C89       0.4831    0.0375    3.2741   C.2       1 RES1   0.0000
   241 O6       -0.0509   -0.3286    2.2176   O.2       1 RES1   0.0000
   242 N6        0.0274   -0.4134    4.4549   N.am      1 RES1   0.0000
   243 C90       0.4867    0.0448    5.7622   C.3       1 RES1   0.0000
   244 C91       1.8369   -0.4768    6.2711   C.3       1 RES1   0.0000
   245 C92       1.9024   -1.9725    6.5746   C.3       1 RES1   0.0000
   246 C93       0.8381   -2.5013    7.5372   C.3       1 RES1   0.0000
   247 C94       0.9960   -4.0162    7.6818   C.3       1 RES1   0.0000
   248 C95       0.1591   -4.6851    8.7786   C.3       1 RES1   0.0000
   249 C96      -1.2550   -5.0876    8.3471   C.3       1 RES1   0.0000
   250 C97      -2.3095   -4.0157    8.6042   C.3       1 RES1   0.0000
   251 C98      -1.1264   -1.3107    4.4227   C.3       1 RES1   0.0000
   252 C99      -0.7511   -2.7898    4.2982   C.3       1 RES1   0.0000
   253 C100     -1.7843   -3.6989    4.9645   C.3       1 RES1   0.0000
   254 C101     -3.2098   -3.5391    4.4453   C.3       1 RES1   0.0000
   255 C102     -3.3113   -3.8482    2.9573   C.3       1 RES1   0.0000
   256 C103     -4.7394   -3.7850    2.4177   C.3       1 RES1   0.0000
   257 C104     -5.3956   -2.4151    2.6110   C.3       1 RES1   0.0000
   258 C105     -6.6219   -2.2322    1.7243   C.3       1 RES1   0.0000
   259 H141     11.0225    0.5930    3.4343   H         1 RES1   0.0000
   260 H142      9.7917    1.8439    3.3220   H         1 RES1   0.0000
   261 H143      9.3690    0.1513    3.0267   H         1 RES1   0.0000
   262 H144     10.2897    1.2660    5.7086   H         1 RES1   0.0000
   263 H145      9.9189   -0.4182    5.3683   H         1 RES1   0.0000
   264 H146      7.9972    0.3488    6.4167   H         1 RES1   0.0000
   265 H147      7.5503    0.3838    4.7129   H         1 RES1   0.0000
   266 H148      8.7437    2.8843    5.8767   H         1 RES1   0.0000
   267 H149      7.1499    2.4522    6.4737   H         1 RES1   0.0000
   268 H150      7.6350    2.6113    3.4868   H         1 RES1   0.0000
   269 H151      7.3651    4.0702    4.4416   H         1 RES1   0.0000
   270 H152      5.2522    3.1579    5.3029   H         1 RES1   0.0000
   271 H153      5.4717    1.6871    4.3554   H         1 RES1   0.0000
   272 H154      5.3302    2.9874    2.2652   H         1 RES1   0.0000
   273 H155      5.2701    4.4902    3.1819   H         1 RES1   0.0000
   274 H156      3.0083    4.2875    3.4935   H         1 RES1   0.0000
   275 H157      3.2352    2.6759    4.1564   H         1 RES1   0.0000
   276 H158      2.3744    3.0767    0.1422   H         1 RES1   0.0000
   277 H159      4.0835    3.3439    0.5297   H         1 RES1   0.0000
   278 H160      3.6084    5.4952    1.5246   H         1 RES1   0.0000
   279 H161      1.8859    5.1155    1.6544   H         1 RES1   0.0000
   280 H162      2.0926    6.6619   -0.1366   H         1 RES1   0.0000
   281 H163      1.7555    5.0830   -0.8444   H         1 RES1   0.0000
   282 H164      4.1630    4.8025   -1.3774   H         1 RES1   0.0000
   283 H165      4.5332    6.3134   -0.5753   H         1 RES1   0.0000
   284 H166      4.0952    7.5137   -2.4464   H         1 RES1   0.0000
   285 H167      2.5185    6.7861   -2.6420   H         1 RES1   0.0000
   286 H168      3.6249    4.8274   -3.8228   H         1 RES1   0.0000
   287 H169      5.1776    5.5611   -3.4798   H         1 RES1   0.0000
   288 H170      3.2123    6.2825   -5.6041   H         1 RES1   0.0000
   289 H171      4.0015    7.6345   -4.8028   H         1 RES1   0.0000
   290 H172      6.2222    6.5980   -5.2419   H         1 RES1   0.0000
   291 H173      5.3511    6.8853   -6.7406   H         1 RES1   0.0000
   292 H174      5.4509    5.2520   -6.0807   H         1 RES1   0.0000
   293 H175      1.4065    1.7815    4.0701   H         1 RES1   0.0000
   294 H176      2.5402    0.4750    3.7019   H         1 RES1   0.0000
   295 H177     -0.2801   -0.2383    6.4845   H         1 RES1   0.0000
   296 H178      0.5321    1.1376    5.7617   H         1 RES1   0.0000
   297 H179      2.0492    0.0847    7.1824   H         1 RES1   0.0000
   298 H180      2.6397   -0.2471    5.5685   H         1 RES1   0.0000
   299 H181      2.8820   -2.1827    7.0091   H         1 RES1   0.0000
   300 H182      1.8523   -2.5319    5.6389   H         1 RES1   0.0000
   301 H183     -0.1611   -2.2693    7.1693   H         1 RES1   0.0000
   302 H184      0.9647   -2.0211    8.5084   H         1 RES1   0.0000
   303 H185      2.0490   -4.2151    7.8877   H         1 RES1   0.0000
   304 H186      0.7587   -4.4862    6.7226   H         1 RES1   0.0000
   305 H187      0.1016   -4.0444    9.6598   H         1 RES1   0.0000
   306 H188      0.6881   -5.5901    9.0778   H         1 RES1   0.0000
   307 H189     -1.5488   -5.9807    8.8993   H         1 RES1   0.0000
   308 H190     -1.2448   -5.3576    7.2891   H         1 RES1   0.0000
   309 H191     -2.4416   -3.8744    9.6739   H         1 RES1   0.0000
   310 H192     -3.2676   -4.3122    8.1789   H         1 RES1   0.0000
   311 H193     -2.0286   -3.0549    8.1764   H         1 RES1   0.0000
   312 H194     -1.7472   -1.0220    3.5739   H         1 RES1   0.0000
   313 H195     -1.7019   -1.1515    5.3341   H         1 RES1   0.0000
   314 H196      0.1982   -2.9513    4.8009   H         1 RES1   0.0000
   315 H197     -0.6165   -3.0545    3.2507   H         1 RES1   0.0000
   316 H198     -1.7878   -3.4826    6.0303   H         1 RES1   0.0000
   317 H199     -1.4753   -4.7380    4.8360   H         1 RES1   0.0000
   318 H200     -3.5510   -2.5253    4.6422   H         1 RES1   0.0000
   319 H201     -3.8633   -4.2174    4.9966   H         1 RES1   0.0000
   320 H202     -2.9174   -4.8522    2.7901   H         1 RES1   0.0000
   321 H203     -2.6873   -3.1435    2.4039   H         1 RES1   0.0000
   322 H204     -5.3432   -4.5404    2.9241   H         1 RES1   0.0000
   323 H205     -4.7229   -4.0354    1.3528   H         1 RES1   0.0000
   324 H206     -4.6707   -1.6220    2.3915   H         1 RES1   0.0000
   325 H207     -5.6927   -2.3034    3.6531   H         1 RES1   0.0000
   326 H208     -6.3496   -2.2664    0.6710   H         1 RES1   0.0000
   327 H209     -7.1060   -1.2791    1.9300   H         1 RES1   0.0000
   328 H210     -7.3459   -3.0189    1.9155   H         1 RES1   0.0000
   329 C106     -3.6351    2.4388   -7.8726   C.3       1 RES1   0.0000
   330 C107     -5.0489    2.1029   -7.4124   C.3       1 RES1   0.0000
   331 C108     -5.3521    2.5117   -5.9678   C.3       1 RES1   0.0000
   332 C109     -5.5587    4.0135   -5.7275   C.3       1 RES1   0.0000
   333 C110     -4.3178    4.8466   -5.3824   C.3       1 RES1   0.0000
   334 C111     -3.6868    4.6076   -3.9954   C.3       1 RES1   0.0000
   335 C112     -2.4555    3.6953   -4.0260   C.3       1 RES1   0.0000
   336 C113     -1.6050    3.7593   -2.7427   C.3       1 RES1   0.0000
   337 N7       -0.1600    3.6648   -2.9706   N.am      1 RES1   0.0000
   338 C114      0.4678    4.9153   -3.3929   C.3       1 RES1   0.0000
   339 C115      0.1462    5.4079   -4.8090   C.3       1 RES1   0.0000
   340 C116      0.4255    4.3570   -5.8856   C.3       1 RES1   0.0000
   341 C117     -0.3487    4.6128   -7.1782   C.3       1 RES1   0.0000
   342 C118      0.0217    5.9298   -7.8529   C.3       1 RES1   0.0000
   343 C119     -0.6987    6.1058   -9.1881   C.3       1 RES1   0.0000
   344 C120     -2.1724    6.4767   -9.0382   C.3       1 RES1   0.0000
   345 C121     -2.8336    6.6289  -10.4001   C.3       1 RES1   0.0000
   346 C122      0.5041    2.6040   -2.4826   C.2       1 RES1   0.0000
   347 O7       -0.0958    1.7059   -1.8703   O.2       1 RES1   0.0000
   348 C123      2.0179    2.5338   -2.7238   C.3       1 RES1   0.0000
   349 C124      2.6476    1.1401   -2.4819   C.2       1 RES1   0.0000
   350 O8        2.0178    0.2247   -1.9244   O.2       1 RES1   0.0000
   351 N8        3.8939    0.9917   -2.9424   N.am      1 RES1   0.0000
   352 C125      4.7281    2.1593   -3.2919   C.3       1 RES1   0.0000
   353 C126      6.2431    1.9038   -3.2179   C.3       1 RES1   0.0000
   354 C127      7.1011    3.1693   -3.0928   C.3       1 RES1   0.0000
   355 C128      7.0027    3.8173   -1.6976   C.3       1 RES1   0.0000
   356 C129      8.3571    3.9068   -0.9894   C.3       1 RES1   0.0000
   357 C130      8.2832    4.1873    0.5204   C.3       1 RES1   0.0000
   358 C131      8.5425    5.6416    0.9119   C.3       1 RES1   0.0000
   359 C132      7.3779    6.5732    0.6025   C.3       1 RES1   0.0000
   360 C133      4.5613   -0.3002   -3.2052   C.3       1 RES1   0.0000
   361 C134      3.8090   -1.6329   -3.0794   C.3       1 RES1   0.0000
   362 C135      4.2617   -2.4021   -1.8329   C.3       1 RES1   0.0000
   363 C136      5.7329   -2.8363   -1.8422   C.3       1 RES1   0.0000
   364 C137      6.1039   -3.7917   -2.9760   C.3       1 RES1   0.0000
   365 C138      7.4679   -4.4524   -2.7650   C.3       1 RES1   0.0000
   366 C139      8.6473   -3.4824   -2.6827   C.3       1 RES1   0.0000
   367 C140      8.9138   -2.7255   -3.9796   C.3       1 RES1   0.0000
   368 H211     -3.4312    1.9657   -8.8307   H         1 RES1   0.0000
   369 H212     -2.8969    2.0778   -7.1551   H         1 RES1   0.0000
   370 H213     -3.5101    3.5103   -7.9994   H         1 RES1   0.0000
   371 H214     -5.1898    1.0217   -7.4934   H         1 RES1   0.0000
   372 H215     -5.7730    2.5765   -8.0767   H         1 RES1   0.0000
   373 H216     -4.5428    2.1542   -5.3302   H         1 RES1   0.0000
   374 H217     -6.2695    1.9923   -5.6723   H         1 RES1   0.0000
   375 H218     -6.2871    4.1402   -4.9210   H         1 RES1   0.0000
   376 H219     -6.0031    4.4420   -6.6292   H         1 RES1   0.0000
   377 H220     -4.6435    5.8880   -5.4238   H         1 RES1   0.0000
   378 H221     -3.5663    4.7117   -6.1602   H         1 RES1   0.0000
   379 H222     -4.4402    4.2094   -3.3135   H         1 RES1   0.0000
   380 H223     -3.3760    5.5786   -3.6043   H         1 RES1   0.0000
   381 H224     -1.8489    4.0038   -4.8662   H         1 RES1   0.0000
   382 H225     -2.7640    2.6727   -4.2179   H         1 RES1   0.0000
   383 H226     -1.8695    2.9437   -2.0661   H         1 RES1   0.0000
   384 H227     -1.7855    4.7072   -2.2242   H         1 RES1   0.0000
   385 H228      1.5467    4.8317   -3.3165   H         1 RES1   0.0000
   386 H229      0.1399    5.6863   -2.6838   H         1 RES1   0.0000
   387 H230      0.7783    6.2830   -4.9696   H         1 RES1   0.0000
   388 H231     -0.8854    5.7517   -4.8694   H         1 RES1   0.0000
   389 H232      0.1519    3.3681   -5.5074   H         1 RES1   0.0000
   390 H233      1.4934    4.3461   -6.1112   H         1 RES1   0.0000
   391 H234     -1.4202    4.6044   -6.9678   H         1 RES1   0.0000
   392 H235     -0.1453    3.7940   -7.8726   H         1 RES1   0.0000
   393 H236      1.1009    5.9482   -8.0184   H         1 RES1   0.0000
   394 H237     -0.2297    6.7681   -7.2011   H         1 RES1   0.0000
   395 H238     -0.6151    5.1847   -9.7686   H         1 RES1   0.0000
   396 H239     -0.2023    6.8933   -9.7552   H         1 RES1   0.0000
   397 H240     -2.2567    7.4141   -8.4838   H         1 RES1   0.0000
   398 H241     -2.7040    5.7097   -8.4703   H         1 RES1   0.0000
   399 H242     -2.3238    7.3895  -10.9845   H         1 RES1   0.0000
   400 H243     -3.8757    6.9181  -10.2991   H         1 RES1   0.0000
   401 H244     -2.7903    5.6911  -10.9481   H         1 RES1   0.0000
   402 H245      2.5011    3.2670   -2.0733   H         1 RES1   0.0000
   403 H246      2.2356    2.8257   -3.7536   H         1 RES1   0.0000
   404 H247      4.5038    2.9462   -2.5675   H         1 RES1   0.0000
   405 H248      4.4719    2.5223   -4.2967   H         1 RES1   0.0000
   406 H249      6.5815    1.3447   -4.0878   H         1 RES1   0.0000
   407 H250      6.4601    1.3120   -2.3331   H         1 RES1   0.0000
   408 H251      6.8561    3.8776   -3.8832   H         1 RES1   0.0000
   409 H252      8.1336    2.8631   -3.2688   H         1 RES1   0.0000
   410 H253      6.3263    3.2173   -1.0799   H         1 RES1   0.0000
   411 H254      6.5665    4.8115   -1.7696   H         1 RES1   0.0000
   412 H255      8.9704    4.6688   -1.4728   H         1 RES1   0.0000
   413 H256      8.8656    2.9539   -1.1263   H         1 RES1   0.0000
   414 H257      9.0424    3.5788    1.0142   H         1 RES1   0.0000
   415 H258      7.3138    3.8771    0.9177   H         1 RES1   0.0000
   416 H259      9.4344    5.9924    0.3911   H         1 RES1   0.0000
   417 H260      8.7516    5.6842    1.9844   H         1 RES1   0.0000
   418 H261      7.0806    6.4939   -0.4401   H         1 RES1   0.0000
   419 H262      7.6605    7.6059    0.7919   H         1 RES1   0.0000
   420 H263      6.5212    6.3353    1.2327   H         1 RES1   0.0000
   421 H264      5.4241   -0.3624   -2.5431   H         1 RES1   0.0000
   422 H265      4.9395   -0.2025   -4.2243   H         1 RES1   0.0000
   423 H266      4.0295   -2.2293   -3.9683   H         1 RES1   0.0000
   424 H267      2.7291   -1.5030   -3.0412   H         1 RES1   0.0000
   425 H268      3.6439   -3.2943   -1.7243   H         1 RES1   0.0000
   426 H269      4.0789   -1.7685   -0.9613   H         1 RES1   0.0000
   427 H270      5.9446   -3.3338   -0.8938   H         1 RES1   0.0000
   428 H271      6.3839   -1.9637   -1.8947   H         1 RES1   0.0000
   429 H272      6.1162   -3.2609   -3.9266   H         1 RES1   0.0000
   430 H273      5.3489   -4.5782   -3.0410   H         1 RES1   0.0000
   431 H274      7.6461   -5.1447   -3.5892   H         1 RES1   0.0000
   432 H275      7.4394   -5.0342   -1.8400   H         1 RES1   0.0000
   433 H276      9.5406   -4.0526   -2.4234   H         1 RES1   0.0000
   434 H277      8.4810   -2.7806   -1.8649   H         1 RES1   0.0000
   435 H278      8.9682   -3.4225   -4.8116   H         1 RES1   0.0000
   436 H279      9.8590   -2.1896   -3.9211   H         1 RES1   0.0000
   437 H280      8.1296   -2.0009   -4.1899   H         1 RES1   0.0000
   438 O9       -1.9697   -1.7792    0.6410   O.3       1 RES1   0.0000
   439 H281     -2.6288   -1.9811   -0.0383   H         1 RES1   0.0000
   440 H282     -2.3292   -1.0562    1.1671   H         1 RES1   0.0000
@<TRIPOS>BOND
     1     1    20    1
     2     1    23    1
     3     1   129    1
     4     1   132    1
     5     1   238    1
     6     1   241    1
     7     1   347    1
     8     1   350    1
     9     1   438    1
    10     2     3    1
    11     2    41    1
    12     2    42    1
    13     2    43    1
    14     3     4    1
    15     3    44    1
    16     3    45    1
    17     4     5    1
    18     4    46    1
    19     4    47    1
    20     5     6    1
    21     5    48    1
    22     5    49    1
    23     6     7    1
    24     6    50    1
    25     6    51    1
    26     7     8    1
    27     7    52    1
    28     7    53    1
    29     8     9    1
    30     8    54    1
    31     8    55    1
    32     9    10    1
    33     9    56    1
    34     9    57    1
    35    10    11    1
    36    10    19    1
    37    11    12    1
    38    11    58    1
    39    11    59    1
    40    12    13    1
    41    12    60    1
    42    12    61    1
    43    13    14    1
    44    13    62    1
    45    13    63    1
    46    14    15    1
    47    14    64    1
    48    14    65    1
    49    15    16    1
    50    15    66    1
    51    15    67    1
    52    16    17    1
    53    16    68    1
    54    16    69    1
    55    17    18    1
    56    17    70    1
    57    17    71    1
    58    18    72    1
    59    18    73    1
    60    18    74    1
    61    19    20    2
    62    19    21    1
    63    21    22    1
    64    21    75    1
    65    21    76    1
    66    22    23    2
    67    22    24    1
    68    24    25    1
    69    24    33    1
    70    25    26    1
    71    25    77    1
    72    25    78    1
    73    26    27    1
    74    26    79    1
    75    26    80    1
    76    27    28    1
    77    27    81    1
    78    27    82    1
    79    28    29    1
    80    28    83    1
    81    28    84    1
    82    29    30    1
    83    29    85    1
    84    29    86    1
    85    30    31    1
    86    30    87    1
    87    30    88    1
    88    31    32    1
    89    31    89    1
    90    31    90    1
    91    32    91    1
    92    32    92    1
    93    32    93    1
    94    33    34    1
    95    33    94    1
    96    33    95    1
    97    34    35    1
    98    34    96    1
    99    34    97    1
   100    35    36    1
   101    35    98    1
   102    35    99    1
   103    36    37    1
   104    36   100    1
   105    36   101    1
   106    37    38    1
   107    37   102    1
   108    37   103    1
   109    38    39    1
   110    38   104    1
   111    38   105    1
   112    39    40    1
   113    39   106    1
   114    39   107    1
   115    40   108    1
   116    40   109    1
   117    40   110    1
   118   111   112    1
   119   111   150    1
   120   111   151    1
   121   111   152    1
   122   112   113    1
   123   112   153    1
   124   112   154    1
   125   113   114    1
   126   113   155    1
   127   113   156    1
   128   114   115    1
   129   114   157    1
   130   114   158    1
   131   115   116    1
   132   115   159    1
   133   115   160    1
   134   116   117    1
   135   116   161    1
   136   116   162    1
   137   117   118    1
   138   117   163    1
   139   117   164    1
   140   118   119    1
   141   118   165    1
   142   118   166    1
   143   119   120    1
   144   119   128    1
   145   120   121    1
   146   120   167    1
   147   120   168    1
   148   121   122    1
   149   121   169    1
   150   121   170    1
   151   122   123    1
   152   122   171    1
   153   122   172    1
   154   123   124    1
   155   123   173    1
   156   123   174    1
   157   124   125    1
   158   124   175    1
   159   124   176    1
   160   125   126    1
   161   125   177    1
   162   125   178    1
   163   126   127    1
   164   126   179    1
   165   126   180    1
   166   127   181    1
   167   127   182    1
   168   127   183    1
   169   128   129    2
   170   128   130    1
   171   130   131    1
   172   130   184    1
   173   130   185    1
   174   131   132    2
   175   131   133    1
   176   133   134    1
   177   133   142    1
   178   134   135    1
   179   134   186    1
   180   134   187    1
   181   135   136    1
   182   135   188    1
   183   135   189    1
   184   136   137    1
   185   136   190    1
   186   136   191    1
   187   137   138    1
   188   137   192    1
   189   137   193    1
   190   138   139    1
   191   138   194    1
   192   138   195    1
   193   139   140    1
   194   139   196    1
   195   139   197    1
   196   140   141    1
   197   140   198    1
   198   140   199    1
   199   141   200    1
   200   141   201    1
   201   141   202    1
   202   142   143    1
   203   142   203    1
   204   142   204    1
   205   143   144    1
   206   143   205    1
   207   143   206    1
   208   144   145    1
   209   144   207    1
   210   144   208    1
   211   145   146    1
   212   145   209    1
   213   145   210    1
   214   146   147    1
   215   146   211    1
   216   146   212    1
   217   147   148    1
   218   147   213    1
   219   147   214    1
   220   148   149    1
   221   148   215    1
   222   148   216    1
   223   149   217    1
   224   149   218    1
   225   149   219    1
   226   220   221    1
   227   220   259    1
   228   220   260    1
   229   220   261    1
   230   221   222    1
   231   221   262    1
   232   221   263    1
   233   222   223    1
   234   222   264    1
   235   222   265    1
   236   223   224    1
   237   223   266    1
   238   223   267    1
   239   224   225    1
   240   224   268    1
   241   224   269    1
   242   225   226    1
   243   225   270    1
   244   225   271    1
   245   226   227    1
   246   226   272    1
   247   226   273    1
   248   227   228    1
   249   227   274    1
   250   227   275    1
   251   228   229    1
   252   228   237    1
   253   229   230    1
   254   229   276    1
   255   229   277    1
   256   230   231    1
   257   230   278    1
   258   230   279    1
   259   231   232    1
   260   231   280    1
   261   231   281    1
   262   232   233    1
   263   232   282    1
   264   232   283    1
   265   233   234    1
   266   233   284    1
   267   233   285    1
   268   234   235    1
   269   234   286    1
   270   234   287    1
   271   235   236    1
   272   235   288    1
   273   235   289    1
   274   236   290    1
   275   236   291    1
   276   236   292    1
   277   237   238    2
   278   237   239    1
   279   239   240    1
   280   239   293    1
   281   239   294    1
   282   240   241    2
   283   240   242    1
   284   242   243    1
   285   242   251    1
   286   243   244    1
   287   243   295    1
   288   243   296    1
   289   244   245    1
   290   244   297    1
   291   244   298    1
   292   245   246    1
   293   245   299    1
   294   245   300    1
   295   246   247    1
   296   246   301    1
   297   246   302    1
   298   247   248    1
   299   247   303    1
   300   247   304    1
   301   248   249    1
   302   248   305    1
   303   248   306    1
   304   249   250    1
   305   249   307    1
   306   249   308    1
   307   250   309    1
   308   250   310    1
   309   250   311    1
   310   251   252    1
   311   251   312    1
   312   251   313    1
   313   252   253    1
   314   252   314    1
   315   252   315    1
   316   253   254    1
   317   253   316    1
   318   253   317    1
   319   254   255    1
   320   254   318    1
   321   254   319    1
   322   255   256    1
   323   255   320    1
   324   255   321    1
   325   256   257    1
   326   256   322    1
   327   256   323    1
   328   257   258    1
   329   257   324    1
   330   257   325    1
   331   258   326    1
   332   258   327    1
   333   258   328    1
   334   329   330    1
   335   329   368    1
   336   329   369    1
   337   329   370    1
   338   330   331    1
   339   330   371    1
   340   330   372    1
   341   331   332    1
   342   331   373    1
   343   331   374    1
   344   332   333    1
   345   332   375    1
   346   332   376    1
   347   333   334    1
   348   333   377    1
   349   333   378    1
   350   334   335    1
   351   334   379    1
   352   334   380    1
   353   335   336    1
   354   335   381    1
   355   335   382    1
   356   336   337    1
   357   336   383    1
   358   336   384    1
   359   337   338    1
   360   337   346    1
   361   338   339    1
   362   338   385    1
   363   338   386    1
   364   339   340    1
   365   339   387    1
   366   339   388    1
   367   340   341    1
   368   340   389    1
   369   340   390    1
   370   341   342    1
   371   341   391    1
   372   341   392    1
   373   342   343    1
   374   342   393    1
   375   342   394    1
   376   343   344    1
   377   343   395    1
   378   343   396    1
   379   344   345    1
   380   344   397    1
   381   344   398    1
   382   345   399    1
   383   345   400    1
   384   345   401    1
   385   346   347    2
   386   346   348    1
   387   348   349    1
   388   348   402    1
   389   348   403    1
   390   349   350    2
   391   349   351    1
   392   351   352    1
   393   351   360    1
   394   352   353    1
   395   352   404    1
   396   352   405    1
   397   353   354    1
   398   353   406    1
   399   353   407    1
   400   354   355    1
   401   354   408    1
   402   354   409    1
   403   355   356    1
   404   355   410    1
   405   355   411    1
   406   356   357    1
   407   356   412    1
   408   356   413    1
   409   357   358    1
   410   357   414    1
   411   357   415    1
   412   358   359    1
   413   358   416    1
   414   358   417    1
   415   359   418    1
   416   359   419    1
   417   359   420    1
   418   360   361    1
   419   360   421    1
   420   360   422    1
   421   361   362    1
   422   361   423    1
   423   361   424    1
   424   362   363    1
   425   362   425    1
   426   362   426    1
   427   363   364    1
   428   363   427    1
   429   363   428    1
   430   364   365    1
   431   364   429    1
   432   364   430    1
   433   365   366    1
   434   365   431    1
   435   365   432    1
   436   366   367    1
   437   366   433    1
   438   366   434    1
   439   367   435    1
   440   367   436    1
   441   367   437    1
   442   438   439    1
   443   438   440    1
@<TRIPOS>SUBSTRUCTURE
     1 RES1      440 GROUP             0 ****  ****    0  
