@<TRIPOS>MOLECULE
am_c3_9H2O_c0_0_nunpairedes_0_charge_3 Charge: 3 Unpaired_Electrons: 0 XTB_Unpaired_Electrons: 0 XTB_Charge: 3
   205   210     1     0     0
SMALL
NoCharges
****
Generated from Architector

@<TRIPOS>ATOM
     1 La1      -0.0121    0.0142   -0.0652   La        1 RES1   0.0000
     2 C1        0.3126    1.7948   -6.5442   C.3       1 RES1   0.0000
     3 C2       -0.0270    2.6448   -5.3248   C.3       1 RES1   0.0000
     4 C3        1.2361    3.0450   -4.5603   C.3       1 RES1   0.0000
     5 C4        1.0245    4.2298   -3.6084   C.3       1 RES1   0.0000
     6 C5        0.7749    3.8194   -2.1524   C.3       1 RES1   0.0000
     7 C6       -0.6872    3.5780   -1.7774   C.3       1 RES1   0.0000
     8 O1       -0.9566    2.1919   -1.4889   O.3       1 RES1   0.0000
     9 C7       -2.3471    1.9216   -1.6257   C.3       1 RES1   0.0000
    10 C8       -3.2646    2.5851   -0.5810   C.3       1 RES1   0.0000
    11 C9       -3.5340    1.8066    0.7389   C.3       1 RES1   0.0000
    12 C10      -3.7517    0.3310    0.3920   C.2       1 RES1   0.0000
    13 O2       -2.7634   -0.3969    0.1832   O.2       1 RES1   0.0000
    14 N1       -4.9908   -0.1532    0.3031   N.am      1 RES1   0.0000
    15 C11      -6.2446    0.5772    0.3023   C.3       1 RES1   0.0000
    16 C12      -5.1011   -1.6010    0.1435   C.3       1 RES1   0.0000
    17 C13      -4.8610   -2.0675   -1.2936   C.3       1 RES1   0.0000
    18 C14      -5.9107   -1.6045   -2.3022   C.3       1 RES1   0.0000
    19 C15      -7.2926   -2.1755   -2.0196   C.3       1 RES1   0.0000
    20 C16      -2.3959    1.8736    1.7724   C.2       1 RES1   0.0000
    21 O3       -1.3463    1.2295    1.5708   O.2       1 RES1   0.0000
    22 N2       -2.5428    2.5922    2.8983   N.am      1 RES1   0.0000
    23 C17      -1.3724    2.7151    3.7579   C.3       1 RES1   0.0000
    24 C18      -3.7222    3.4031    3.2630   C.3       1 RES1   0.0000
    25 C19      -3.7564    4.0023    4.6918   C.3       1 RES1   0.0000
    26 C20      -4.6950    3.3630    5.7316   C.3       1 RES1   0.0000
    27 C21      -4.1408    2.1659    6.5039   C.3       1 RES1   0.0000
    28 H1       -0.5828    1.5859   -7.1208   H         1 RES1   0.0000
    29 H2        1.0038    2.3349   -7.1863   H         1 RES1   0.0000
    30 H3        0.7712    0.8526   -6.2528   H         1 RES1   0.0000
    31 H4       -0.5271    3.5526   -5.6692   H         1 RES1   0.0000
    32 H5       -0.7096    2.1098   -4.6559   H         1 RES1   0.0000
    33 H6        1.6123    2.1833   -3.9999   H         1 RES1   0.0000
    34 H7        1.9979    3.3194   -5.2931   H         1 RES1   0.0000
    35 H8        1.9145    4.8618   -3.6324   H         1 RES1   0.0000
    36 H9        0.2030    4.8473   -3.9779   H         1 RES1   0.0000
    37 H10       1.3194    2.8962   -1.9502   H         1 RES1   0.0000
    38 H11       1.1726    4.6099   -1.5173   H         1 RES1   0.0000
    39 H12      -0.9265    4.1739   -0.8904   H         1 RES1   0.0000
    40 H13      -1.3441    3.8983   -2.5965   H         1 RES1   0.0000
    41 H14      -2.6525    2.2588   -2.6250   H         1 RES1   0.0000
    42 H15      -2.4425    0.8340   -1.5961   H         1 RES1   0.0000
    43 H16      -2.8884    3.5778   -0.3335   H         1 RES1   0.0000
    44 H17      -4.2349    2.7273   -1.0593   H         1 RES1   0.0000
    45 H18      -4.4258    2.2263    1.1995   H         1 RES1   0.0000
    46 H19      -6.9014    0.1980    1.0863   H         1 RES1   0.0000
    47 H20      -6.0935    1.6429    0.4374   H         1 RES1   0.0000
    48 H21      -6.7627    0.4313   -0.6459   H         1 RES1   0.0000
    49 H22      -4.3215   -2.0404    0.7730   H         1 RES1   0.0000
    50 H23      -6.0761   -1.9198    0.5078   H         1 RES1   0.0000
    51 H24      -3.8783   -1.6916   -1.5838   H         1 RES1   0.0000
    52 H25      -4.8276   -3.1601   -1.2919   H         1 RES1   0.0000
    53 H26      -5.9279   -0.5138   -2.3368   H         1 RES1   0.0000
    54 H27      -5.5932   -1.9427   -3.2896   H         1 RES1   0.0000
    55 H28      -7.6733   -1.8790   -1.0474   H         1 RES1   0.0000
    56 H29      -7.9934   -1.8340   -2.7722   H         1 RES1   0.0000
    57 H30      -7.2558   -3.2599   -2.0551   H         1 RES1   0.0000
    58 H31      -0.5490    2.1964    3.2749   H         1 RES1   0.0000
    59 H32      -1.1147    3.7671    3.8930   H         1 RES1   0.0000
    60 H33      -1.5385    2.2603    4.7342   H         1 RES1   0.0000
    61 H34      -3.7721    4.2374    2.5526   H         1 RES1   0.0000
    62 H35      -4.6236    2.7986    3.1454   H         1 RES1   0.0000
    63 H36      -2.7652    4.0431    5.1303   H         1 RES1   0.0000
    64 H37      -4.0859    5.0363    4.5795   H         1 RES1   0.0000
    65 H38      -5.6515    3.1124    5.2713   H         1 RES1   0.0000
    66 H39      -4.9083    4.1429    6.4648   H         1 RES1   0.0000
    67 H40      -3.1099    2.3434    6.8022   H         1 RES1   0.0000
    68 H41      -4.7273    2.0321    7.4084   H         1 RES1   0.0000
    69 H42      -4.1923    1.2345    5.9499   H         1 RES1   0.0000
    70 C22       5.5143   -5.4956    0.8021   C.3       1 RES1   0.0000
    71 C23       4.7083   -4.6184    1.7523   C.3       1 RES1   0.0000
    72 C24       3.2297   -5.0086    1.7756   C.3       1 RES1   0.0000
    73 C25       2.3952   -4.0486    2.6351   C.3       1 RES1   0.0000
    74 C26       2.1856   -2.7137    1.9049   C.3       1 RES1   0.0000
    75 C27       2.2574   -1.4356    2.7362   C.3       1 RES1   0.0000
    76 O4        2.1663   -0.3036    1.8555   O.3       1 RES1   0.0000
    77 C28       3.4279   -0.0052    1.2407   C.3       1 RES1   0.0000
    78 C29       3.7873    1.4754    1.3767   C.3       1 RES1   0.0000
    79 C30       3.2927    2.4237    0.2480   C.3       1 RES1   0.0000
    80 C31       1.9026    2.9284    0.6195   C.2       1 RES1   0.0000
    81 O5        0.9611    2.1300    0.7684   O.2       1 RES1   0.0000
    82 N3        1.7640    4.2398    0.8461   N.am      1 RES1   0.0000
    83 C32       0.5279    4.7453    1.4082   C.3       1 RES1   0.0000
    84 C33       2.7326    5.2780    0.5101   C.3       1 RES1   0.0000
    85 C34       3.7198    5.5984    1.6377   C.3       1 RES1   0.0000
    86 C35       4.6757    6.7252    1.2307   C.3       1 RES1   0.0000
    87 C36       5.6158    6.3377    0.0930   C.3       1 RES1   0.0000
    88 C37       3.2647    1.7044   -1.1117   C.2       1 RES1   0.0000
    89 O6        2.3370    0.9106   -1.3835   O.2       1 RES1   0.0000
    90 N4        4.2798    1.9715   -1.9343   N.am      1 RES1   0.0000
    91 C38       5.2944    2.9743   -1.6464   C.3       1 RES1   0.0000
    92 C39       4.5043    1.2526   -3.1905   C.3       1 RES1   0.0000
    93 C40       5.9021    0.6044   -3.1887   C.3       1 RES1   0.0000
    94 C41       6.1899   -0.3828   -4.3282   C.3       1 RES1   0.0000
    95 C42       5.9423    0.1878   -5.7186   C.3       1 RES1   0.0000
    96 H43       6.5607   -5.2116    0.8370   H         1 RES1   0.0000
    97 H44       5.4346   -6.5411    1.0860   H         1 RES1   0.0000
    98 H45       5.1628   -5.3879   -0.2233   H         1 RES1   0.0000
    99 H46       5.0983   -4.7138    2.7684   H         1 RES1   0.0000
   100 H47       4.8154   -3.5695    1.4521   H         1 RES1   0.0000
   101 H48       2.8290   -5.0205    0.7550   H         1 RES1   0.0000
   102 H49       3.1439   -6.0207    2.1759   H         1 RES1   0.0000
   103 H50       1.4321   -4.5142    2.8542   H         1 RES1   0.0000
   104 H51       2.8956   -3.9042    3.5937   H         1 RES1   0.0000
   105 H52       2.9667   -2.6190    1.1456   H         1 RES1   0.0000
   106 H53       1.2180   -2.7179    1.3992   H         1 RES1   0.0000
   107 H54       1.4417   -1.3503    3.4573   H         1 RES1   0.0000
   108 H55       3.2007   -1.4137    3.2935   H         1 RES1   0.0000
   109 H56       4.2025   -0.5753    1.7536   H         1 RES1   0.0000
   110 H57       3.4221   -0.3158    0.1925   H         1 RES1   0.0000
   111 H58       3.3816    1.8268    2.3282   H         1 RES1   0.0000
   112 H59       4.8733    1.5651    1.4244   H         1 RES1   0.0000
   113 H60       3.9778    3.2652    0.2195   H         1 RES1   0.0000
   114 H61      -0.1080    3.8947    1.6248   H         1 RES1   0.0000
   115 H62       0.7487    5.3021    2.3179   H         1 RES1   0.0000
   116 H63       0.0254    5.4217    0.7148   H         1 RES1   0.0000
   117 H64       3.2587    5.0105   -0.4080   H         1 RES1   0.0000
   118 H65       2.1739    6.1931    0.2961   H         1 RES1   0.0000
   119 H66       3.1528    5.9111    2.5175   H         1 RES1   0.0000
   120 H67       4.2970    4.7125    1.9116   H         1 RES1   0.0000
   121 H68       4.0889    7.5983    0.9399   H         1 RES1   0.0000
   122 H69       5.2690    6.9973    2.1047   H         1 RES1   0.0000
   123 H70       5.0792    6.2140   -0.8457   H         1 RES1   0.0000
   124 H71       6.3526    7.1198   -0.0570   H         1 RES1   0.0000
   125 H72       6.1472    5.4180    0.3295   H         1 RES1   0.0000
   126 H73       5.8904    2.7003   -0.7759   H         1 RES1   0.0000
   127 H74       5.9566    3.0438   -2.5023   H         1 RES1   0.0000
   128 H75       4.8656    3.9657   -1.5109   H         1 RES1   0.0000
   129 H76       3.7219    0.5030   -3.2849   H         1 RES1   0.0000
   130 H77       4.4251    1.9580   -4.0229   H         1 RES1   0.0000
   131 H78       6.6664    1.3806   -3.2550   H         1 RES1   0.0000
   132 H79       6.0335    0.0856   -2.2344   H         1 RES1   0.0000
   133 H80       7.2398   -0.6668   -4.2331   H         1 RES1   0.0000
   134 H81       5.6084   -1.2969   -4.2120   H         1 RES1   0.0000
   135 H82       6.5204    1.0916   -5.8875   H         1 RES1   0.0000
   136 H83       6.2368   -0.5398   -6.4684   H         1 RES1   0.0000
   137 H84       4.8885    0.4115   -5.8643   H         1 RES1   0.0000
   138 C43      -6.0764    0.5233    3.7113   C.3       1 RES1   0.0000
   139 C44      -5.1351   -0.6692    3.8531   C.3       1 RES1   0.0000
   140 C45      -3.6590   -0.2531    3.7847   C.3       1 RES1   0.0000
   141 C46      -2.7224   -1.2275    4.5072   C.3       1 RES1   0.0000
   142 C47      -2.3478   -2.4051    3.5969   C.3       1 RES1   0.0000
   143 C48      -1.0319   -2.1502    2.8349   C.3       1 RES1   0.0000
   144 O7       -1.0578   -2.0860    1.3897   O.3       1 RES1   0.0000
   145 C49      -1.7319   -3.1585    0.7235   C.3       1 RES1   0.0000
   146 C50      -0.8494   -4.1208   -0.0778   C.3       1 RES1   0.0000
   147 C51      -0.3164   -3.6613   -1.4668   C.3       1 RES1   0.0000
   148 C52      -1.2031   -2.6777   -2.2741   C.2       1 RES1   0.0000
   149 O8       -1.2404   -1.4775   -1.9387   O.2       1 RES1   0.0000
   150 N5       -1.8254   -3.1971   -3.3400   N.am      1 RES1   0.0000
   151 C53      -1.7038   -4.6073   -3.7065   C.3       1 RES1   0.0000
   152 C54      -2.8666   -2.5518   -4.1635   C.3       1 RES1   0.0000
   153 C55      -2.8578   -1.0418   -4.3629   C.3       1 RES1   0.0000
   154 C56      -1.7621   -0.5569   -5.3134   C.3       1 RES1   0.0000
   155 C57      -1.7185   -1.2928   -6.6484   C.3       1 RES1   0.0000
   156 C58       1.0660   -3.0412   -1.3289   C.2       1 RES1   0.0000
   157 O9        1.2293   -1.9092   -0.8256   O.2       1 RES1   0.0000
   158 N6        2.0820   -3.7774   -1.7777   N.am      1 RES1   0.0000
   159 C59       1.9666   -5.1518   -2.2332   C.3       1 RES1   0.0000
   160 C60       3.4022   -3.1668   -1.8511   C.3       1 RES1   0.0000
   161 C61       3.4211   -1.9082   -2.7128   C.3       1 RES1   0.0000
   162 C62       3.0463   -2.1462   -4.1794   C.3       1 RES1   0.0000
   163 C63       1.5427   -2.1431   -4.4313   C.3       1 RES1   0.0000
   164 H85      -7.0978    0.1942    3.5473   H         1 RES1   0.0000
   165 H86      -6.0653    1.1182    4.6181   H         1 RES1   0.0000
   166 H87      -5.7776    1.1599    2.8824   H         1 RES1   0.0000
   167 H88      -5.3330   -1.1443    4.8155   H         1 RES1   0.0000
   168 H89      -5.3406   -1.4054    3.0736   H         1 RES1   0.0000
   169 H90      -3.3422   -0.1815    2.7389   H         1 RES1   0.0000
   170 H91      -3.5561    0.7354    4.2285   H         1 RES1   0.0000
   171 H92      -1.8145   -0.7075    4.8234   H         1 RES1   0.0000
   172 H93      -3.2020   -1.5968    5.4153   H         1 RES1   0.0000
   173 H94      -2.2554   -3.3134    4.1957   H         1 RES1   0.0000
   174 H95      -3.1728   -2.5571    2.9031   H         1 RES1   0.0000
   175 H96      -0.6506   -1.1616    3.1126   H         1 RES1   0.0000
   176 H97      -0.3093   -2.9104    3.1510   H         1 RES1   0.0000
   177 H98      -2.2763   -3.7501    1.4623   H         1 RES1   0.0000
   178 H99      -2.4483   -2.6999    0.0385   H         1 RES1   0.0000
   179 H100      0.0017   -4.4507    0.5245   H         1 RES1   0.0000
   180 H101     -1.4691   -5.0009   -0.2540   H         1 RES1   0.0000
   181 H102     -0.1949   -4.5697   -2.0422   H         1 RES1   0.0000
   182 H103     -1.9533   -5.2729   -2.8843   H         1 RES1   0.0000
   183 H104     -2.3963   -4.8289   -4.5120   H         1 RES1   0.0000
   184 H105     -0.7105   -4.8397   -4.0903   H         1 RES1   0.0000
   185 H106     -2.8052   -2.9975   -5.1582   H         1 RES1   0.0000
   186 H107     -3.8261   -2.8600   -3.7376   H         1 RES1   0.0000
   187 H108     -3.8273   -0.7888   -4.8012   H         1 RES1   0.0000
   188 H109     -2.7751   -0.5247   -3.4057   H         1 RES1   0.0000
   189 H110     -1.9574    0.4970   -5.5088   H         1 RES1   0.0000
   190 H111     -0.7994   -0.6390   -4.8089   H         1 RES1   0.0000
   191 H112     -2.6942   -1.2863   -7.1256   H         1 RES1   0.0000
   192 H113     -1.0169   -0.8000   -7.3126   H         1 RES1   0.0000
   193 H114     -1.3894   -2.3219   -6.5375   H         1 RES1   0.0000
   194 H115      1.4488   -5.7684   -1.5033   H         1 RES1   0.0000
   195 H116      1.4625   -5.2312   -3.1965   H         1 RES1   0.0000
   196 H117      2.9602   -5.5694   -2.3593   H         1 RES1   0.0000
   197 H118      3.7248   -2.9159   -0.8383   H         1 RES1   0.0000
   198 H119      4.1082   -3.8909   -2.2580   H         1 RES1   0.0000
   199 H120      2.7447   -1.1619   -2.2872   H         1 RES1   0.0000
   200 H121      4.4378   -1.5197   -2.6457   H         1 RES1   0.0000
   201 H122      3.4757   -1.3369   -4.7693   H         1 RES1   0.0000
   202 H123      3.4932   -3.0774   -4.5356   H         1 RES1   0.0000
   203 H124      1.0740   -1.3277   -3.8800   H         1 RES1   0.0000
   204 H125      1.3573   -2.0014   -5.4915   H         1 RES1   0.0000
   205 H126      1.0687   -3.0708   -4.1262   H         1 RES1   0.0000
@<TRIPOS>BOND
     1     1     8    1
     2     1    13    1
     3     1    21    1
     4     1    76    1
     5     1    81    1
     6     1    89    1
     7     1   144    1
     8     1   149    1
     9     1   157    1
    10     2     3    1
    11     2    28    1
    12     2    29    1
    13     2    30    1
    14     3     4    1
    15     3    31    1
    16     3    32    1
    17     4     5    1
    18     4    33    1
    19     4    34    1
    20     5     6    1
    21     5    35    1
    22     5    36    1
    23     6     7    1
    24     6    37    1
    25     6    38    1
    26     7     8    1
    27     7    39    1
    28     7    40    1
    29     8     9    1
    30     9    10    1
    31     9    41    1
    32     9    42    1
    33    10    11    1
    34    10    43    1
    35    10    44    1
    36    11    12    1
    37    11    20    1
    38    11    45    1
    39    12    13    2
    40    12    14    1
    41    14    15    1
    42    14    16    1
    43    15    46    1
    44    15    47    1
    45    15    48    1
    46    16    17    1
    47    16    49    1
    48    16    50    1
    49    17    18    1
    50    17    51    1
    51    17    52    1
    52    18    19    1
    53    18    53    1
    54    18    54    1
    55    19    55    1
    56    19    56    1
    57    19    57    1
    58    20    21    2
    59    20    22    1
    60    22    23    1
    61    22    24    1
    62    23    58    1
    63    23    59    1
    64    23    60    1
    65    24    25    1
    66    24    61    1
    67    24    62    1
    68    25    26    1
    69    25    63    1
    70    25    64    1
    71    26    27    1
    72    26    65    1
    73    26    66    1
    74    27    67    1
    75    27    68    1
    76    27    69    1
    77    70    71    1
    78    70    96    1
    79    70    97    1
    80    70    98    1
    81    71    72    1
    82    71    99    1
    83    71   100    1
    84    72    73    1
    85    72   101    1
    86    72   102    1
    87    73    74    1
    88    73   103    1
    89    73   104    1
    90    74    75    1
    91    74   105    1
    92    74   106    1
    93    75    76    1
    94    75   107    1
    95    75   108    1
    96    76    77    1
    97    77    78    1
    98    77   109    1
    99    77   110    1
   100    78    79    1
   101    78   111    1
   102    78   112    1
   103    79    80    1
   104    79    88    1
   105    79   113    1
   106    80    81    2
   107    80    82    1
   108    82    83    1
   109    82    84    1
   110    83   114    1
   111    83   115    1
   112    83   116    1
   113    84    85    1
   114    84   117    1
   115    84   118    1
   116    85    86    1
   117    85   119    1
   118    85   120    1
   119    86    87    1
   120    86   121    1
   121    86   122    1
   122    87   123    1
   123    87   124    1
   124    87   125    1
   125    88    89    2
   126    88    90    1
   127    90    91    1
   128    90    92    1
   129    91   126    1
   130    91   127    1
   131    91   128    1
   132    92    93    1
   133    92   129    1
   134    92   130    1
   135    93    94    1
   136    93   131    1
   137    93   132    1
   138    94    95    1
   139    94   133    1
   140    94   134    1
   141    95   135    1
   142    95   136    1
   143    95   137    1
   144   138   139    1
   145   138   164    1
   146   138   165    1
   147   138   166    1
   148   139   140    1
   149   139   167    1
   150   139   168    1
   151   140   141    1
   152   140   169    1
   153   140   170    1
   154   141   142    1
   155   141   171    1
   156   141   172    1
   157   142   143    1
   158   142   173    1
   159   142   174    1
   160   143   144    1
   161   143   175    1
   162   143   176    1
   163   144   145    1
   164   145   146    1
   165   145   177    1
   166   145   178    1
   167   146   147    1
   168   146   179    1
   169   146   180    1
   170   147   148    1
   171   147   156    1
   172   147   181    1
   173   148   149    2
   174   148   150    1
   175   150   151    1
   176   150   152    1
   177   151   182    1
   178   151   183    1
   179   151   184    1
   180   152   153    1
   181   152   185    1
   182   152   186    1
   183   153   154    1
   184   153   187    1
   185   153   188    1
   186   154   155    1
   187   154   189    1
   188   154   190    1
   189   155   191    1
   190   155   192    1
   191   155   193    1
   192   156   157    2
   193   156   158    1
   194   158   159    1
   195   158   160    1
   196   159   194    1
   197   159   195    1
   198   159   196    1
   199   160   161    1
   200   160   197    1
   201   160   198    1
   202   161   162    1
   203   161   199    1
   204   161   200    1
   205   162   163    1
   206   162   201    1
   207   162   202    1
   208   163   203    1
   209   163   204    1
   210   163   205    1
@<TRIPOS>SUBSTRUCTURE
     1 RES1      205 GROUP             0 ****  ****    0  
