@<TRIPOS>MOLECULE
am_c3_9H2O_c0_0_nunpairedes_0_charge_3 Charge: 3 Unpaired_Electrons: 0 XTB_Unpaired_Electrons: 0 XTB_Charge: 3
   344   347     1     0     0
SMALL
NoCharges
****
Generated from Architector

@<TRIPOS>ATOM
     1 La1       0.2420    0.1142   -0.0449   La        1 RES1   0.0000
     2 C1       -4.9209    2.5903   -3.6694   C.3       1 RES1   0.0000
     3 C2       -4.7854    2.0496   -5.0886   C.3       1 RES1   0.0000
     4 C3       -5.2676    0.6062   -5.2431   C.3       1 RES1   0.0000
     5 C4       -4.3297   -0.3986   -4.5755   C.3       1 RES1   0.0000
     6 C5       -4.8494   -1.8377   -4.6514   C.3       1 RES1   0.0000
     7 C6       -5.8359   -2.2244   -3.5489   C.3       1 RES1   0.0000
     8 C7       -5.1958   -2.6822   -2.2288   C.3       1 RES1   0.0000
     9 C8       -4.5393   -1.5417   -1.4456   C.3       1 RES1   0.0000
    10 N1       -4.2886   -1.7895   -0.0194   N.am      1 RES1   0.0000
    11 C9       -5.4200   -2.3936    0.6569   C.3       1 RES1   0.0000
    12 C10      -3.1745   -1.3166    0.5654   C.2       1 RES1   0.0000
    13 O1       -2.1689   -1.0102   -0.1033   O.2       1 RES1   0.0000
    14 C11      -3.2575   -1.1069    2.0850   C.3       1 RES1   0.0000
    15 C12      -4.2618    0.0471    2.3632   C.3       1 RES1   0.0000
    16 C13      -3.8260    1.3900    1.7819   C.3       1 RES1   0.0000
    17 C14      -4.2791    1.6678    0.3510   C.3       1 RES1   0.0000
    18 C15      -5.7989    1.8064    0.1720   C.3       1 RES1   0.0000
    19 C16      -6.2092    3.2288   -0.2190   C.3       1 RES1   0.0000
    20 C17      -7.6894    3.3354   -0.5569   C.3       1 RES1   0.0000
    21 C18      -1.9102   -0.8636    2.7721   C.2       1 RES1   0.0000
    22 O2       -0.8870   -0.5312    2.1496   O.2       1 RES1   0.0000
    23 N2       -1.8749   -1.0568    4.1031   N.am      1 RES1   0.0000
    24 C19      -2.9997   -1.4192    4.9452   C.3       1 RES1   0.0000
    25 C20      -0.5927   -0.9593    4.7937   C.3       1 RES1   0.0000
    26 C21      -0.3323    0.3333    5.5756   C.3       1 RES1   0.0000
    27 C22      -1.1279    0.5664    6.8597   C.3       1 RES1   0.0000
    28 C23      -0.4509    1.6379    7.7227   C.3       1 RES1   0.0000
    29 C24      -0.4761    3.0330    7.0943   C.3       1 RES1   0.0000
    30 C25      -0.1845    4.1560    8.0961   C.3       1 RES1   0.0000
    31 C26       1.2227    4.1559    8.7001   C.3       1 RES1   0.0000
    32 C27       2.3131    4.5921    7.7288   C.3       1 RES1   0.0000
    33 H1       -4.7252    3.6596   -3.6621   H         1 RES1   0.0000
    34 H2       -4.2213    2.1041   -2.9914   H         1 RES1   0.0000
    35 H3       -5.9309    2.4294   -3.3012   H         1 RES1   0.0000
    36 H4       -3.7427    2.1192   -5.4083   H         1 RES1   0.0000
    37 H5       -5.3667    2.6786   -5.7616   H         1 RES1   0.0000
    38 H6       -5.3322    0.3729   -6.3071   H         1 RES1   0.0000
    39 H7       -6.2714    0.5127   -4.8233   H         1 RES1   0.0000
    40 H8       -4.1928   -0.1011   -3.5389   H         1 RES1   0.0000
    41 H9       -3.3563   -0.3440   -5.0718   H         1 RES1   0.0000
    42 H10      -4.0170   -2.5408   -4.6263   H         1 RES1   0.0000
    43 H11      -5.3385   -1.9714   -5.6158   H         1 RES1   0.0000
    44 H12      -6.4422   -3.0584   -3.9112   H         1 RES1   0.0000
    45 H13      -6.5118   -1.3904   -3.3521   H         1 RES1   0.0000
    46 H14      -4.4671   -3.4704   -2.4213   H         1 RES1   0.0000
    47 H15      -6.0069   -3.1113   -1.6440   H         1 RES1   0.0000
    48 H16      -5.2181   -0.6801   -1.4961   H         1 RES1   0.0000
    49 H17      -3.5882   -1.2650   -1.8960   H         1 RES1   0.0000
    50 H18      -6.3315   -1.8408    0.4230   H         1 RES1   0.0000
    51 H19      -5.3051   -2.4335    1.7310   H         1 RES1   0.0000
    52 H20      -5.5310   -3.4207    0.3062   H         1 RES1   0.0000
    53 H21      -3.6349   -2.0248    2.5403   H         1 RES1   0.0000
    54 H22      -4.3835    0.1578    3.4396   H         1 RES1   0.0000
    55 H23      -5.2399   -0.2180    1.9664   H         1 RES1   0.0000
    56 H24      -2.7394    1.4316    1.8103   H         1 RES1   0.0000
    57 H25      -4.2215    2.1851    2.4120   H         1 RES1   0.0000
    58 H26      -3.8848    0.9028   -0.3140   H         1 RES1   0.0000
    59 H27      -3.8240    2.6119    0.0562   H         1 RES1   0.0000
    60 H28      -6.3259    1.5330    1.0873   H         1 RES1   0.0000
    61 H29      -6.1567    1.1338   -0.6104   H         1 RES1   0.0000
    62 H30      -5.6322    3.5410   -1.0918   H         1 RES1   0.0000
    63 H31      -5.9776    3.9158    0.5981   H         1 RES1   0.0000
    64 H32      -7.9402    2.6488   -1.3599   H         1 RES1   0.0000
    65 H33      -7.9360    4.3417   -0.8828   H         1 RES1   0.0000
    66 H34      -8.3051    3.0971    0.3047   H         1 RES1   0.0000
    67 H35      -2.6230   -1.8635    5.8639   H         1 RES1   0.0000
    68 H36      -3.6610   -2.1484    4.4800   H         1 RES1   0.0000
    69 H37      -3.5930   -0.5456    5.2167   H         1 RES1   0.0000
    70 H38       0.1745   -1.0587    4.0206   H         1 RES1   0.0000
    71 H39      -0.5115   -1.8076    5.4780   H         1 RES1   0.0000
    72 H40      -0.4327    1.1851    4.9071   H         1 RES1   0.0000
    73 H41       0.7123    0.2752    5.8764   H         1 RES1   0.0000
    74 H42      -1.1671   -0.3612    7.4347   H         1 RES1   0.0000
    75 H43      -2.1500    0.8826    6.6491   H         1 RES1   0.0000
    76 H44       0.5807    1.3387    7.9121   H         1 RES1   0.0000
    77 H45      -0.9593    1.6794    8.6854   H         1 RES1   0.0000
    78 H46      -1.4749    3.2096    6.6851   H         1 RES1   0.0000
    79 H47       0.2337    3.0808    6.2661   H         1 RES1   0.0000
    80 H48      -0.9112    4.0808    8.9086   H         1 RES1   0.0000
    81 H49      -0.3526    5.1155    7.5974   H         1 RES1   0.0000
    82 H50       1.4573    3.1661    9.0963   H         1 RES1   0.0000
    83 H51       1.2190    4.8523    9.5391   H         1 RES1   0.0000
    84 H52       2.3754    3.9190    6.8777   H         1 RES1   0.0000
    85 H53       3.2762    4.5955    8.2316   H         1 RES1   0.0000
    86 H54       2.1236    5.5999    7.3667   H         1 RES1   0.0000
    87 C28      10.3749    0.8441   -0.6212   C.3       1 RES1   0.0000
    88 C29      10.0755    2.2637   -0.1451   C.3       1 RES1   0.0000
    89 C30       8.5873    2.5706    0.0493   C.3       1 RES1   0.0000
    90 C31       7.8397    2.7883   -1.2675   C.3       1 RES1   0.0000
    91 C32       6.3427    3.0184   -1.0532   C.3       1 RES1   0.0000
    92 C33       5.4987    3.0376   -2.3373   C.3       1 RES1   0.0000
    93 C34       5.1626    1.6268   -2.8517   C.3       1 RES1   0.0000
    94 C35       3.7189    1.4614   -3.3515   C.3       1 RES1   0.0000
    95 N3        3.3565    0.0663   -3.6086   N.am      1 RES1   0.0000
    96 C36       3.7610   -0.4444   -4.8991   C.3       1 RES1   0.0000
    97 C37       2.6291   -0.5822   -2.7000   C.2       1 RES1   0.0000
    98 O3        2.3211   -0.0116   -1.6306   O.2       1 RES1   0.0000
    99 C38       2.1452   -2.0459   -2.8587   C.3       1 RES1   0.0000
   100 C39       3.0313   -3.0931   -3.5569   C.3       1 RES1   0.0000
   101 C40       4.3709   -3.1181   -2.7942   C.3       1 RES1   0.0000
   102 C41       5.3769   -4.2616   -3.0425   C.3       1 RES1   0.0000
   103 C42       6.3693   -4.4217   -1.8722   C.3       1 RES1   0.0000
   104 C43       6.9532   -5.8176   -1.6646   C.3       1 RES1   0.0000
   105 C44       7.6878   -5.8643   -0.3292   C.3       1 RES1   0.0000
   106 C45       0.6205   -1.9937   -2.9851   C.2       1 RES1   0.0000
   107 O4        0.0619   -1.1015   -2.2964   O.2       1 RES1   0.0000
   108 N4       -0.1880   -2.8850   -3.5639   N.am      1 RES1   0.0000
   109 C46      -1.5871   -2.6441   -3.2404   C.3       1 RES1   0.0000
   110 C47       0.0844   -3.8172   -4.6544   C.3       1 RES1   0.0000
   111 C48      -0.8522   -5.0279   -4.8123   C.3       1 RES1   0.0000
   112 C49      -0.9013   -6.1083   -3.7230   C.3       1 RES1   0.0000
   113 C50      -1.8860   -5.9692   -2.5460   C.3       1 RES1   0.0000
   114 C51      -1.1837   -5.6117   -1.2290   C.3       1 RES1   0.0000
   115 C52      -1.9321   -6.0538    0.0328   C.3       1 RES1   0.0000
   116 C53      -3.2108   -5.2657    0.3164   C.3       1 RES1   0.0000
   117 C54      -3.7284   -5.6005    1.7125   C.3       1 RES1   0.0000
   118 H55      11.4509    0.7004   -0.6905   H         1 RES1   0.0000
   119 H56       9.9554    0.6538   -1.6045   H         1 RES1   0.0000
   120 H57       9.9784    0.0988    0.0692   H         1 RES1   0.0000
   121 H58      10.4914    2.9758   -0.8581   H         1 RES1   0.0000
   122 H59      10.5925    2.4165    0.8028   H         1 RES1   0.0000
   123 H60       8.4973    3.4742    0.6548   H         1 RES1   0.0000
   124 H61       8.1267    1.7521    0.6096   H         1 RES1   0.0000
   125 H62       7.9982    1.9267   -1.9133   H         1 RES1   0.0000
   126 H63       8.2635    3.6554   -1.7753   H         1 RES1   0.0000
   127 H64       6.2101    3.9822   -0.5583   H         1 RES1   0.0000
   128 H65       5.9455    2.2492   -0.3819   H         1 RES1   0.0000
   129 H66       6.0201    3.6094   -3.1088   H         1 RES1   0.0000
   130 H67       4.5737    3.5615   -2.1039   H         1 RES1   0.0000
   131 H68       5.3162    0.9339   -2.0277   H         1 RES1   0.0000
   132 H69       5.8494    1.3688   -3.6574   H         1 RES1   0.0000
   133 H70       3.5930    2.0110   -4.2863   H         1 RES1   0.0000
   134 H71       3.0137    1.8425   -2.6106   H         1 RES1   0.0000
   135 H72       4.2815    0.3479   -5.4268   H         1 RES1   0.0000
   136 H73       2.9008   -0.7407   -5.4954   H         1 RES1   0.0000
   137 H74       4.4408   -1.2863   -4.8095   H         1 RES1   0.0000
   138 H75       2.1570   -2.3638   -1.8027   H         1 RES1   0.0000
   139 H76       3.1554   -2.9286   -4.6273   H         1 RES1   0.0000
   140 H77       2.5612   -4.0687   -3.4184   H         1 RES1   0.0000
   141 H78       4.0919   -3.1476   -1.7366   H         1 RES1   0.0000
   142 H79       4.8778   -2.1760   -2.9794   H         1 RES1   0.0000
   143 H80       5.9246   -4.0927   -3.9723   H         1 RES1   0.0000
   144 H81       4.8475   -5.2013   -3.1420   H         1 RES1   0.0000
   145 H82       5.8613   -4.1592   -0.9403   H         1 RES1   0.0000
   146 H83       7.2175   -3.7462   -1.9751   H         1 RES1   0.0000
   147 H84       7.6396   -6.0601   -2.4743   H         1 RES1   0.0000
   148 H85       6.1572   -6.5602   -1.6716   H         1 RES1   0.0000
   149 H86       8.5069   -5.1512   -0.3305   H         1 RES1   0.0000
   150 H87       8.0765   -6.8578   -0.1415   H         1 RES1   0.0000
   151 H88       7.0165   -5.6207    0.4925   H         1 RES1   0.0000
   152 H89      -1.9175   -1.6954   -3.6697   H         1 RES1   0.0000
   153 H90      -1.6749   -2.5824   -2.1525   H         1 RES1   0.0000
   154 H91      -2.2013   -3.4493   -3.6196   H         1 RES1   0.0000
   155 H92       1.1000   -4.1861   -4.5626   H         1 RES1   0.0000
   156 H93       0.0173   -3.2535   -5.5947   H         1 RES1   0.0000
   157 H94      -0.4675   -5.5231   -5.7057   H         1 RES1   0.0000
   158 H95      -1.8622   -4.7150   -5.0722   H         1 RES1   0.0000
   159 H96       0.0948   -6.2417   -3.3123   H         1 RES1   0.0000
   160 H97      -1.1565   -7.0301   -4.2459   H         1 RES1   0.0000
   161 H98      -2.3728   -6.9365   -2.4082   H         1 RES1   0.0000
   162 H99      -2.6818   -5.2569   -2.7677   H         1 RES1   0.0000
   163 H100     -0.9844   -4.5369   -1.1720   H         1 RES1   0.0000
   164 H101     -0.2187   -6.1242   -1.2146   H         1 RES1   0.0000
   165 H102     -1.2579   -5.9316    0.8885   H         1 RES1   0.0000
   166 H103     -2.1692   -7.1186   -0.0433   H         1 RES1   0.0000
   167 H104     -3.9690   -5.5121   -0.4313   H         1 RES1   0.0000
   168 H105     -2.9904   -4.1947    0.2418   H         1 RES1   0.0000
   169 H106     -3.8411   -6.6775    1.8112   H         1 RES1   0.0000
   170 H107     -4.6931   -5.1385    1.9082   H         1 RES1   0.0000
   171 H108     -3.0203   -5.2633    2.4690   H         1 RES1   0.0000
   172 C55       5.0916   -7.6369   -6.9085   C.3       1 RES1   0.0000
   173 C56       3.7781   -7.3364   -6.1886   C.3       1 RES1   0.0000
   174 C57       4.0679   -6.6940   -4.8184   C.3       1 RES1   0.0000
   175 C58       3.7095   -7.4819   -3.5390   C.3       1 RES1   0.0000
   176 C59       2.4779   -6.9688   -2.7652   C.3       1 RES1   0.0000
   177 C60       2.5981   -7.0517   -1.2328   C.3       1 RES1   0.0000
   178 C61       3.3991   -5.8896   -0.5997   C.3       1 RES1   0.0000
   179 C62       2.5198   -4.8589    0.1400   C.3       1 RES1   0.0000
   180 N5        3.3059   -3.7847    0.7696   N.am      1 RES1   0.0000
   181 C63       4.2521   -4.2637    1.7533   C.3       1 RES1   0.0000
   182 C64       2.9432   -2.5026    0.6364   C.2       1 RES1   0.0000
   183 O5        1.8366   -2.2048    0.1425   O.2       1 RES1   0.0000
   184 C65       3.8645   -1.2856    0.9329   C.3       1 RES1   0.0000
   185 C66       5.4132   -1.3078    0.8740   C.3       1 RES1   0.0000
   186 C67       5.8094   -1.2962   -0.6051   C.3       1 RES1   0.0000
   187 C68       7.2034   -0.8841   -1.1017   C.3       1 RES1   0.0000
   188 C69       7.1786   -1.1299   -2.6178   C.3       1 RES1   0.0000
   189 C70       8.3068   -0.6611   -3.5323   C.3       1 RES1   0.0000
   190 C71       7.8592   -0.9354   -4.9728   C.3       1 RES1   0.0000
   191 C72       3.1412   -0.4756    2.0157   C.2       1 RES1   0.0000
   192 O6        2.0408    0.0225    1.6775   O.2       1 RES1   0.0000
   193 N6        3.6026   -0.2671    3.2462   N.am      1 RES1   0.0000
   194 C73       2.7280    0.3998    4.1934   C.3       1 RES1   0.0000
   195 C74       4.8746   -0.6221    3.8482   C.3       1 RES1   0.0000
   196 C75       5.7470    0.6019    4.2088   C.3       1 RES1   0.0000
   197 C76       5.7964    1.7187    3.1531   C.3       1 RES1   0.0000
   198 C77       4.9612    2.9736    3.4744   C.3       1 RES1   0.0000
   199 C78       3.9265    3.2683    2.3825   C.3       1 RES1   0.0000
   200 C79       3.1456    4.5673    2.6088   C.3       1 RES1   0.0000
   201 C80       2.4570    4.6357    3.9697   C.3       1 RES1   0.0000
   202 C81       1.5356    5.8443    4.0635   C.3       1 RES1   0.0000
   203 H109      4.9257   -8.0746   -7.8876   H         1 RES1   0.0000
   204 H110      5.6928   -8.3275   -6.3245   H         1 RES1   0.0000
   205 H111      5.6626   -6.7202   -7.0464   H         1 RES1   0.0000
   206 H112      3.1937   -8.2506   -6.0848   H         1 RES1   0.0000
   207 H113      3.1976   -6.6508   -6.8151   H         1 RES1   0.0000
   208 H114      3.5735   -5.7238   -4.8028   H         1 RES1   0.0000
   209 H115      5.1428   -6.5101   -4.8002   H         1 RES1   0.0000
   210 H116      4.5686   -7.4548   -2.8673   H         1 RES1   0.0000
   211 H117      3.5628   -8.5323   -3.7850   H         1 RES1   0.0000
   212 H118      1.6054   -7.5433   -3.0761   H         1 RES1   0.0000
   213 H119      2.2859   -5.9224   -3.0118   H         1 RES1   0.0000
   214 H120      3.0644   -8.0012   -0.9710   H         1 RES1   0.0000
   215 H121      1.6012   -7.0591   -0.7894   H         1 RES1   0.0000
   216 H122      3.9572   -5.3865   -1.3850   H         1 RES1   0.0000
   217 H123      4.1136   -6.3067    0.1096   H         1 RES1   0.0000
   218 H124      1.9442   -5.3715    0.9167   H         1 RES1   0.0000
   219 H125      1.8143   -4.3969   -0.5504   H         1 RES1   0.0000
   220 H126      4.6220   -3.4557    2.3730   H         1 RES1   0.0000
   221 H127      5.0944   -4.7606    1.2680   H         1 RES1   0.0000
   222 H128      3.7391   -4.9784    2.4044   H         1 RES1   0.0000
   223 H129      3.5965   -0.6663    0.0565   H         1 RES1   0.0000
   224 H130      5.8864   -2.1570    1.3626   H         1 RES1   0.0000
   225 H131      5.7794   -0.4020    1.3489   H         1 RES1   0.0000
   226 H132      5.0962   -0.6531   -1.1243   H         1 RES1   0.0000
   227 H133      5.6555   -2.2996   -0.9660   H         1 RES1   0.0000
   228 H134      7.9846   -1.4770   -0.6279   H         1 RES1   0.0000
   229 H135      7.4069    0.1643   -0.8990   H         1 RES1   0.0000
   230 H136      6.2757   -0.6697   -3.0099   H         1 RES1   0.0000
   231 H137      7.0853   -2.1968   -2.7832   H         1 RES1   0.0000
   232 H138      9.2246   -1.2057   -3.3152   H         1 RES1   0.0000
   233 H139      8.5113    0.4060   -3.4135   H         1 RES1   0.0000
   234 H140      7.5441   -1.9747   -5.0799   H         1 RES1   0.0000
   235 H141      8.6450   -0.7274   -5.6930   H         1 RES1   0.0000
   236 H142      7.0151   -0.2905   -5.2168   H         1 RES1   0.0000
   237 H143      2.5173   -0.3006    5.0029   H         1 RES1   0.0000
   238 H144      1.8050    0.6809    3.6930   H         1 RES1   0.0000
   239 H145      3.2130    1.2824    4.6049   H         1 RES1   0.0000
   240 H146      5.4273   -1.2901    3.2012   H         1 RES1   0.0000
   241 H147      4.6656   -1.1692    4.7730   H         1 RES1   0.0000
   242 H148      6.7544    0.2187    4.3651   H         1 RES1   0.0000
   243 H149      5.4288    1.0177    5.1648   H         1 RES1   0.0000
   244 H150      5.4562    1.3289    2.1939   H         1 RES1   0.0000
   245 H151      6.8337    2.0182    3.0157   H         1 RES1   0.0000
   246 H152      5.6193    3.8384    3.5756   H         1 RES1   0.0000
   247 H153      4.4578    2.8593    4.4356   H         1 RES1   0.0000
   248 H154      3.2127    2.4387    2.3073   H         1 RES1   0.0000
   249 H155      4.4528    3.3400    1.4242   H         1 RES1   0.0000
   250 H156      2.3786    4.6294    1.8316   H         1 RES1   0.0000
   251 H157      3.8123    5.4254    2.4940   H         1 RES1   0.0000
   252 H158      3.2056    4.7010    4.7584   H         1 RES1   0.0000
   253 H159      1.8893    3.7124    4.1214   H         1 RES1   0.0000
   254 H160      2.1172    6.7608    4.0154   H         1 RES1   0.0000
   255 H161      0.9881    5.8316    5.0013   H         1 RES1   0.0000
   256 H162      0.8239    5.8490    3.2398   H         1 RES1   0.0000
   257 C82       1.5301    8.5898   -6.8990   C.3       1 RES1   0.0000
   258 C83       0.5744    8.4393   -5.7216   C.3       1 RES1   0.0000
   259 C84       1.0395    7.3900   -4.7119   C.3       1 RES1   0.0000
   260 C85       1.0628    5.9830   -5.2995   C.3       1 RES1   0.0000
   261 C86       1.4477    4.8930   -4.3020   C.3       1 RES1   0.0000
   262 C87       2.8154    5.1379   -3.6602   C.3       1 RES1   0.0000
   263 C88       2.7384    5.6299   -2.2117   C.3       1 RES1   0.0000
   264 C89       2.3180    4.5339   -1.2094   C.3       1 RES1   0.0000
   265 N7        0.9683    4.6782   -0.6639   N.am      1 RES1   0.0000
   266 C90       0.6772    5.9228    0.0176   C.3       1 RES1   0.0000
   267 C91       0.1448    3.6367   -0.7219   C.2       1 RES1   0.0000
   268 O7        0.5563    2.5122   -1.0872   O.2       1 RES1   0.0000
   269 C92      -1.3308    3.7431   -0.2885   C.3       1 RES1   0.0000
   270 C93      -2.1300    4.9834   -0.7012   C.3       1 RES1   0.0000
   271 C94      -1.9644    5.3597   -2.1756   C.3       1 RES1   0.0000
   272 C95      -2.9094    6.5091   -2.5373   C.3       1 RES1   0.0000
   273 C96      -2.8259    6.9585   -3.9982   C.3       1 RES1   0.0000
   274 C97      -3.2699    5.8944   -5.0058   C.3       1 RES1   0.0000
   275 C98      -3.0560    6.3417   -6.4510   C.3       1 RES1   0.0000
   276 C99      -1.2336    3.2752    1.1692   C.2       1 RES1   0.0000
   277 O8       -0.6150    2.1990    1.3427   O.2       1 RES1   0.0000
   278 N8       -1.6518    3.9656    2.2346   N.am      1 RES1   0.0000
   279 C100     -1.1169    3.5197    3.5119   C.3       1 RES1   0.0000
   280 C101     -2.6924    4.9907    2.3570   C.3       1 RES1   0.0000
   281 C102     -3.6063    4.7198    3.5709   C.3       1 RES1   0.0000
   282 C103     -5.0883    5.0215    3.3176   C.3       1 RES1   0.0000
   283 C104     -5.9737    4.1291    4.1976   C.3       1 RES1   0.0000
   284 C105     -7.4365    4.1104    3.7574   C.3       1 RES1   0.0000
   285 C106     -8.2684    3.0140    4.4305   C.3       1 RES1   0.0000
   286 C107     -7.8666    1.5851    4.0337   C.3       1 RES1   0.0000
   287 C108     -6.9912    0.8771    5.0605   C.3       1 RES1   0.0000
   288 H163      1.2151    9.4136   -7.5332   H         1 RES1   0.0000
   289 H164      1.5532    7.6928   -7.5129   H         1 RES1   0.0000
   290 H165      2.5397    8.7905   -6.5471   H         1 RES1   0.0000
   291 H166     -0.4172    8.1792   -6.0951   H         1 RES1   0.0000
   292 H167      0.4874    9.4014   -5.2121   H         1 RES1   0.0000
   293 H168      0.3718    7.4070   -3.8470   H         1 RES1   0.0000
   294 H169      2.0348    7.6707   -4.3671   H         1 RES1   0.0000
   295 H170      1.7721    5.9530   -6.1242   H         1 RES1   0.0000
   296 H171      0.0806    5.7508   -5.7102   H         1 RES1   0.0000
   297 H172      1.4633    3.9409   -4.8348   H         1 RES1   0.0000
   298 H173      0.6973    4.8085   -3.5154   H         1 RES1   0.0000
   299 H174      3.3593    5.8802   -4.2408   H         1 RES1   0.0000
   300 H175      3.4152    4.2313   -3.6885   H         1 RES1   0.0000
   301 H176      2.0477    6.4695   -2.1516   H         1 RES1   0.0000
   302 H177      3.7276    5.9938   -1.9225   H         1 RES1   0.0000
   303 H178      3.0136    4.5120   -0.3647   H         1 RES1   0.0000
   304 H179      2.3302    3.5552   -1.6904   H         1 RES1   0.0000
   305 H180      1.6161    6.3941    0.3047   H         1 RES1   0.0000
   306 H181      0.1001    5.7402    0.9231   H         1 RES1   0.0000
   307 H182      0.1305    6.6158   -0.6208   H         1 RES1   0.0000
   308 H183     -1.7842    2.8860   -0.8009   H         1 RES1   0.0000
   309 H184     -1.8935    5.8433   -0.0832   H         1 RES1   0.0000
   310 H185     -3.1909    4.7583   -0.5704   H         1 RES1   0.0000
   311 H186     -2.1860    4.4846   -2.7863   H         1 RES1   0.0000
   312 H187     -0.9404    5.6674   -2.3840   H         1 RES1   0.0000
   313 H188     -2.6714    7.3674   -1.9056   H         1 RES1   0.0000
   314 H189     -3.9364    6.2183   -2.3097   H         1 RES1   0.0000
   315 H190     -1.8057    7.2696   -4.2266   H         1 RES1   0.0000
   316 H191     -3.4648    7.8362   -4.1183   H         1 RES1   0.0000
   317 H192     -4.3321    5.6781   -4.8550   H         1 RES1   0.0000
   318 H193     -2.7082    4.9674   -4.8518   H         1 RES1   0.0000
   319 H194     -3.6051    7.2566   -6.6609   H         1 RES1   0.0000
   320 H195     -3.3993    5.5721   -7.1413   H         1 RES1   0.0000
   321 H196     -2.0007    6.5269   -6.6500   H         1 RES1   0.0000
   322 H197     -1.7021    2.7051    3.9394   H         1 RES1   0.0000
   323 H198     -1.1200    4.3633    4.1963   H         1 RES1   0.0000
   324 H199     -0.1023    3.1614    3.3560   H         1 RES1   0.0000
   325 H200     -3.3173    4.9829    1.4704   H         1 RES1   0.0000
   326 H201     -2.2189    5.9740    2.4401   H         1 RES1   0.0000
   327 H202     -3.2695    5.2666    4.4512   H         1 RES1   0.0000
   328 H203     -3.5466    3.6559    3.7951   H         1 RES1   0.0000
   329 H204     -5.3096    4.8052    2.2691   H         1 RES1   0.0000
   330 H205     -5.3039    6.0739    3.4993   H         1 RES1   0.0000
   331 H206     -5.8981    4.4417    5.2418   H         1 RES1   0.0000
   332 H207     -5.5897    3.1080    4.1229   H         1 RES1   0.0000
   333 H208     -7.4715    3.9587    2.6767   H         1 RES1   0.0000
   334 H209     -7.9002    5.0760    3.9606   H         1 RES1   0.0000
   335 H210     -9.3052    3.1792    4.1388   H         1 RES1   0.0000
   336 H211     -8.2296    3.1266    5.5146   H         1 RES1   0.0000
   337 H212     -8.7646    0.9842    3.8879   H         1 RES1   0.0000
   338 H213     -7.3454    1.6111    3.0739   H         1 RES1   0.0000
   339 H214     -6.0562    1.4055    5.2201   H         1 RES1   0.0000
   340 H215     -7.4958    0.8112    6.0178   H         1 RES1   0.0000
   341 H216     -6.7685   -0.1364    4.7343   H         1 RES1   0.0000
   342 O9       -1.5480    1.0046   -1.9402   O.3       1 RES1   0.0000
   343 H217     -1.1618    1.6632   -2.5398   H         1 RES1   0.0000
   344 H218     -1.4940    0.1612   -2.4145   H         1 RES1   0.0000
@<TRIPOS>BOND
     1     1    13    1
     2     1    22    1
     3     1    98    1
     4     1   107    1
     5     1   183    1
     6     1   192    1
     7     1   268    1
     8     1   277    1
     9     1   342    1
    10     2     3    1
    11     2    33    1
    12     2    34    1
    13     2    35    1
    14     3     4    1
    15     3    36    1
    16     3    37    1
    17     4     5    1
    18     4    38    1
    19     4    39    1
    20     5     6    1
    21     5    40    1
    22     5    41    1
    23     6     7    1
    24     6    42    1
    25     6    43    1
    26     7     8    1
    27     7    44    1
    28     7    45    1
    29     8     9    1
    30     8    46    1
    31     8    47    1
    32     9    10    1
    33     9    48    1
    34     9    49    1
    35    10    11    1
    36    10    12    1
    37    11    50    1
    38    11    51    1
    39    11    52    1
    40    12    13    2
    41    12    14    1
    42    14    15    1
    43    14    21    1
    44    14    53    1
    45    15    16    1
    46    15    54    1
    47    15    55    1
    48    16    17    1
    49    16    56    1
    50    16    57    1
    51    17    18    1
    52    17    58    1
    53    17    59    1
    54    18    19    1
    55    18    60    1
    56    18    61    1
    57    19    20    1
    58    19    62    1
    59    19    63    1
    60    20    64    1
    61    20    65    1
    62    20    66    1
    63    21    22    2
    64    21    23    1
    65    23    24    1
    66    23    25    1
    67    24    67    1
    68    24    68    1
    69    24    69    1
    70    25    26    1
    71    25    70    1
    72    25    71    1
    73    26    27    1
    74    26    72    1
    75    26    73    1
    76    27    28    1
    77    27    74    1
    78    27    75    1
    79    28    29    1
    80    28    76    1
    81    28    77    1
    82    29    30    1
    83    29    78    1
    84    29    79    1
    85    30    31    1
    86    30    80    1
    87    30    81    1
    88    31    32    1
    89    31    82    1
    90    31    83    1
    91    32    84    1
    92    32    85    1
    93    32    86    1
    94    87    88    1
    95    87   118    1
    96    87   119    1
    97    87   120    1
    98    88    89    1
    99    88   121    1
   100    88   122    1
   101    89    90    1
   102    89   123    1
   103    89   124    1
   104    90    91    1
   105    90   125    1
   106    90   126    1
   107    91    92    1
   108    91   127    1
   109    91   128    1
   110    92    93    1
   111    92   129    1
   112    92   130    1
   113    93    94    1
   114    93   131    1
   115    93   132    1
   116    94    95    1
   117    94   133    1
   118    94   134    1
   119    95    96    1
   120    95    97    1
   121    96   135    1
   122    96   136    1
   123    96   137    1
   124    97    98    2
   125    97    99    1
   126    99   100    1
   127    99   106    1
   128    99   138    1
   129   100   101    1
   130   100   139    1
   131   100   140    1
   132   101   102    1
   133   101   141    1
   134   101   142    1
   135   102   103    1
   136   102   143    1
   137   102   144    1
   138   103   104    1
   139   103   145    1
   140   103   146    1
   141   104   105    1
   142   104   147    1
   143   104   148    1
   144   105   149    1
   145   105   150    1
   146   105   151    1
   147   106   107    2
   148   106   108    1
   149   108   109    1
   150   108   110    1
   151   109   152    1
   152   109   153    1
   153   109   154    1
   154   110   111    1
   155   110   155    1
   156   110   156    1
   157   111   112    1
   158   111   157    1
   159   111   158    1
   160   112   113    1
   161   112   159    1
   162   112   160    1
   163   113   114    1
   164   113   161    1
   165   113   162    1
   166   114   115    1
   167   114   163    1
   168   114   164    1
   169   115   116    1
   170   115   165    1
   171   115   166    1
   172   116   117    1
   173   116   167    1
   174   116   168    1
   175   117   169    1
   176   117   170    1
   177   117   171    1
   178   172   173    1
   179   172   203    1
   180   172   204    1
   181   172   205    1
   182   173   174    1
   183   173   206    1
   184   173   207    1
   185   174   175    1
   186   174   208    1
   187   174   209    1
   188   175   176    1
   189   175   210    1
   190   175   211    1
   191   176   177    1
   192   176   212    1
   193   176   213    1
   194   177   178    1
   195   177   214    1
   196   177   215    1
   197   178   179    1
   198   178   216    1
   199   178   217    1
   200   179   180    1
   201   179   218    1
   202   179   219    1
   203   180   181    1
   204   180   182    1
   205   181   220    1
   206   181   221    1
   207   181   222    1
   208   182   183    2
   209   182   184    1
   210   184   185    1
   211   184   191    1
   212   184   223    1
   213   185   186    1
   214   185   224    1
   215   185   225    1
   216   186   187    1
   217   186   226    1
   218   186   227    1
   219   187   188    1
   220   187   228    1
   221   187   229    1
   222   188   189    1
   223   188   230    1
   224   188   231    1
   225   189   190    1
   226   189   232    1
   227   189   233    1
   228   190   234    1
   229   190   235    1
   230   190   236    1
   231   191   192    2
   232   191   193    1
   233   193   194    1
   234   193   195    1
   235   194   237    1
   236   194   238    1
   237   194   239    1
   238   195   196    1
   239   195   240    1
   240   195   241    1
   241   196   197    1
   242   196   242    1
   243   196   243    1
   244   197   198    1
   245   197   244    1
   246   197   245    1
   247   198   199    1
   248   198   246    1
   249   198   247    1
   250   199   200    1
   251   199   248    1
   252   199   249    1
   253   200   201    1
   254   200   250    1
   255   200   251    1
   256   201   202    1
   257   201   252    1
   258   201   253    1
   259   202   254    1
   260   202   255    1
   261   202   256    1
   262   257   258    1
   263   257   288    1
   264   257   289    1
   265   257   290    1
   266   258   259    1
   267   258   291    1
   268   258   292    1
   269   259   260    1
   270   259   293    1
   271   259   294    1
   272   260   261    1
   273   260   295    1
   274   260   296    1
   275   261   262    1
   276   261   297    1
   277   261   298    1
   278   262   263    1
   279   262   299    1
   280   262   300    1
   281   263   264    1
   282   263   301    1
   283   263   302    1
   284   264   265    1
   285   264   303    1
   286   264   304    1
   287   265   266    1
   288   265   267    1
   289   266   305    1
   290   266   306    1
   291   266   307    1
   292   267   268    2
   293   267   269    1
   294   269   270    1
   295   269   276    1
   296   269   308    1
   297   270   271    1
   298   270   309    1
   299   270   310    1
   300   271   272    1
   301   271   311    1
   302   271   312    1
   303   272   273    1
   304   272   313    1
   305   272   314    1
   306   273   274    1
   307   273   315    1
   308   273   316    1
   309   274   275    1
   310   274   317    1
   311   274   318    1
   312   275   319    1
   313   275   320    1
   314   275   321    1
   315   276   277    2
   316   276   278    1
   317   278   279    1
   318   278   280    1
   319   279   322    1
   320   279   323    1
   321   279   324    1
   322   280   281    1
   323   280   325    1
   324   280   326    1
   325   281   282    1
   326   281   327    1
   327   281   328    1
   328   282   283    1
   329   282   329    1
   330   282   330    1
   331   283   284    1
   332   283   331    1
   333   283   332    1
   334   284   285    1
   335   284   333    1
   336   284   334    1
   337   285   286    1
   338   285   335    1
   339   285   336    1
   340   286   287    1
   341   286   337    1
   342   286   338    1
   343   287   339    1
   344   287   340    1
   345   287   341    1
   346   342   343    1
   347   342   344    1
@<TRIPOS>SUBSTRUCTURE
     1 RES1      344 GROUP             0 ****  ****    0  
