@<TRIPOS>MOLECULE
tri_tri_mer_capped_0_nunpairedes_0_charge_3 Charge: 3 Unpaired_Electrons: 0 XTB_Unpaired_Electrons: 0 XTB_Charge: 3
   352   363     1     0     0
SMALL
NoCharges
****
Generated from Architector

@<TRIPOS>ATOM
     1 La1       0.0432    0.2760   -0.1090   La        1 RES1   0.0000
     2 C1       -6.3401   -3.8770    5.6952   C.3       1 RES1   0.0000
     3 C2       -6.7584   -2.4138    5.7242   C.3       1 RES1   0.0000
     4 C3       -7.6069   -2.0352    4.5098   C.3       1 RES1   0.0000
     5 C4       -7.6476   -0.5253    4.2861   C.3       1 RES1   0.0000
     6 C5       -8.2326   -0.1202    2.9300   C.3       1 RES1   0.0000
     7 C6       -7.8106    1.3007    2.5580   C.3       1 RES1   0.0000
     8 C7       -8.2116    1.7071    1.1387   C.3       1 RES1   0.0000
     9 C8       -7.3315    2.8708    0.6701   C.3       1 RES1   0.0000
    10 C9       -7.4400    3.3138   -0.8098   C.3       1 RES1   0.0000
    11 C10      -7.9630    4.7392   -0.9052   C.3       1 RES1   0.0000
    12 C11      -8.3117    2.4298   -1.6970   C.3       1 RES1   0.0000
    13 S1       -5.7132    3.1594   -1.5786   S.3       1 RES1   0.0000
    14 C12      -4.9391    4.8055   -1.3459   C.3       1 RES1   0.0000
    15 C13      -3.5594    4.9806   -1.9886   C.3       1 RES1   0.0000
    16 C14      -2.4872    4.0340   -1.4396   C.3       1 RES1   0.0000
    17 N1       -2.1039    3.1543   -2.5417   N.am      1 RES1   0.0000
    18 C15      -1.1147    2.3002   -2.3328   C.2       1 RES1   0.0000
    19 O1       -0.5838    2.2358   -1.2116   O.2       1 RES1   0.0000
    20 C16      -0.5663    1.4152   -3.4597   C.3       1 RES1   0.0000
    21 O2        0.3789    0.5710   -2.8227   O.3       1 RES1   0.0000
    22 C17       1.1980   -0.2233   -3.6712   C.3       1 RES1   0.0000
    23 C18       1.8132   -1.3262   -2.7912   C.2       1 RES1   0.0000
    24 O3        1.6268   -1.2960   -1.5515   O.2       1 RES1   0.0000
    25 N2        2.5374   -2.2565   -3.3940   N.am      1 RES1   0.0000
    26 C19       3.2764   -3.3079   -2.7054   C.3       1 RES1   0.0000
    27 C20       3.9158   -4.1677   -3.8110   C.3       1 RES1   0.0000
    28 C21       4.1495   -5.6149   -3.4022   C.3       1 RES1   0.0000
    29 C22       3.0838   -3.8928   -5.0966   C.3       1 RES1   0.0000
    30 C23       1.9229   -4.7777   -5.6672   C.3       1 RES1   0.0000
    31 S2        1.4231   -6.3840   -4.8647   S.3       1 RES1   0.0000
    32 C24      -0.3835   -6.9297   -5.2747   C.3       1 RES1   0.0000
    33 C25      -0.1726   -8.3754   -5.7104   C.3       1 RES1   0.0000
    34 C26      -0.9292   -6.1021   -6.4190   C.3       1 RES1   0.0000
    35 C27      -1.2612   -6.9478   -3.9847   C.3       1 RES1   0.0000
    36 C28      -2.5427   -6.0929   -3.9240   C.3       1 RES1   0.0000
    37 C29      -3.0722   -5.9526   -2.4739   C.3       1 RES1   0.0000
    38 C30      -3.6443   -4.5548   -2.1019   C.3       1 RES1   0.0000
    39 C31      -3.0241   -3.7754   -0.9096   C.3       1 RES1   0.0000
    40 C32      -3.9946   -3.0855    0.0531   C.3       1 RES1   0.0000
    41 C33      -3.2550   -2.2903    1.1355   C.3       1 RES1   0.0000
    42 C34      -4.0722   -1.9765    2.3913   C.3       1 RES1   0.0000
    43 C35       2.6689   -2.4253   -4.8319   C.3       1 RES1   0.0000
    44 C36      -2.9672    3.3389   -3.6866   C.3       1 RES1   0.0000
    45 C37      -3.4796    4.7739   -3.5209   C.3       1 RES1   0.0000
    46 C38      -4.7739    5.0433   -4.2718   C.3       1 RES1   0.0000
    47 H1       -5.7854   -4.1366    6.5914   H         1 RES1   0.0000
    48 H2       -7.2102   -4.5226    5.6383   H         1 RES1   0.0000
    49 H3       -5.7095   -4.0759    4.8315   H         1 RES1   0.0000
    50 H4       -7.3190   -2.2100    6.6342   H         1 RES1   0.0000
    51 H5       -5.8662   -1.7837    5.7465   H         1 RES1   0.0000
    52 H6       -7.1836   -2.5083    3.6229   H         1 RES1   0.0000
    53 H7       -8.6175   -2.4242    4.6258   H         1 RES1   0.0000
    54 H8       -8.2234   -0.0560    5.0814   H         1 RES1   0.0000
    55 H9       -6.6243   -0.1435    4.3563   H         1 RES1   0.0000
    56 H10      -7.8836   -0.8166    2.1608   H         1 RES1   0.0000
    57 H11      -9.3185   -0.1914    2.9584   H         1 RES1   0.0000
    58 H12      -8.2375    2.0010    3.2753   H         1 RES1   0.0000
    59 H13      -6.7207    1.3633    2.6463   H         1 RES1   0.0000
    60 H14      -8.1015    0.8500    0.4792   H         1 RES1   0.0000
    61 H15      -9.2615    1.9948    1.1190   H         1 RES1   0.0000
    62 H16      -7.5651    3.7250    1.3091   H         1 RES1   0.0000
    63 H17      -6.2869    2.6059    0.8740   H         1 RES1   0.0000
    64 H18      -8.9986    4.7376   -0.5685   H         1 RES1   0.0000
    65 H19      -7.4122    5.4266   -0.2674   H         1 RES1   0.0000
    66 H20      -7.9478    5.1059   -1.9308   H         1 RES1   0.0000
    67 H21      -9.3228    2.3812   -1.3041   H         1 RES1   0.0000
    68 H22      -8.3536    2.8553   -2.6975   H         1 RES1   0.0000
    69 H23      -7.9277    1.4176   -1.7865   H         1 RES1   0.0000
    70 H24      -5.6182    5.5428   -1.7725   H         1 RES1   0.0000
    71 H25      -4.8541    4.9736   -0.2688   H         1 RES1   0.0000
    72 H26      -3.2924    6.0198   -1.7713   H         1 RES1   0.0000
    73 H27      -1.5968    4.5668   -1.1005   H         1 RES1   0.0000
    74 H28      -2.8466    3.4321   -0.6041   H         1 RES1   0.0000
    75 H29      -1.3707    0.8374   -3.9369   H         1 RES1   0.0000
    76 H30      -0.0874    2.0598   -4.2115   H         1 RES1   0.0000
    77 H31       0.6105   -0.6315   -4.4990   H         1 RES1   0.0000
    78 H32       2.0292    0.3478   -4.1134   H         1 RES1   0.0000
    79 H33       4.0335   -2.8704   -2.0493   H         1 RES1   0.0000
    80 H34       2.6051   -3.8932   -2.0826   H         1 RES1   0.0000
    81 H35       4.9027   -3.7327   -4.0212   H         1 RES1   0.0000
    82 H36       3.2336   -6.1323   -3.1435   H         1 RES1   0.0000
    83 H37       4.6253   -6.1567   -4.2149   H         1 RES1   0.0000
    84 H38       4.8120   -5.6429   -2.5398   H         1 RES1   0.0000
    85 H39       3.8013   -3.8867   -5.9216   H         1 RES1   0.0000
    86 H40       1.0153   -4.1847   -5.7481   H         1 RES1   0.0000
    87 H41       2.2178   -5.0821   -6.6720   H         1 RES1   0.0000
    88 H42       0.4134   -8.4392   -6.6214   H         1 RES1   0.0000
    89 H43       0.3461   -8.9271   -4.9289   H         1 RES1   0.0000
    90 H44      -1.1362   -8.8466   -5.8913   H         1 RES1   0.0000
    91 H45      -0.2622   -6.1497   -7.2757   H         1 RES1   0.0000
    92 H46      -1.8940   -6.5007   -6.7209   H         1 RES1   0.0000
    93 H47      -1.0656   -5.0620   -6.1431   H         1 RES1   0.0000
    94 H48      -1.5535   -7.9847   -3.8051   H         1 RES1   0.0000
    95 H49      -0.6336   -6.6669   -3.1469   H         1 RES1   0.0000
    96 H50      -2.3544   -5.1060   -4.3416   H         1 RES1   0.0000
    97 H51      -3.3152   -6.5466   -4.5459   H         1 RES1   0.0000
    98 H52      -3.8663   -6.6882   -2.3171   H         1 RES1   0.0000
    99 H53      -2.2669   -6.2360   -1.7983   H         1 RES1   0.0000
   100 H54      -3.6197   -3.9380   -2.9995   H         1 RES1   0.0000
   101 H55      -4.6924   -4.7199   -1.8812   H         1 RES1   0.0000
   102 H56      -2.4234   -4.4526   -0.3231   H         1 RES1   0.0000
   103 H57      -2.3522   -2.9829   -1.2426   H         1 RES1   0.0000
   104 H58      -4.6393   -2.4308   -0.5048   H         1 RES1   0.0000
   105 H59      -4.6266   -3.8178    0.5266   H         1 RES1   0.0000
   106 H60      -2.3914   -2.8601    1.4406   H         1 RES1   0.0000
   107 H61      -2.8401   -1.3592    0.7488   H         1 RES1   0.0000
   108 H62      -5.0131   -1.4711    2.1791   H         1 RES1   0.0000
   109 H63      -4.3075   -2.8819    2.9456   H         1 RES1   0.0000
   110 H64      -3.4973   -1.3463    3.0682   H         1 RES1   0.0000
   111 H65       3.4662   -1.7577   -5.1685   H         1 RES1   0.0000
   112 H66       1.7410   -2.1554   -5.3286   H         1 RES1   0.0000
   113 H67      -2.4349    3.2045   -4.6272   H         1 RES1   0.0000
   114 H68      -3.8002    2.6285   -3.6301   H         1 RES1   0.0000
   115 H69      -2.7053    5.4487   -3.9018   H         1 RES1   0.0000
   116 H70      -5.5538    4.3510   -3.9661   H         1 RES1   0.0000
   117 H71      -5.1110    6.0595   -4.0833   H         1 RES1   0.0000
   118 H72      -4.6159    4.9256   -5.3411   H         1 RES1   0.0000
   119 C39       6.4924   -6.8869    1.0410   C.3       1 RES1   0.0000
   120 C40       7.2055   -5.7700    1.7913   C.3       1 RES1   0.0000
   121 C41       6.5410   -5.4911    3.1390   C.3       1 RES1   0.0000
   122 C42       6.9476   -4.1442    3.7397   C.3       1 RES1   0.0000
   123 C43       6.0335   -3.7311    4.8936   C.3       1 RES1   0.0000
   124 C44       6.2656   -2.2969    5.3909   C.3       1 RES1   0.0000
   125 C45       4.9554   -1.6936    5.8997   C.3       1 RES1   0.0000
   126 C46       5.1200   -0.3520    6.6090   C.3       1 RES1   0.0000
   127 C47       3.8624    0.1974    7.3059   C.3       1 RES1   0.0000
   128 C48       4.2642    1.3433    8.2227   C.3       1 RES1   0.0000
   129 C49       3.1270   -0.8460    8.1430   C.3       1 RES1   0.0000
   130 S3        2.5876    0.7632    6.0192   S.3       1 RES1   0.0000
   131 C50       2.7499    2.5937    5.8906   C.3       1 RES1   0.0000
   132 C51       1.6113    3.3298    5.1730   C.3       1 RES1   0.0000
   133 C52       1.3357    2.8180    3.7536   C.3       1 RES1   0.0000
   134 N3       -0.0555    2.3776    3.7279   N.am      1 RES1   0.0000
   135 C53      -0.5597    2.0054    2.5598   C.2       1 RES1   0.0000
   136 O4        0.1719    1.9620    1.5581   O.2       1 RES1   0.0000
   137 C54      -2.0546    1.7181    2.3932   C.3       1 RES1   0.0000
   138 O5       -2.1982    1.2107    1.0767   O.3       1 RES1   0.0000
   139 C55      -3.5321    1.0070    0.6340   C.3       1 RES1   0.0000
   140 C56      -3.4542    0.1391   -0.6361   C.2       1 RES1   0.0000
   141 O6       -2.3404   -0.0636   -1.1722   O.2       1 RES1   0.0000
   142 N4       -4.5839   -0.3331   -1.1351   N.am      1 RES1   0.0000
   143 C57      -4.6562   -1.0338   -2.4135   C.3       1 RES1   0.0000
   144 C58      -6.1325   -1.4406   -2.5750   C.3       1 RES1   0.0000
   145 C59      -6.3257   -2.6947   -3.4112   C.3       1 RES1   0.0000
   146 C60      -6.7627   -1.4024   -1.1508   C.3       1 RES1   0.0000
   147 C61      -7.0126   -2.6169   -0.1857   C.3       1 RES1   0.0000
   148 S4       -6.6892   -4.3845   -0.6939   S.3       1 RES1   0.0000
   149 C62      -6.3922   -5.5804    0.8007   C.3       1 RES1   0.0000
   150 C63      -7.2944   -6.7473    0.4120   C.3       1 RES1   0.0000
   151 C64      -6.8834   -4.9151    2.0682   C.3       1 RES1   0.0000
   152 C65      -4.9330   -6.1306    0.8595   C.3       1 RES1   0.0000
   153 C66      -4.0245   -5.7299    2.0431   C.3       1 RES1   0.0000
   154 C67      -2.5237   -5.9303    1.7197   C.3       1 RES1   0.0000
   155 C68      -1.5507   -4.8805    2.3188   C.3       1 RES1   0.0000
   156 C69      -0.4499   -4.3296    1.3694   C.3       1 RES1   0.0000
   157 C70       0.9218   -4.1034    2.0285   C.3       1 RES1   0.0000
   158 C71       2.0703   -3.9403    1.0279   C.3       1 RES1   0.0000
   159 C72       3.4679   -3.7306    1.6382   C.3       1 RES1   0.0000
   160 C73      -5.8998   -0.2811   -0.5131   C.3       1 RES1   0.0000
   161 C74      -0.6046    2.3074    5.0622   C.3       1 RES1   0.0000
   162 C75       0.2202    3.3257    5.8558   C.3       1 RES1   0.0000
   163 C76       0.2125    3.0268    7.3455   C.3       1 RES1   0.0000
   164 H73       6.9895   -7.1060    0.1014   H         1 RES1   0.0000
   165 H74       6.4771   -7.7967    1.6320   H         1 RES1   0.0000
   166 H75       5.4632   -6.6042    0.8292   H         1 RES1   0.0000
   167 H76       8.2479   -6.0408    1.9463   H         1 RES1   0.0000
   168 H77       7.1925   -4.8600    1.1867   H         1 RES1   0.0000
   169 H78       5.4594   -5.5047    2.9989   H         1 RES1   0.0000
   170 H79       6.7766   -6.2963    3.8342   H         1 RES1   0.0000
   171 H80       7.9766   -4.2006    4.0897   H         1 RES1   0.0000
   172 H81       6.9010   -3.3831    2.9553   H         1 RES1   0.0000
   173 H82       4.9973   -3.8220    4.5541   H         1 RES1   0.0000
   174 H83       6.1621   -4.4331    5.7176   H         1 RES1   0.0000
   175 H84       7.0116   -2.2975    6.1840   H         1 RES1   0.0000
   176 H85       6.6556   -1.6860    4.5758   H         1 RES1   0.0000
   177 H86       4.2899   -1.5562    5.0462   H         1 RES1   0.0000
   178 H87       4.4997   -2.4135    6.5796   H         1 RES1   0.0000
   179 H88       5.8886   -0.4610    7.3761   H         1 RES1   0.0000
   180 H89       5.4885    0.3912    5.8968   H         1 RES1   0.0000
   181 H90       4.8807    0.9326    9.0208   H         1 RES1   0.0000
   182 H91       4.8519    2.0972    7.7036   H         1 RES1   0.0000
   183 H92       3.3954    1.8068    8.6876   H         1 RES1   0.0000
   184 H93       3.8238   -1.3339    8.8201   H         1 RES1   0.0000
   185 H94       2.3530   -0.3632    8.7357   H         1 RES1   0.0000
   186 H95       2.6475   -1.6065    7.5331   H         1 RES1   0.0000
   187 H96       2.8294    2.9877    6.9014   H         1 RES1   0.0000
   188 H97       3.6818    2.7867    5.3535   H         1 RES1   0.0000
   189 H98       1.9593    4.3665    5.1291   H         1 RES1   0.0000
   190 H99       1.4613    3.5853    2.9866   H         1 RES1   0.0000
   191 H100      1.9911    1.9841    3.4962   H         1 RES1   0.0000
   192 H101     -2.4114    0.9928    3.1354   H         1 RES1   0.0000
   193 H102     -2.5888    2.6734    2.5119   H         1 RES1   0.0000
   194 H103     -4.1311    0.5327    1.4204   H         1 RES1   0.0000
   195 H104     -4.0233    1.9545    0.3601   H         1 RES1   0.0000
   196 H105     -4.3429   -0.3642   -3.2204   H         1 RES1   0.0000
   197 H106     -3.9851   -1.8926   -2.4189   H         1 RES1   0.0000
   198 H107     -6.6227   -0.6188   -3.1144   H         1 RES1   0.0000
   199 H108     -6.0363   -3.5955   -2.8864   H         1 RES1   0.0000
   200 H109     -7.3669   -2.7940   -3.7009   H         1 RES1   0.0000
   201 H110     -5.7270   -2.6151   -4.3148   H         1 RES1   0.0000
   202 H111     -7.7736   -1.0100   -1.2953   H         1 RES1   0.0000
   203 H112     -6.4532   -2.4784    0.7368   H         1 RES1   0.0000
   204 H113     -8.0763   -2.6106    0.0628   H         1 RES1   0.0000
   205 H114     -8.3372   -6.4483    0.3490   H         1 RES1   0.0000
   206 H115     -6.9843   -7.1360   -0.5562   H         1 RES1   0.0000
   207 H116     -7.2080   -7.5403    1.1532   H         1 RES1   0.0000
   208 H117     -7.9316   -4.6394    1.9750   H         1 RES1   0.0000
   209 H118     -6.7925   -5.6090    2.8992   H         1 RES1   0.0000
   210 H119     -6.3152   -4.0215    2.3116   H         1 RES1   0.0000
   211 H120     -4.9985   -7.2201    0.8482   H         1 RES1   0.0000
   212 H121     -4.4316   -5.8630   -0.0662   H         1 RES1   0.0000
   213 H122     -4.2052   -4.6894    2.2960   H         1 RES1   0.0000
   214 H123     -4.2838   -6.3087    2.9345   H         1 RES1   0.0000
   215 H124     -2.2190   -6.9188    2.0668   H         1 RES1   0.0000
   216 H125     -2.4288   -5.9644    0.6371   H         1 RES1   0.0000
   217 H126     -2.1299   -4.0619    2.7455   H         1 RES1   0.0000
   218 H127     -1.0594   -5.3543    3.1604   H         1 RES1   0.0000
   219 H128     -0.3226   -5.0241    0.5506   H         1 RES1   0.0000
   220 H129     -0.7313   -3.3699    0.9171   H         1 RES1   0.0000
   221 H130      0.8697   -3.2107    2.6222   H         1 RES1   0.0000
   222 H131      1.1514   -4.9347    2.6849   H         1 RES1   0.0000
   223 H132      2.1011   -4.8643    0.4679   H         1 RES1   0.0000
   224 H133      1.8633   -3.1178    0.3358   H         1 RES1   0.0000
   225 H134      3.4902   -4.0060    2.6904   H         1 RES1   0.0000
   226 H135      4.2046   -4.3447    1.1218   H         1 RES1   0.0000
   227 H136      3.8214   -2.7034    1.5592   H         1 RES1   0.0000
   228 H137     -6.3387    0.6895   -0.7475   H         1 RES1   0.0000
   229 H138     -5.8167   -0.3716    0.5680   H         1 RES1   0.0000
   230 H139     -1.6673    2.5453    5.0853   H         1 RES1   0.0000
   231 H140     -0.4415    1.2996    5.4639   H         1 RES1   0.0000
   232 H141     -0.2220    4.3138    5.6953   H         1 RES1   0.0000
   233 H142      0.6133    2.0356    7.5405   H         1 RES1   0.0000
   234 H143      0.7967    3.7660    7.8867   H         1 RES1   0.0000
   235 H144     -0.8095    3.0606    7.7156   H         1 RES1   0.0000
   236 C77      -3.8442   -3.8973   -7.9635   C.3       1 RES1   0.0000
   237 C78      -3.0668   -2.7759   -8.6381   C.3       1 RES1   0.0000
   238 C79      -1.5749   -3.0947   -8.7309   C.3       1 RES1   0.0000
   239 C80      -0.7269   -1.8487   -8.9829   C.3       1 RES1   0.0000
   240 C81       0.7650   -2.0872   -8.7475   C.3       1 RES1   0.0000
   241 C82       1.5642   -0.7825   -8.6964   C.3       1 RES1   0.0000
   242 C83       2.9534   -0.9944   -8.0947   C.3       1 RES1   0.0000
   243 C84       3.6564    0.3287   -7.7779   C.3       1 RES1   0.0000
   244 C85       4.9308    0.2430   -6.9118   C.3       1 RES1   0.0000
   245 C86       5.9239    1.3092   -7.3480   C.3       1 RES1   0.0000
   246 C87       5.6265   -1.1123   -6.9544   C.3       1 RES1   0.0000
   247 S5        4.4772    0.4772   -5.0796   S.3       1 RES1   0.0000
   248 C88       4.8255    2.2334   -4.6624   C.3       1 RES1   0.0000
   249 C89       4.9116    2.5569   -3.1659   C.3       1 RES1   0.0000
   250 C90       3.6451    2.2122   -2.3727   C.3       1 RES1   0.0000
   251 N5        4.0329    1.2579   -1.3332   N.am      1 RES1   0.0000
   252 C91       3.1282    0.9855   -0.4050   C.2       1 RES1   0.0000
   253 O7        1.9906    1.4730   -0.5027   O.2       1 RES1   0.0000
   254 C92       3.4382    0.1559    0.8476   C.3       1 RES1   0.0000
   255 O8        2.1867   -0.2508    1.3878   O.3       1 RES1   0.0000
   256 C93       2.2366   -0.6990    2.7399   C.3       1 RES1   0.0000
   257 C94       0.8278   -1.1601    3.1382   C.2       1 RES1   0.0000
   258 O9       -0.1376   -0.8029    2.4327   O.2       1 RES1   0.0000
   259 N6        0.6972   -1.9016    4.2400   N.am      1 RES1   0.0000
   260 C95      -0.5893   -2.4211    4.6944   C.3       1 RES1   0.0000
   261 C96      -0.2839   -3.4046    5.8350   C.3       1 RES1   0.0000
   262 C97      -1.3277   -4.5048    5.9400   C.3       1 RES1   0.0000
   263 C98       1.2004   -3.8356    5.6585   C.3       1 RES1   0.0000
   264 C99       1.7029   -5.2393    5.1592   C.3       1 RES1   0.0000
   265 S6        0.6446   -6.5237    4.2993   S.3       1 RES1   0.0000
   266 C100      1.5654   -7.5668    2.9452   C.3       1 RES1   0.0000
   267 C101      1.4424   -9.0024    3.4242   C.3       1 RES1   0.0000
   268 C102      3.0175   -7.1561    2.8432   C.3       1 RES1   0.0000
   269 C103      0.7429   -7.4071    1.6416   C.3       1 RES1   0.0000
   270 C104      1.4550   -7.4458    0.2746   C.3       1 RES1   0.0000
   271 C105      0.5058   -6.9282   -0.8403   C.3       1 RES1   0.0000
   272 C106      0.9981   -5.6929   -1.6376   C.3       1 RES1   0.0000
   273 C107      0.0124   -4.5101   -1.8234   C.3       1 RES1   0.0000
   274 C108     -0.0641   -3.9617   -3.2564   C.3       1 RES1   0.0000
   275 C109     -0.9447   -2.7177   -3.4340   C.3       1 RES1   0.0000
   276 C110     -1.2958   -2.4439   -4.8970   C.3       1 RES1   0.0000
   277 C111      1.7835   -2.6129    4.9102   C.3       1 RES1   0.0000
   278 C112      5.3656    0.7483   -1.5847   C.3       1 RES1   0.0000
   279 C113      6.0503    1.8836   -2.3605   C.3       1 RES1   0.0000
   280 C114      7.2426    1.4171   -3.1810   C.3       1 RES1   0.0000
   281 H145     -4.9103   -3.6943   -7.9819   H         1 RES1   0.0000
   282 H146     -3.6713   -4.8405   -8.4710   H         1 RES1   0.0000
   283 H147     -3.5339   -4.0080   -6.9264   H         1 RES1   0.0000
   284 H148     -3.4620   -2.6038   -9.6370   H         1 RES1   0.0000
   285 H149     -3.2014   -1.8515   -8.0725   H         1 RES1   0.0000
   286 H150     -1.2573   -3.5551   -7.7948   H         1 RES1   0.0000
   287 H151     -1.4049   -3.8294   -9.5173   H         1 RES1   0.0000
   288 H152     -0.8839   -1.5060  -10.0034   H         1 RES1   0.0000
   289 H153     -1.0695   -1.0563   -8.3108   H         1 RES1   0.0000
   290 H154      0.8890   -2.6246   -7.8013   H         1 RES1   0.0000
   291 H155      1.1595   -2.7320   -9.5320   H         1 RES1   0.0000
   292 H156      1.6472   -0.3670   -9.6997   H         1 RES1   0.0000
   293 H157      1.0167   -0.0602   -8.0847   H         1 RES1   0.0000
   294 H158      2.8383   -1.5774   -7.1851   H         1 RES1   0.0000
   295 H159      3.5583   -1.5837   -8.7837   H         1 RES1   0.0000
   296 H160      3.9228    0.7984   -8.7266   H         1 RES1   0.0000
   297 H161      2.9445    1.0008   -7.2892   H         1 RES1   0.0000
   298 H162      6.2817    1.0511   -8.3434   H         1 RES1   0.0000
   299 H163      5.4650    2.2942   -7.4055   H         1 RES1   0.0000
   300 H164      6.7907    1.3426   -6.6887   H         1 RES1   0.0000
   301 H165      5.9118   -1.3495   -7.9758   H         1 RES1   0.0000
   302 H166      6.5269   -1.0840   -6.3438   H         1 RES1   0.0000
   303 H167      4.9945   -1.9136   -6.5831   H         1 RES1   0.0000
   304 H168      5.7719    2.4985   -5.1281   H         1 RES1   0.0000
   305 H169      4.0257    2.8304   -5.1073   H         1 RES1   0.0000
   306 H170      5.0757    3.6389   -3.1438   H         1 RES1   0.0000
   307 H171      3.1974    3.0833   -1.8873   H         1 RES1   0.0000
   308 H172      2.8841    1.7612   -3.0075   H         1 RES1   0.0000
   309 H173      4.0639   -0.7147    0.6172   H         1 RES1   0.0000
   310 H174      3.9697    0.8214    1.5457   H         1 RES1   0.0000
   311 H175      2.9597   -1.5106    2.8426   H         1 RES1   0.0000
   312 H176      2.5516    0.1000    3.4316   H         1 RES1   0.0000
   313 H177     -1.2245   -1.6032    5.0422   H         1 RES1   0.0000
   314 H178     -1.1031   -2.9220    3.8731   H         1 RES1   0.0000
   315 H179     -0.3092   -2.8342    6.7721   H         1 RES1   0.0000
   316 H180     -1.3360   -5.1409    5.0630   H         1 RES1   0.0000
   317 H181     -1.1375   -5.1284    6.8080   H         1 RES1   0.0000
   318 H182     -2.3112   -4.0530    6.0508   H         1 RES1   0.0000
   319 H183      1.6312   -3.8194    6.6635   H         1 RES1   0.0000
   320 H184      2.5799   -5.0958    4.5337   H         1 RES1   0.0000
   321 H185      2.0250   -5.7852    6.0440   H         1 RES1   0.0000
   322 H186      2.0692   -9.2059    4.2866   H         1 RES1   0.0000
   323 H187      0.4104   -9.2187    3.6867   H         1 RES1   0.0000
   324 H188      1.7426   -9.6650    2.6137   H         1 RES1   0.0000
   325 H189      3.5019   -7.2020    3.8171   H         1 RES1   0.0000
   326 H190      3.5412   -7.8491    2.1886   H         1 RES1   0.0000
   327 H191      3.1215   -6.1617    2.4272   H         1 RES1   0.0000
   328 H192     -0.0315   -8.1785    1.6411   H         1 RES1   0.0000
   329 H193      0.2331   -6.4614    1.6949   H         1 RES1   0.0000
   330 H194      2.3777   -6.8633    0.3037   H         1 RES1   0.0000
   331 H195      1.7533   -8.4669    0.0384   H         1 RES1   0.0000
   332 H196      0.3402   -7.7433   -1.5466   H         1 RES1   0.0000
   333 H197     -0.4651   -6.7214   -0.3892   H         1 RES1   0.0000
   334 H198      1.9171   -5.3364   -1.1814   H         1 RES1   0.0000
   335 H199      1.2864   -6.0477   -2.6207   H         1 RES1   0.0000
   336 H200     -0.9751   -4.8431   -1.5477   H         1 RES1   0.0000
   337 H201      0.2745   -3.6711   -1.1756   H         1 RES1   0.0000
   338 H202      0.9338   -3.7398   -3.5970   H         1 RES1   0.0000
   339 H203     -0.4589   -4.7289   -3.9044   H         1 RES1   0.0000
   340 H204     -1.8894   -2.8677   -2.9269   H         1 RES1   0.0000
   341 H205     -0.4815   -1.8410   -2.9748   H         1 RES1   0.0000
   342 H206     -0.4304   -2.3337   -5.5510   H         1 RES1   0.0000
   343 H207     -1.8910   -3.2663   -5.2864   H         1 RES1   0.0000
   344 H208     -1.9052   -1.5452   -4.9996   H         1 RES1   0.0000
   345 H209      2.2368   -1.9272    5.6270   H         1 RES1   0.0000
   346 H210      2.5399   -2.9106    4.1873   H         1 RES1   0.0000
   347 H211      5.9035    0.5115   -0.6670   H         1 RES1   0.0000
   348 H212      5.2939   -0.1473   -2.2142   H         1 RES1   0.0000
   349 H213      6.4008    2.6175   -1.6279   H         1 RES1   0.0000
   350 H214      6.9447    0.6685   -3.9108   H         1 RES1   0.0000
   351 H215      7.6921    2.2634   -3.6955   H         1 RES1   0.0000
   352 H216      7.9923    0.9793   -2.5264   H         1 RES1   0.0000
@<TRIPOS>BOND
     1     1    19    1
     2     1    21    1
     3     1    24    1
     4     1   136    1
     5     1   138    1
     6     1   141    1
     7     1   253    1
     8     1   255    1
     9     1   258    1
    10     2     3    1
    11     2    47    1
    12     2    48    1
    13     2    49    1
    14     3     4    1
    15     3    50    1
    16     3    51    1
    17     4     5    1
    18     4    52    1
    19     4    53    1
    20     5     6    1
    21     5    54    1
    22     5    55    1
    23     6     7    1
    24     6    56    1
    25     6    57    1
    26     7     8    1
    27     7    58    1
    28     7    59    1
    29     8     9    1
    30     8    60    1
    31     8    61    1
    32     9    10    1
    33     9    62    1
    34     9    63    1
    35    10    11    1
    36    10    12    1
    37    10    13    1
    38    11    64    1
    39    11    65    1
    40    11    66    1
    41    12    67    1
    42    12    68    1
    43    12    69    1
    44    13    14    1
    45    14    15    1
    46    14    70    1
    47    14    71    1
    48    15    16    1
    49    15    45    1
    50    15    72    1
    51    16    17    1
    52    16    73    1
    53    16    74    1
    54    17    18    1
    55    17    44    1
    56    18    19    2
    57    18    20    1
    58    20    21    1
    59    20    75    1
    60    20    76    1
    61    21    22    1
    62    22    23    1
    63    22    77    1
    64    22    78    1
    65    23    24    2
    66    23    25    1
    67    25    26    1
    68    25    43    1
    69    26    27    1
    70    26    79    1
    71    26    80    1
    72    27    28    1
    73    27    29    1
    74    27    81    1
    75    28    82    1
    76    28    83    1
    77    28    84    1
    78    29    30    1
    79    29    43    1
    80    29    85    1
    81    30    31    1
    82    30    86    1
    83    30    87    1
    84    31    32    1
    85    32    33    1
    86    32    34    1
    87    32    35    1
    88    33    88    1
    89    33    89    1
    90    33    90    1
    91    34    91    1
    92    34    92    1
    93    34    93    1
    94    35    36    1
    95    35    94    1
    96    35    95    1
    97    36    37    1
    98    36    96    1
    99    36    97    1
   100    37    38    1
   101    37    98    1
   102    37    99    1
   103    38    39    1
   104    38   100    1
   105    38   101    1
   106    39    40    1
   107    39   102    1
   108    39   103    1
   109    40    41    1
   110    40   104    1
   111    40   105    1
   112    41    42    1
   113    41   106    1
   114    41   107    1
   115    42   108    1
   116    42   109    1
   117    42   110    1
   118    43   111    1
   119    43   112    1
   120    44    45    1
   121    44   113    1
   122    44   114    1
   123    45    46    1
   124    45   115    1
   125    46   116    1
   126    46   117    1
   127    46   118    1
   128   119   120    1
   129   119   164    1
   130   119   165    1
   131   119   166    1
   132   120   121    1
   133   120   167    1
   134   120   168    1
   135   121   122    1
   136   121   169    1
   137   121   170    1
   138   122   123    1
   139   122   171    1
   140   122   172    1
   141   123   124    1
   142   123   173    1
   143   123   174    1
   144   124   125    1
   145   124   175    1
   146   124   176    1
   147   125   126    1
   148   125   177    1
   149   125   178    1
   150   126   127    1
   151   126   179    1
   152   126   180    1
   153   127   128    1
   154   127   129    1
   155   127   130    1
   156   128   181    1
   157   128   182    1
   158   128   183    1
   159   129   184    1
   160   129   185    1
   161   129   186    1
   162   130   131    1
   163   131   132    1
   164   131   187    1
   165   131   188    1
   166   132   133    1
   167   132   162    1
   168   132   189    1
   169   133   134    1
   170   133   190    1
   171   133   191    1
   172   134   135    1
   173   134   161    1
   174   135   136    2
   175   135   137    1
   176   137   138    1
   177   137   192    1
   178   137   193    1
   179   138   139    1
   180   139   140    1
   181   139   194    1
   182   139   195    1
   183   140   141    2
   184   140   142    1
   185   142   143    1
   186   142   160    1
   187   143   144    1
   188   143   196    1
   189   143   197    1
   190   144   145    1
   191   144   146    1
   192   144   198    1
   193   145   199    1
   194   145   200    1
   195   145   201    1
   196   146   147    1
   197   146   160    1
   198   146   202    1
   199   147   148    1
   200   147   203    1
   201   147   204    1
   202   148   149    1
   203   149   150    1
   204   149   151    1
   205   149   152    1
   206   150   205    1
   207   150   206    1
   208   150   207    1
   209   151   208    1
   210   151   209    1
   211   151   210    1
   212   152   153    1
   213   152   211    1
   214   152   212    1
   215   153   154    1
   216   153   213    1
   217   153   214    1
   218   154   155    1
   219   154   215    1
   220   154   216    1
   221   155   156    1
   222   155   217    1
   223   155   218    1
   224   156   157    1
   225   156   219    1
   226   156   220    1
   227   157   158    1
   228   157   221    1
   229   157   222    1
   230   158   159    1
   231   158   223    1
   232   158   224    1
   233   159   225    1
   234   159   226    1
   235   159   227    1
   236   160   228    1
   237   160   229    1
   238   161   162    1
   239   161   230    1
   240   161   231    1
   241   162   163    1
   242   162   232    1
   243   163   233    1
   244   163   234    1
   245   163   235    1
   246   236   237    1
   247   236   281    1
   248   236   282    1
   249   236   283    1
   250   237   238    1
   251   237   284    1
   252   237   285    1
   253   238   239    1
   254   238   286    1
   255   238   287    1
   256   239   240    1
   257   239   288    1
   258   239   289    1
   259   240   241    1
   260   240   290    1
   261   240   291    1
   262   241   242    1
   263   241   292    1
   264   241   293    1
   265   242   243    1
   266   242   294    1
   267   242   295    1
   268   243   244    1
   269   243   296    1
   270   243   297    1
   271   244   245    1
   272   244   246    1
   273   244   247    1
   274   245   298    1
   275   245   299    1
   276   245   300    1
   277   246   301    1
   278   246   302    1
   279   246   303    1
   280   247   248    1
   281   248   249    1
   282   248   304    1
   283   248   305    1
   284   249   250    1
   285   249   279    1
   286   249   306    1
   287   250   251    1
   288   250   307    1
   289   250   308    1
   290   251   252    1
   291   251   278    1
   292   252   253    2
   293   252   254    1
   294   254   255    1
   295   254   309    1
   296   254   310    1
   297   255   256    1
   298   256   257    1
   299   256   311    1
   300   256   312    1
   301   257   258    2
   302   257   259    1
   303   259   260    1
   304   259   277    1
   305   260   261    1
   306   260   313    1
   307   260   314    1
   308   261   262    1
   309   261   263    1
   310   261   315    1
   311   262   316    1
   312   262   317    1
   313   262   318    1
   314   263   264    1
   315   263   277    1
   316   263   319    1
   317   264   265    1
   318   264   320    1
   319   264   321    1
   320   265   266    1
   321   266   267    1
   322   266   268    1
   323   266   269    1
   324   267   322    1
   325   267   323    1
   326   267   324    1
   327   268   325    1
   328   268   326    1
   329   268   327    1
   330   269   270    1
   331   269   328    1
   332   269   329    1
   333   270   271    1
   334   270   330    1
   335   270   331    1
   336   271   272    1
   337   271   332    1
   338   271   333    1
   339   272   273    1
   340   272   334    1
   341   272   335    1
   342   273   274    1
   343   273   336    1
   344   273   337    1
   345   274   275    1
   346   274   338    1
   347   274   339    1
   348   275   276    1
   349   275   340    1
   350   275   341    1
   351   276   342    1
   352   276   343    1
   353   276   344    1
   354   277   345    1
   355   277   346    1
   356   278   279    1
   357   278   347    1
   358   278   348    1
   359   279   280    1
   360   279   349    1
   361   280   350    1
   362   280   351    1
   363   280   352    1
@<TRIPOS>SUBSTRUCTURE
     1 RES1      352 GROUP             0 ****  ****    0  
