@<TRIPOS>MOLECULE
capped_square_antiprismatic_0_nunpairedes_0_charge_3 Charge: 3 Unpaired_Electrons: 0 XTB_Unpaired_Electrons: 0 XTB_Charge: 3
    92    97     1     0     0
SMALL
NoCharges
****
Generated from Architector

@<TRIPOS>ATOM
     1 La1       0.1730   -0.1799    1.6287   La        1 RES1   0.0000
     2 C1       -0.5216    6.6215    2.1893   C.3       1 RES1   0.0000
     3 C2        0.9721    6.8140    1.9698   C.3       1 RES1   0.0000
     4 C3        1.8798    6.0901    2.9630   C.3       1 RES1   0.0000
     5 C4        1.8074    4.5571    2.9513   C.3       1 RES1   0.0000
     6 C5        2.3257    3.9324    1.6443   C.3       1 RES1   0.0000
     7 C6        1.2274    3.5785    0.6533   C.3       1 RES1   0.0000
     8 O1        0.4364    2.4549    1.2034   O.3       1 RES1   0.0000
     9 P1       -1.0510    2.1107    0.6727   P.3       1 RES1   0.0000
    10 O2       -1.0175    0.9492   -0.2431   O.2       1 RES1   0.0000
    11 O3       -1.7936    3.4102    0.2780   O.3       1 RES1   0.0000
    12 O4       -1.6445    1.4896    2.0379   O.3       1 RES1   0.0000
    13 C7       -2.3428    2.2685    3.0704   C.3       1 RES1   0.0000
    14 C8       -3.7752    1.7595    3.1907   C.3       1 RES1   0.0000
    15 C9       -4.2600    1.8401    4.6405   C.3       1 RES1   0.0000
    16 C10      -4.0367    3.1926    5.3262   C.3       1 RES1   0.0000
    17 C11      -4.9064    4.3333    4.7970   C.3       1 RES1   0.0000
    18 C12      -4.4151    5.0189    3.5316   C.3       1 RES1   0.0000
    19 H1       -1.0671    7.2450    1.4855   H         1 RES1   0.0000
    20 H2       -0.8057    6.9173    3.1968   H         1 RES1   0.0000
    21 H3       -0.8272    5.5856    2.0326   H         1 RES1   0.0000
    22 H4        1.1916    7.8796    2.0499   H         1 RES1   0.0000
    23 H5        1.2303    6.5219    0.9492   H         1 RES1   0.0000
    24 H6        1.6377    6.4415    3.9703   H         1 RES1   0.0000
    25 H7        2.9088    6.3951    2.7587   H         1 RES1   0.0000
    26 H8        0.7779    4.2418    3.1452   H         1 RES1   0.0000
    27 H9        2.4140    4.2133    3.7909   H         1 RES1   0.0000
    28 H10       2.9069    3.0268    1.8422   H         1 RES1   0.0000
    29 H11       2.9872    4.6463    1.1495   H         1 RES1   0.0000
    30 H12       1.6459    3.2645   -0.3075   H         1 RES1   0.0000
    31 H13       0.5558    4.4238    0.4911   H         1 RES1   0.0000
    32 H14      -2.1795    3.4438   -0.6065   H         1 RES1   0.0000
    33 H15      -2.3092    3.3284    2.8185   H         1 RES1   0.0000
    34 H16      -1.7818    2.0980    3.9922   H         1 RES1   0.0000
    35 H17      -3.7923    0.7123    2.8646   H         1 RES1   0.0000
    36 H18      -4.4280    2.3228    2.5232   H         1 RES1   0.0000
    37 H19      -3.7517    1.0625    5.2175   H         1 RES1   0.0000
    38 H20      -5.3233    1.6136    4.6549   H         1 RES1   0.0000
    39 H21      -2.9842    3.4791    5.2778   H         1 RES1   0.0000
    40 H22      -4.2742    3.0460    6.3805   H         1 RES1   0.0000
    41 H23      -4.9491    5.0935    5.5820   H         1 RES1   0.0000
    42 H24      -5.9304    3.9855    4.6563   H         1 RES1   0.0000
    43 H25      -3.3641    5.2916    3.6115   H         1 RES1   0.0000
    44 H26      -4.9865    5.9295    3.3752   H         1 RES1   0.0000
    45 H27      -4.5549    4.4028    2.6447   H         1 RES1   0.0000
    46 C13       0.6334    1.5291    5.3673   C.3       1 RES1   0.0000
    47 C14       1.2515    0.4350    4.4994   C.3       1 RES1   0.0000
    48 C15       2.7499    0.6413    4.2501   C.3       1 RES1   0.0000
    49 C16       3.4237   -0.5494    3.5451   C.3       1 RES1   0.0000
    50 C17       3.3604   -0.5352    2.0024   C.3       1 RES1   0.0000
    51 C18       3.2295   -1.9368    1.3826   C.3       1 RES1   0.0000
    52 O5        1.8365   -2.3649    1.2869   O.3       1 RES1   0.0000
    53 P2        1.1001   -2.0596   -0.1361   P.3       1 RES1   0.0000
    54 O6        1.3629   -0.6313   -0.4413   O.2       1 RES1   0.0000
    55 O7        1.4339   -3.1800   -1.1368   O.3       1 RES1   0.0000
    56 O8       -0.4227   -2.1794    0.3656   O.3       1 RES1   0.0000
    57 C19      -1.4398   -3.2015    0.0464   C.3       1 RES1   0.0000
    58 C20      -2.7936   -2.5136   -0.1340   C.3       1 RES1   0.0000
    59 C21      -3.9869   -3.4926   -0.0722   C.3       1 RES1   0.0000
    60 C22      -4.4723   -4.0371   -1.4201   C.3       1 RES1   0.0000
    61 C23      -3.5449   -5.0373   -2.0969   C.3       1 RES1   0.0000
    62 C24      -4.1562   -5.6461   -3.3462   C.3       1 RES1   0.0000
    63 H28      -0.4076    1.3027    5.5913   H         1 RES1   0.0000
    64 H29       0.6992    2.5022    4.8874   H         1 RES1   0.0000
    65 H30       1.1615    1.5856    6.3159   H         1 RES1   0.0000
    66 H31       0.6809    0.4291    3.4908   H         1 RES1   0.0000
    67 H32       1.0996   -0.5316    4.9958   H         1 RES1   0.0000
    68 H33       3.2182    0.7564    5.2301   H         1 RES1   0.0000
    69 H34       2.9200    1.5696    3.6948   H         1 RES1   0.0000
    70 H35       2.9792   -1.4776    3.9139   H         1 RES1   0.0000
    71 H36       4.4765   -0.5721    3.8355   H         1 RES1   0.0000
    72 H37       4.2782   -0.0845    1.6161   H         1 RES1   0.0000
    73 H38       2.5291    0.1240    1.6253   H         1 RES1   0.0000
    74 H39       3.7264   -2.6936    1.9960   H         1 RES1   0.0000
    75 H40       3.6674   -1.9407    0.3839   H         1 RES1   0.0000
    76 H41       1.6732   -3.0106   -2.0569   H         1 RES1   0.0000
    77 H42      -1.4700   -3.8905    0.8961   H         1 RES1   0.0000
    78 H43      -1.1200   -3.7408   -0.8444   H         1 RES1   0.0000
    79 H44      -2.8213   -1.9693   -1.0796   H         1 RES1   0.0000
    80 H45      -2.8986   -1.7710    0.6747   H         1 RES1   0.0000
    81 H46      -4.8314   -2.9634    0.3672   H         1 RES1   0.0000
    82 H47      -3.7494   -4.3259    0.5894   H         1 RES1   0.0000
    83 H48      -4.6717   -3.2084   -2.1032   H         1 RES1   0.0000
    84 H49      -5.4318   -4.5310   -1.2484   H         1 RES1   0.0000
    85 H50      -3.3096   -5.8413   -1.3935   H         1 RES1   0.0000
    86 H51      -2.6009   -4.5498   -2.3611   H         1 RES1   0.0000
    87 H52      -5.0502   -6.2204   -3.1020   H         1 RES1   0.0000
    88 H53      -3.4528   -6.3096   -3.8425   H         1 RES1   0.0000
    89 H54      -4.4654   -4.8744   -4.0510   H         1 RES1   0.0000
    90 O9       -0.9639   -1.8173    3.3334   O.3       1 RES1   0.0000
    91 H55      -1.8871   -1.8083    3.6406   H         1 RES1   0.0000
    92 H56      -0.6177   -2.6717    3.6414   H         1 RES1   0.0000
@<TRIPOS>BOND
     1     1     8    1
     2     1    10    1
     3     1    11    1
     4     1    12    1
     5     1    52    1
     6     1    54    1
     7     1    55    1
     8     1    56    1
     9     1    90    1
    10     2     3    1
    11     2    19    1
    12     2    20    1
    13     2    21    1
    14     3     4    1
    15     3    22    1
    16     3    23    1
    17     4     5    1
    18     4    24    1
    19     4    25    1
    20     5     6    1
    21     5    26    1
    22     5    27    1
    23     6     7    1
    24     6    28    1
    25     6    29    1
    26     7     8    1
    27     7    30    1
    28     7    31    1
    29     8     9    1
    30     9    10    2
    31     9    11    1
    32     9    12    1
    33    11    32    1
    34    12    13    1
    35    13    14    1
    36    13    33    1
    37    13    34    1
    38    14    15    1
    39    14    35    1
    40    14    36    1
    41    15    16    1
    42    15    37    1
    43    15    38    1
    44    16    17    1
    45    16    39    1
    46    16    40    1
    47    17    18    1
    48    17    41    1
    49    17    42    1
    50    18    43    1
    51    18    44    1
    52    18    45    1
    53    46    47    1
    54    46    63    1
    55    46    64    1
    56    46    65    1
    57    47    48    1
    58    47    66    1
    59    47    67    1
    60    48    49    1
    61    48    68    1
    62    48    69    1
    63    49    50    1
    64    49    70    1
    65    49    71    1
    66    50    51    1
    67    50    72    1
    68    50    73    1
    69    51    52    1
    70    51    74    1
    71    51    75    1
    72    52    53    1
    73    53    54    2
    74    53    55    1
    75    53    56    1
    76    55    76    1
    77    56    57    1
    78    57    58    1
    79    57    77    1
    80    57    78    1
    81    58    59    1
    82    58    79    1
    83    58    80    1
    84    59    60    1
    85    59    81    1
    86    59    82    1
    87    60    61    1
    88    60    83    1
    89    60    84    1
    90    61    62    1
    91    61    85    1
    92    61    86    1
    93    62    87    1
    94    62    88    1
    95    62    89    1
    96    90    91    1
    97    90    92    1
@<TRIPOS>SUBSTRUCTURE
     1 RES1       92 GROUP             0 ****  ****    0  
