@<TRIPOS>MOLECULE
capped_square_antiprismatic_0_nunpairedes_0_charge_3 Charge: 3 Unpaired_Electrons: 0 XTB_Unpaired_Electrons: 0 XTB_Charge: 3
   430   435     1     0     0
SMALL
NoCharges
****
Generated from Architector

@<TRIPOS>ATOM
     1 La1      -0.0160    0.0397    0.0665   La        1 RES1   0.0000
     2 C1        9.0116   -0.3845    5.8829   C.3       1 RES1   0.0000
     3 C2        8.3548   -1.1809    4.7621   C.3       1 RES1   0.0000
     4 C3        7.5108   -0.2866    3.8566   C.3       1 RES1   0.0000
     5 C4        6.7686   -1.0762    2.7791   C.3       1 RES1   0.0000
     6 C5        7.7050   -1.6455    1.7136   C.3       1 RES1   0.0000
     7 C6        6.9815   -2.2349    0.4995   C.3       1 RES1   0.0000
     8 C7        6.1131   -3.4528    0.8350   C.3       1 RES1   0.0000
     9 C8        4.6560   -3.0854    1.1261   C.3       1 RES1   0.0000
    10 C9        3.9122   -4.2592    1.7586   C.3       1 RES1   0.0000
    11 C10       2.4527   -3.9458    2.0896   C.3       1 RES1   0.0000
    12 N1        2.2752   -2.7970    2.9705   N.am      1 RES1   0.0000
    13 C11       2.8009   -2.9256    4.3262   C.3       1 RES1   0.0000
    14 C12       2.2378   -4.0839    5.1558   C.3       1 RES1   0.0000
    15 C13       0.7167   -4.1305    5.3108   C.3       1 RES1   0.0000
    16 C14       0.0154   -2.9879    6.0599   C.3       1 RES1   0.0000
    17 C15       0.5572   -2.6143    7.4468   C.3       1 RES1   0.0000
    18 C16       1.6681   -1.5616    7.4289   C.3       1 RES1   0.0000
    19 C17       1.8539   -0.8371    8.7644   C.3       1 RES1   0.0000
    20 C18       0.7534    0.1637    9.1170   C.3       1 RES1   0.0000
    21 C19       0.5308    1.2835    8.0997   C.3       1 RES1   0.0000
    22 C20       1.7849    2.0915    7.7906   C.3       1 RES1   0.0000
    23 C21       1.8082   -1.6674    2.4471   C.2       1 RES1   0.0000
    24 O1        1.5506   -1.5388    1.2340   O.2       1 RES1   0.0000
    25 C22       1.5490   -0.4762    3.3723   C.3       1 RES1   0.0000
    26 C23       2.8445    0.3304    3.5272   C.3       1 RES1   0.0000
    27 O2        0.5006    0.2591    2.7488   O.3       1 RES1   0.0000
    28 C24      -0.4579    0.8127    3.6434   C.3       1 RES1   0.0000
    29 C25       0.0596    2.1154    4.2613   C.3       1 RES1   0.0000
    30 C26      -1.7177    1.0472    2.7983   C.2       1 RES1   0.0000
    31 O3       -1.6244    0.9541    1.5556   O.2       1 RES1   0.0000
    32 N2       -2.8703    1.3320    3.3928   N.am      1 RES1   0.0000
    33 C27      -3.1169    1.3327    4.8354   C.3       1 RES1   0.0000
    34 C28      -3.6961    2.6453    5.3705   C.3       1 RES1   0.0000
    35 C29      -3.5476    2.7816    6.8875   C.3       1 RES1   0.0000
    36 C30      -4.4433    3.8970    7.4368   C.3       1 RES1   0.0000
    37 C31      -4.1655    5.2816    6.8463   C.3       1 RES1   0.0000
    38 C32      -2.7871    5.8770    7.1537   C.3       1 RES1   0.0000
    39 C33      -2.6633    6.4791    8.5577   C.3       1 RES1   0.0000
    40 C34      -2.1756    5.5146    9.6388   C.3       1 RES1   0.0000
    41 C35      -0.7043    5.1285    9.4923   C.3       1 RES1   0.0000
    42 C36      -0.2533    4.2264   10.6338   C.3       1 RES1   0.0000
    43 C37      -4.0563    1.4819    2.5450   C.3       1 RES1   0.0000
    44 C38      -4.3144    2.9211    2.0988   C.3       1 RES1   0.0000
    45 C39      -3.3160    3.4284    1.0438   C.3       1 RES1   0.0000
    46 C40      -2.6991    4.7780    1.4287   C.3       1 RES1   0.0000
    47 C41      -1.8278    4.7367    2.6868   C.3       1 RES1   0.0000
    48 C42      -0.9261    5.9643    2.8501   C.3       1 RES1   0.0000
    49 C43      -0.2274    5.9843    4.2154   C.3       1 RES1   0.0000
    50 C44       1.0543    6.8248    4.2398   C.3       1 RES1   0.0000
    51 C45       1.9048    6.5552    5.4842   C.3       1 RES1   0.0000
    52 C46       1.3881    7.2728    6.7269   C.3       1 RES1   0.0000
    53 H1        9.5990   -1.0406    6.5213   H         1 RES1   0.0000
    54 H2        8.2586    0.1091    6.4967   H         1 RES1   0.0000
    55 H3        9.6725    0.3766    5.4718   H         1 RES1   0.0000
    56 H4        7.7200   -1.9585    5.1959   H         1 RES1   0.0000
    57 H5        9.1309   -1.6722    4.1750   H         1 RES1   0.0000
    58 H6        8.1523    0.4598    3.3842   H         1 RES1   0.0000
    59 H7        6.7813    0.2498    4.4717   H         1 RES1   0.0000
    60 H8        6.0417   -0.4175    2.2941   H         1 RES1   0.0000
    61 H9        6.2306   -1.8936    3.2663   H         1 RES1   0.0000
    62 H10       8.3349   -2.4175    2.1581   H         1 RES1   0.0000
    63 H11       8.3635   -0.8470    1.3634   H         1 RES1   0.0000
    64 H12       7.7440   -2.5317   -0.2212   H         1 RES1   0.0000
    65 H13       6.3652   -1.4622    0.0310   H         1 RES1   0.0000
    66 H14       6.5369   -3.9553    1.7064   H         1 RES1   0.0000
    67 H15       6.1400   -4.1720    0.0130   H         1 RES1   0.0000
    68 H16       4.1440   -2.7816    0.2064   H         1 RES1   0.0000
    69 H17       4.6295   -2.2326    1.8047   H         1 RES1   0.0000
    70 H18       4.4326   -4.5752    2.6657   H         1 RES1   0.0000
    71 H19       3.9169   -5.1076    1.0708   H         1 RES1   0.0000
    72 H20       1.9989   -4.8126    2.5710   H         1 RES1   0.0000
    73 H21       1.9067   -3.7190    1.1718   H         1 RES1   0.0000
    74 H22       2.6353   -2.0054    4.8751   H         1 RES1   0.0000
    75 H23       3.8824   -3.0684    4.2448   H         1 RES1   0.0000
    76 H24       2.6961   -4.0082    6.1414   H         1 RES1   0.0000
    77 H25       2.5584   -5.0365    4.7336   H         1 RES1   0.0000
    78 H26       0.4834   -5.0618    5.8326   H         1 RES1   0.0000
    79 H27       0.2694   -4.1888    4.3134   H         1 RES1   0.0000
    80 H28      -1.0243   -3.3071    6.1781   H         1 RES1   0.0000
    81 H29      -0.0054   -2.0933    5.4295   H         1 RES1   0.0000
    82 H30       0.9047   -3.5100    7.9605   H         1 RES1   0.0000
    83 H31      -0.2768   -2.2206    8.0269   H         1 RES1   0.0000
    84 H32       1.4469   -0.8157    6.6607   H         1 RES1   0.0000
    85 H33       2.6156   -2.0343    7.1680   H         1 RES1   0.0000
    86 H34       2.8097   -0.3147    8.7388   H         1 RES1   0.0000
    87 H35       1.9147   -1.5782    9.5613   H         1 RES1   0.0000
    88 H36       1.0132    0.6180   10.0728   H         1 RES1   0.0000
    89 H37      -0.1913   -0.3626    9.2591   H         1 RES1   0.0000
    90 H38      -0.2204    1.9585    8.5099   H         1 RES1   0.0000
    91 H39       0.1170    0.8700    7.1759   H         1 RES1   0.0000
    92 H40       2.2576    2.4162    8.7115   H         1 RES1   0.0000
    93 H41       1.5386    2.9824    7.2161   H         1 RES1   0.0000
    94 H42       2.5124    1.5114    7.2276   H         1 RES1   0.0000
    95 H43       1.1949   -0.8228    4.3503   H         1 RES1   0.0000
    96 H44       3.0687    0.8261    2.5869   H         1 RES1   0.0000
    97 H45       3.6771   -0.3200    3.7832   H         1 RES1   0.0000
    98 H46       2.7543    1.0768    4.3092   H         1 RES1   0.0000
    99 H47      -0.6982    0.0686    4.4199   H         1 RES1   0.0000
   100 H48       0.5618    2.6766    3.4772   H         1 RES1   0.0000
   101 H49       0.7642    1.9136    5.0625   H         1 RES1   0.0000
   102 H50      -0.7517    2.7163    4.6603   H         1 RES1   0.0000
   103 H51      -2.1936    1.1185    5.3672   H         1 RES1   0.0000
   104 H52      -3.8211    0.5208    5.0409   H         1 RES1   0.0000
   105 H53      -4.7533    2.7166    5.1200   H         1 RES1   0.0000
   106 H54      -3.1802    3.4802    4.9056   H         1 RES1   0.0000
   107 H55      -2.5060    2.9825    7.1458   H         1 RES1   0.0000
   108 H56      -3.8279    1.8458    7.3718   H         1 RES1   0.0000
   109 H57      -4.3438    3.9352    8.5215   H         1 RES1   0.0000
   110 H58      -5.4837    3.6446    7.2191   H         1 RES1   0.0000
   111 H59      -4.9237    5.9719    7.2206   H         1 RES1   0.0000
   112 H60      -4.2932    5.2330    5.7615   H         1 RES1   0.0000
   113 H61      -2.6154    6.6803    6.4322   H         1 RES1   0.0000
   114 H62      -2.0054    5.1299    7.0011   H         1 RES1   0.0000
   115 H63      -3.6356    6.8772    8.8491   H         1 RES1   0.0000
   116 H64      -1.9678    7.3200    8.5244   H         1 RES1   0.0000
   117 H65      -2.7818    4.6080    9.6447   H         1 RES1   0.0000
   118 H66      -2.3090    5.9975   10.6086   H         1 RES1   0.0000
   119 H67      -0.0944    6.0336    9.4862   H         1 RES1   0.0000
   120 H68      -0.5427    4.6181    8.5378   H         1 RES1   0.0000
   121 H69      -0.3874    4.7314   11.5854   H         1 RES1   0.0000
   122 H70       0.7971    3.9677   10.5315   H         1 RES1   0.0000
   123 H71      -0.8391    3.3104   10.6538   H         1 RES1   0.0000
   124 H72      -4.9081    1.1158    3.1167   H         1 RES1   0.0000
   125 H73      -3.9193    0.8489    1.6619   H         1 RES1   0.0000
   126 H74      -4.2755    3.5819    2.9609   H         1 RES1   0.0000
   127 H75      -5.3282    2.9654    1.7010   H         1 RES1   0.0000
   128 H76      -3.8375    3.5447    0.0885   H         1 RES1   0.0000
   129 H77      -2.5292    2.6898    0.8891   H         1 RES1   0.0000
   130 H78      -3.5168    5.4879    1.5596   H         1 RES1   0.0000
   131 H79      -2.0907    5.1412    0.5949   H         1 RES1   0.0000
   132 H80      -1.2052    3.8404    2.6331   H         1 RES1   0.0000
   133 H81      -2.4579    4.6650    3.5731   H         1 RES1   0.0000
   134 H82      -1.5021    6.8844    2.7440   H         1 RES1   0.0000
   135 H83      -0.1780    5.9402    2.0569   H         1 RES1   0.0000
   136 H84       0.0539    4.9618    4.4889   H         1 RES1   0.0000
   137 H85      -0.9289    6.3554    4.9633   H         1 RES1   0.0000
   138 H86       0.8390    7.8941    4.1677   H         1 RES1   0.0000
   139 H87       1.6545    6.5524    3.3658   H         1 RES1   0.0000
   140 H88       2.9341    6.8590    5.2828   H         1 RES1   0.0000
   141 H89       1.9254    5.4717    5.6531   H         1 RES1   0.0000
   142 H90       1.5407    8.3485    6.6587   H         1 RES1   0.0000
   143 H91       1.9133    6.9185    7.6100   H         1 RES1   0.0000
   144 H92       0.3298    7.0646    6.8663   H         1 RES1   0.0000
   145 C47      -8.0840   -6.3852   -2.9715   C.3       1 RES1   0.0000
   146 C48      -7.6381   -5.6380   -1.7187   C.3       1 RES1   0.0000
   147 C49      -6.8500   -4.3745   -2.0632   C.3       1 RES1   0.0000
   148 C50      -6.2630   -3.6858   -0.8292   C.3       1 RES1   0.0000
   149 C51      -7.3342   -3.0397    0.0484   C.3       1 RES1   0.0000
   150 C52      -6.7778   -2.1258    1.1427   C.3       1 RES1   0.0000
   151 C53      -6.0034   -2.8627    2.2432   C.3       1 RES1   0.0000
   152 C54      -4.4876   -2.7947    2.0570   C.3       1 RES1   0.0000
   153 C55      -3.7631   -3.5972    3.1366   C.3       1 RES1   0.0000
   154 C56      -2.2412   -3.5790    2.9789   C.3       1 RES1   0.0000
   155 N3       -1.7971   -4.0064    1.6564   N.am      1 RES1   0.0000
   156 C57      -2.1805   -5.3569    1.2494   C.3       1 RES1   0.0000
   157 C58      -1.7609   -6.4929    2.1842   C.3       1 RES1   0.0000
   158 C59      -0.2553   -6.7257    2.2957   C.3       1 RES1   0.0000
   159 C60       0.5024   -7.0339    0.9973   C.3       1 RES1   0.0000
   160 C61      -0.0228   -8.2099    0.1599   C.3       1 RES1   0.0000
   161 C62      -1.0249   -7.8242   -0.9310   C.3       1 RES1   0.0000
   162 C63      -1.1453   -8.8689   -2.0432   C.3       1 RES1   0.0000
   163 C64       0.0298   -8.9116   -3.0209   C.3       1 RES1   0.0000
   164 C65       0.3142   -7.6121   -3.7778   C.3       1 RES1   0.0000
   165 C66      -0.8773   -7.0752   -4.5604   C.3       1 RES1   0.0000
   166 C67      -1.3156   -3.0793    0.8338   C.2       1 RES1   0.0000
   167 O4       -1.1820   -1.8829    1.1686   O.2       1 RES1   0.0000
   168 C68      -0.9343   -3.4770   -0.5932   C.3       1 RES1   0.0000
   169 C69      -2.2147   -3.5317   -1.4304   C.3       1 RES1   0.0000
   170 O5       -0.0412   -2.4770   -1.0824   O.3       1 RES1   0.0000
   171 C70       1.0767   -3.0084   -1.7966   C.3       1 RES1   0.0000
   172 C71       0.6746   -3.5874   -3.1588   C.3       1 RES1   0.0000
   173 C72       2.0497   -1.8364   -1.9831   C.2       1 RES1   0.0000
   174 O6        1.6618   -0.6840   -1.6789   O.2       1 RES1   0.0000
   175 N4        3.2563   -2.0696   -2.4887   N.am      1 RES1   0.0000
   176 C73       3.8346   -3.3692   -2.8285   C.3       1 RES1   0.0000
   177 C74       4.0504   -3.5911   -4.3336   C.3       1 RES1   0.0000
   178 C75       4.2863   -5.0769   -4.6678   C.3       1 RES1   0.0000
   179 C76       5.4729   -5.3473   -5.6030   C.3       1 RES1   0.0000
   180 C77       5.4458   -4.6666   -6.9742   C.3       1 RES1   0.0000
   181 C78       4.3800   -5.1753   -7.9446   C.3       1 RES1   0.0000
   182 C79       4.5689   -6.6151   -8.4433   C.3       1 RES1   0.0000
   183 C80       3.4363   -7.5743   -8.0620   C.3       1 RES1   0.0000
   184 C81       2.0644   -7.1446   -8.5869   C.3       1 RES1   0.0000
   185 C82       1.0049   -8.2164   -8.3622   C.3       1 RES1   0.0000
   186 C83       4.1070   -0.9090   -2.7573   C.3       1 RES1   0.0000
   187 C84       3.8851   -0.3655   -4.1787   C.3       1 RES1   0.0000
   188 C85       3.8870    1.1630   -4.2429   C.3       1 RES1   0.0000
   189 C86       3.1073    1.7453   -5.4322   C.3       1 RES1   0.0000
   190 C87       1.6522    1.2762   -5.5353   C.3       1 RES1   0.0000
   191 C88       0.8382    2.0984   -6.5375   C.3       1 RES1   0.0000
   192 C89      -0.5735    1.5411   -6.7264   C.3       1 RES1   0.0000
   193 C90      -1.3201    2.0911   -7.9408   C.3       1 RES1   0.0000
   194 C91      -2.6475    1.3646   -8.1879   C.3       1 RES1   0.0000
   195 C92      -2.4859    0.0619   -8.9637   C.3       1 RES1   0.0000
   196 H93      -8.6326   -7.2856   -2.7013   H         1 RES1   0.0000
   197 H94      -7.2229   -6.6756   -3.5733   H         1 RES1   0.0000
   198 H95      -8.7329   -5.7580   -3.5811   H         1 RES1   0.0000
   199 H96      -7.0143   -6.2995   -1.1109   H         1 RES1   0.0000
   200 H97      -8.5191   -5.3768   -1.1311   H         1 RES1   0.0000
   201 H98      -7.5034   -3.6773   -2.5932   H         1 RES1   0.0000
   202 H99      -6.0361   -4.6438   -2.7445   H         1 RES1   0.0000
   203 H100     -5.5594   -2.9149   -1.1586   H         1 RES1   0.0000
   204 H101     -5.7093   -4.4279   -0.2486   H         1 RES1   0.0000
   205 H102     -7.9429   -3.8188    0.5092   H         1 RES1   0.0000
   206 H103     -7.9926   -2.4445   -0.5888   H         1 RES1   0.0000
   207 H104     -7.6233   -1.6090    1.5956   H         1 RES1   0.0000
   208 H105     -6.1349   -1.3658    0.6886   H         1 RES1   0.0000
   209 H106     -6.3074   -3.9103    2.2567   H         1 RES1   0.0000
   210 H107     -6.2575   -2.4457    3.2191   H         1 RES1   0.0000
   211 H108     -4.1417   -1.7561    2.0858   H         1 RES1   0.0000
   212 H109     -4.2365   -3.1935    1.0725   H         1 RES1   0.0000
   213 H110     -4.1272   -4.6256    3.1295   H         1 RES1   0.0000
   214 H111     -3.9931   -3.1830    4.1198   H         1 RES1   0.0000
   215 H112     -1.7905   -4.2315    3.7292   H         1 RES1   0.0000
   216 H113     -1.8693   -2.5615    3.1201   H         1 RES1   0.0000
   217 H114     -1.7724   -5.5765    0.2700   H         1 RES1   0.0000
   218 H115     -3.2707   -5.3777    1.1667   H         1 RES1   0.0000
   219 H116     -2.2281   -7.3970    1.7922   H         1 RES1   0.0000
   220 H117     -2.1652   -6.3376    3.1847   H         1 RES1   0.0000
   221 H118     -0.1105   -7.5645    2.9795   H         1 RES1   0.0000
   222 H119      0.2023   -5.8463    2.7591   H         1 RES1   0.0000
   223 H120      1.5291   -7.2593    1.2961   H         1 RES1   0.0000
   224 H121      0.5499   -6.1356    0.3738   H         1 RES1   0.0000
   225 H122     -0.4650   -8.9560    0.8191   H         1 RES1   0.0000
   226 H123      0.8338   -8.6798   -0.3202   H         1 RES1   0.0000
   227 H124     -0.7229   -6.8751   -1.3818   H         1 RES1   0.0000
   228 H125     -2.0136   -7.6883   -0.4904   H         1 RES1   0.0000
   229 H126     -2.0596   -8.6750   -2.6030   H         1 RES1   0.0000
   230 H127     -1.2495   -9.8547   -1.5901   H         1 RES1   0.0000
   231 H128     -0.1779   -9.6938   -3.7517   H         1 RES1   0.0000
   232 H129      0.9389   -9.2009   -2.4912   H         1 RES1   0.0000
   233 H130      1.1266   -7.8096   -4.4790   H         1 RES1   0.0000
   234 H131      0.6733   -6.8461   -3.0857   H         1 RES1   0.0000
   235 H132     -1.2918   -7.8505   -5.1964   H         1 RES1   0.0000
   236 H133     -0.5728   -6.2496   -5.2004   H         1 RES1   0.0000
   237 H134     -1.6667   -6.7210   -3.9019   H         1 RES1   0.0000
   238 H135     -0.4106   -4.4392   -0.5926   H         1 RES1   0.0000
   239 H136     -2.8163   -2.6509   -1.2180   H         1 RES1   0.0000
   240 H137     -2.8055   -4.4147   -1.2122   H         1 RES1   0.0000
   241 H138     -1.9753   -3.5399   -2.4880   H         1 RES1   0.0000
   242 H139      1.5545   -3.7909   -1.1823   H         1 RES1   0.0000
   243 H140      0.3845   -2.7856   -3.8319   H         1 RES1   0.0000
   244 H141     -0.1533   -4.2841   -3.0581   H         1 RES1   0.0000
   245 H142      1.4922   -4.1356   -3.6128   H         1 RES1   0.0000
   246 H143      3.2112   -4.1645   -2.4285   H         1 RES1   0.0000
   247 H144      4.8018   -3.4342   -2.3242   H         1 RES1   0.0000
   248 H145      4.9101   -3.0113   -4.6625   H         1 RES1   0.0000
   249 H146      3.1845   -3.2277   -4.8835   H         1 RES1   0.0000
   250 H147      3.3842   -5.5095   -5.1004   H         1 RES1   0.0000
   251 H148      4.4936   -5.6213   -3.7450   H         1 RES1   0.0000
   252 H149      5.5343   -6.4266   -5.7548   H         1 RES1   0.0000
   253 H150      6.3867   -5.0320   -5.0931   H         1 RES1   0.0000
   254 H151      6.4287   -4.8032   -7.4324   H         1 RES1   0.0000
   255 H152      5.2999   -3.5906   -6.8453   H         1 RES1   0.0000
   256 H153      4.3934   -4.5117   -8.8091   H         1 RES1   0.0000
   257 H154      3.4021   -5.0735   -7.4775   H         1 RES1   0.0000
   258 H155      5.5075   -7.0196   -8.0637   H         1 RES1   0.0000
   259 H156      4.6441   -6.6102   -9.5301   H         1 RES1   0.0000
   260 H157      3.3907   -7.6808   -6.9738   H         1 RES1   0.0000
   261 H158      3.6722   -8.5589   -8.4750   H         1 RES1   0.0000
   262 H159      2.1361   -6.9311   -9.6546   H         1 RES1   0.0000
   263 H160      1.7479   -6.2238   -8.0909   H         1 RES1   0.0000
   264 H161      1.2219   -9.0965   -8.9599   H         1 RES1   0.0000
   265 H162      0.0240   -7.8445   -8.6470   H         1 RES1   0.0000
   266 H163      0.9723   -8.5141   -7.3167   H         1 RES1   0.0000
   267 H164      5.1427   -1.2065   -2.5971   H         1 RES1   0.0000
   268 H165      3.8431   -0.1490   -2.0142   H         1 RES1   0.0000
   269 H166      2.9145   -0.7261   -4.5154   H         1 RES1   0.0000
   270 H167      4.6428   -0.7576   -4.8549   H         1 RES1   0.0000
   271 H168      4.9163    1.5214   -4.3016   H         1 RES1   0.0000
   272 H169      3.4669    1.5465   -3.3137   H         1 RES1   0.0000
   273 H170      3.6176    1.4849   -6.3603   H         1 RES1   0.0000
   274 H171      3.1311    2.8346   -5.3366   H         1 RES1   0.0000
   275 H172      1.1786    1.3018   -4.5498   H         1 RES1   0.0000
   276 H173      1.6298    0.2437   -5.8807   H         1 RES1   0.0000
   277 H174      1.3634    2.0917   -7.4935   H         1 RES1   0.0000
   278 H175      0.7729    3.1353   -6.2067   H         1 RES1   0.0000
   279 H176     -1.1689    1.7253   -5.8286   H         1 RES1   0.0000
   280 H177     -0.5005    0.4629   -6.8323   H         1 RES1   0.0000
   281 H178     -0.6987    1.9860   -8.8297   H         1 RES1   0.0000
   282 H179     -1.5029    3.1584   -7.7988   H         1 RES1   0.0000
   283 H180     -3.3080    2.0175   -8.7571   H         1 RES1   0.0000
   284 H181     -3.1394    1.1666   -7.2308   H         1 RES1   0.0000
   285 H182     -2.1819    0.2759   -9.9841   H         1 RES1   0.0000
   286 H183     -3.4288   -0.4787   -8.9933   H         1 RES1   0.0000
   287 H184     -1.7396   -0.5822   -8.5090   H         1 RES1   0.0000
   288 C93       8.3893    6.3883   -3.7122   C.3       1 RES1   0.0000
   289 C94       7.9542    5.5268   -2.5327   C.3       1 RES1   0.0000
   290 C95       7.2787    4.2297   -2.9789   C.3       1 RES1   0.0000
   291 C96       6.6704    3.4580   -1.8035   C.3       1 RES1   0.0000
   292 C97       7.7114    2.7839   -0.9113   C.3       1 RES1   0.0000
   293 C98       7.1116    2.0673    0.3009   C.3       1 RES1   0.0000
   294 C99       6.3887    3.0069    1.2748   C.3       1 RES1   0.0000
   295 C100      4.8647    2.9964    1.1138   C.3       1 RES1   0.0000
   296 C101      4.2326    4.1043    1.9556   C.3       1 RES1   0.0000
   297 C102      2.7045    4.1506    1.9425   C.3       1 RES1   0.0000
   298 N5        2.0754    4.3233    0.6340   N.am      1 RES1   0.0000
   299 C103      2.5345    5.4358   -0.2112   C.3       1 RES1   0.0000
   300 C104      2.7140    6.8514    0.3584   C.3       1 RES1   0.0000
   301 C105      1.5016    7.7738    0.5981   C.3       1 RES1   0.0000
   302 C106      0.2605    7.6506   -0.2942   C.3       1 RES1   0.0000
   303 C107      0.2797    8.4409   -1.6048   C.3       1 RES1   0.0000
   304 C108      1.4015    8.0795   -2.5716   C.3       1 RES1   0.0000
   305 C109      1.2601    8.7827   -3.9220   C.3       1 RES1   0.0000
   306 C110     -0.0139    8.4483   -4.6973   C.3       1 RES1   0.0000
   307 C111     -0.2576    6.9555   -4.9083   C.3       1 RES1   0.0000
   308 C112      0.8635    6.2653   -5.6721   C.3       1 RES1   0.0000
   309 C113      1.3462    3.3096    0.1708   C.2       1 RES1   0.0000
   310 O7        1.2003    2.2275    0.7846   O.2       1 RES1   0.0000
   311 C114      0.6540    3.4477   -1.1852   C.3       1 RES1   0.0000
   312 C115      1.6983    3.1818   -2.2783   C.3       1 RES1   0.0000
   313 O8       -0.3708    2.4510   -1.2212   O.3       1 RES1   0.0000
   314 C116     -1.5099    2.8196   -2.0025   C.3       1 RES1   0.0000
   315 C117     -1.1452    3.2400   -3.4314   C.3       1 RES1   0.0000
   316 C118     -2.3992    1.5682   -2.0527   C.2       1 RES1   0.0000
   317 O9       -1.9391    0.4956   -1.6001   O.2       1 RES1   0.0000
   318 N6       -3.6033    1.6552   -2.6149   N.am      1 RES1   0.0000
   319 C119     -4.2775    2.8757   -3.0569   C.3       1 RES1   0.0000
   320 C120     -4.6207    2.9230   -4.5592   C.3       1 RES1   0.0000
   321 C121     -4.7999    4.3764   -5.0378   C.3       1 RES1   0.0000
   322 C122     -5.8872    4.5907   -6.0991   C.3       1 RES1   0.0000
   323 C123     -5.6992    3.8816   -7.4430   C.3       1 RES1   0.0000
   324 C124     -4.5882    4.4381   -8.3362   C.3       1 RES1   0.0000
   325 C125     -4.8369    5.8421   -8.9102   C.3       1 RES1   0.0000
   326 C126     -3.7913    6.8868   -8.5055   C.3       1 RES1   0.0000
   327 C127     -2.3615    6.5176   -8.9091   C.3       1 RES1   0.0000
   328 C128     -1.4054    7.6958   -8.7689   C.3       1 RES1   0.0000
   329 C129     -4.3797    0.4269   -2.7892   C.3       1 RES1   0.0000
   330 C130     -4.0764   -0.2565   -4.1344   C.3       1 RES1   0.0000
   331 C131     -3.9642   -1.7725   -3.9901   C.3       1 RES1   0.0000
   332 C132     -3.3497   -2.4831   -5.2013   C.3       1 RES1   0.0000
   333 C133     -1.9420   -1.9741   -5.5114   C.3       1 RES1   0.0000
   334 C134     -1.1363   -2.8790   -6.4481   C.3       1 RES1   0.0000
   335 C135      0.1911   -2.2114   -6.8106   C.3       1 RES1   0.0000
   336 C136      1.1127   -2.9834   -7.7503   C.3       1 RES1   0.0000
   337 C137      2.3460   -2.1523   -8.1161   C.3       1 RES1   0.0000
   338 C138      2.0383   -1.0212   -9.0891   C.3       1 RES1   0.0000
   339 H185      8.8586    7.3030   -3.3551   H         1 RES1   0.0000
   340 H186      7.5321    6.6604   -4.3274   H         1 RES1   0.0000
   341 H187      9.1046    5.8560   -4.3364   H         1 RES1   0.0000
   342 H188      7.2554    6.0982   -1.9150   H         1 RES1   0.0000
   343 H189      8.8283    5.2981   -1.9223   H         1 RES1   0.0000
   344 H190      8.0015    3.6009   -3.5032   H         1 RES1   0.0000
   345 H191      6.4819    4.4757   -3.6898   H         1 RES1   0.0000
   346 H192      5.9851    2.6961   -2.1894   H         1 RES1   0.0000
   347 H193      6.0909    4.1686   -1.2096   H         1 RES1   0.0000
   348 H194      8.4242    3.5321   -0.5638   H         1 RES1   0.0000
   349 H195      8.2670    2.0542   -1.5026   H         1 RES1   0.0000
   350 H196      7.9274    1.5741    0.8282   H         1 RES1   0.0000
   351 H197      6.4212    1.2881   -0.0331   H         1 RES1   0.0000
   352 H198      6.7480    4.0252    1.1249   H         1 RES1   0.0000
   353 H199      6.6359    2.7395    2.3038   H         1 RES1   0.0000
   354 H200      4.4673    2.0229    1.4165   H         1 RES1   0.0000
   355 H201      4.6132    3.1354    0.0594   H         1 RES1   0.0000
   356 H202      4.6416    5.0609    1.6282   H         1 RES1   0.0000
   357 H203      4.5272    3.9692    2.9998   H         1 RES1   0.0000
   358 H204      2.3818    4.9724    2.5820   H         1 RES1   0.0000
   359 H205      2.3123    3.2204    2.3566   H         1 RES1   0.0000
   360 H206      1.8851    5.5236   -1.0753   H         1 RES1   0.0000
   361 H207      3.5286    5.1475   -0.5687   H         1 RES1   0.0000
   362 H208      3.3445    7.3327   -0.3923   H         1 RES1   0.0000
   363 H209      3.2942    6.8225    1.2817   H         1 RES1   0.0000
   364 H210      1.8772    8.7968    0.5228   H         1 RES1   0.0000
   365 H211      1.1774    7.6530    1.6295   H         1 RES1   0.0000
   366 H212     -0.5821    8.0413    0.2826   H         1 RES1   0.0000
   367 H213      0.0398    6.5959   -0.4924   H         1 RES1   0.0000
   368 H214      0.3369    9.5070   -1.3799   H         1 RES1   0.0000
   369 H215     -0.6832    8.2692   -2.0877   H         1 RES1   0.0000
   370 H216      1.4265    6.9976   -2.7226   H         1 RES1   0.0000
   371 H217      2.3553    8.3740   -2.1331   H         1 RES1   0.0000
   372 H218      2.1254    8.5343   -4.5342   H         1 RES1   0.0000
   373 H219      1.2859    9.8591   -3.7565   H         1 RES1   0.0000
   374 H220      0.0445    8.9350   -5.6708   H         1 RES1   0.0000
   375 H221     -0.8762    8.8704   -4.1811   H         1 RES1   0.0000
   376 H222     -1.1866    6.8313   -5.4673   H         1 RES1   0.0000
   377 H223     -0.3995    6.4719   -3.9380   H         1 RES1   0.0000
   378 H224      1.0300    6.7647   -6.6209   H         1 RES1   0.0000
   379 H225      0.6049    5.2283   -5.8794   H         1 RES1   0.0000
   380 H226      1.7944    6.2805   -5.1122   H         1 RES1   0.0000
   381 H227      0.1789    4.4310   -1.2664   H         1 RES1   0.0000
   382 H228      1.7211    2.1039   -2.4379   H         1 RES1   0.0000
   383 H229      2.6882    3.5000   -1.9682   H         1 RES1   0.0000
   384 H230      1.4652    3.6805   -3.2153   H         1 RES1   0.0000
   385 H231     -2.0251    3.6420   -1.4833   H         1 RES1   0.0000
   386 H232     -0.4837    2.4983   -3.8695   H         1 RES1   0.0000
   387 H233     -0.6637    4.2152   -3.4544   H         1 RES1   0.0000
   388 H234     -2.0305    3.3139   -4.0519   H         1 RES1   0.0000
   389 H235     -3.6739    3.7403   -2.7967   H         1 RES1   0.0000
   390 H236     -5.2115    2.9494   -2.4919   H         1 RES1   0.0000
   391 H237     -5.5433    2.3716   -4.7363   H         1 RES1   0.0000
   392 H238     -3.8372    2.4405   -5.1420   H         1 RES1   0.0000
   393 H239     -3.8496    4.7627   -5.4078   H         1 RES1   0.0000
   394 H240     -5.0885    4.9859   -4.1801   H         1 RES1   0.0000
   395 H241     -5.9583    5.6647   -6.2811   H         1 RES1   0.0000
   396 H242     -6.8417    4.2653   -5.6780   H         1 RES1   0.0000
   397 H243     -6.6445    3.9458   -7.9876   H         1 RES1   0.0000
   398 H244     -5.4998    2.8211   -7.2681   H         1 RES1   0.0000
   399 H245     -4.4767    3.7486   -9.1731   H         1 RES1   0.0000
   400 H246     -3.6501    4.4280   -7.7825   H         1 RES1   0.0000
   401 H247     -5.8207    6.2021   -8.6066   H         1 RES1   0.0000
   402 H248     -4.8450    5.7884   -9.9989   H         1 RES1   0.0000
   403 H249     -3.8310    7.0517   -7.4249   H         1 RES1   0.0000
   404 H250     -4.0532    7.8315   -8.9885   H         1 RES1   0.0000
   405 H251     -2.3541    6.1741   -9.9447   H         1 RES1   0.0000
   406 H252     -2.0001    5.6932   -8.2890   H         1 RES1   0.0000
   407 H253     -1.6626    8.4806   -9.4743   H         1 RES1   0.0000
   408 H254     -0.3840    7.3807   -8.9699   H         1 RES1   0.0000
   409 H255     -1.4509    8.1123   -7.7653   H         1 RES1   0.0000
   410 H256     -5.4352    0.6850   -2.7080   H         1 RES1   0.0000
   411 H257     -4.1219   -0.2413   -1.9616   H         1 RES1   0.0000
   412 H258     -3.1181    0.1196   -4.4892   H         1 RES1   0.0000
   413 H259     -4.8380   -0.0024   -4.8698   H         1 RES1   0.0000
   414 H260     -4.9455   -2.2007   -3.7836   H         1 RES1   0.0000
   415 H261     -3.3284   -1.9605   -3.1274   H         1 RES1   0.0000
   416 H262     -3.9835   -2.3559   -6.0799   H         1 RES1   0.0000
   417 H263     -3.3068   -3.5529   -4.9804   H         1 RES1   0.0000
   418 H264     -1.3936   -1.8424   -4.5724   H         1 RES1   0.0000
   419 H265     -2.0183   -0.9967   -5.9847   H         1 RES1   0.0000
   420 H266     -1.7139   -3.0661   -7.3548   H         1 RES1   0.0000
   421 H267     -0.9486   -3.8436   -5.9714   H         1 RES1   0.0000
   422 H268      0.7383   -1.9861   -5.8889   H         1 RES1   0.0000
   423 H269     -0.0336   -1.2604   -7.2884   H         1 RES1   0.0000
   424 H270      0.5803   -3.2441   -8.6646   H         1 RES1   0.0000
   425 H271      1.4202   -3.9191   -7.2780   H         1 RES1   0.0000
   426 H272      3.0893   -2.8046   -8.5704   H         1 RES1   0.0000
   427 H273      2.7921   -1.7403   -7.2064   H         1 RES1   0.0000
   428 H274      1.7035   -1.4310  -10.0370   H         1 RES1   0.0000
   429 H275      2.9302   -0.4263   -9.2680   H         1 RES1   0.0000
   430 H276      1.2655   -0.3610   -8.7062   H         1 RES1   0.0000
@<TRIPOS>BOND
     1     1    24    1
     2     1    27    1
     3     1    31    1
     4     1   167    1
     5     1   170    1
     6     1   174    1
     7     1   310    1
     8     1   313    1
     9     1   317    1
    10     2     3    1
    11     2    53    1
    12     2    54    1
    13     2    55    1
    14     3     4    1
    15     3    56    1
    16     3    57    1
    17     4     5    1
    18     4    58    1
    19     4    59    1
    20     5     6    1
    21     5    60    1
    22     5    61    1
    23     6     7    1
    24     6    62    1
    25     6    63    1
    26     7     8    1
    27     7    64    1
    28     7    65    1
    29     8     9    1
    30     8    66    1
    31     8    67    1
    32     9    10    1
    33     9    68    1
    34     9    69    1
    35    10    11    1
    36    10    70    1
    37    10    71    1
    38    11    12    1
    39    11    72    1
    40    11    73    1
    41    12    13    1
    42    12    23    1
    43    13    14    1
    44    13    74    1
    45    13    75    1
    46    14    15    1
    47    14    76    1
    48    14    77    1
    49    15    16    1
    50    15    78    1
    51    15    79    1
    52    16    17    1
    53    16    80    1
    54    16    81    1
    55    17    18    1
    56    17    82    1
    57    17    83    1
    58    18    19    1
    59    18    84    1
    60    18    85    1
    61    19    20    1
    62    19    86    1
    63    19    87    1
    64    20    21    1
    65    20    88    1
    66    20    89    1
    67    21    22    1
    68    21    90    1
    69    21    91    1
    70    22    92    1
    71    22    93    1
    72    22    94    1
    73    23    24    2
    74    23    25    1
    75    25    26    1
    76    25    27    1
    77    25    95    1
    78    26    96    1
    79    26    97    1
    80    26    98    1
    81    27    28    1
    82    28    29    1
    83    28    30    1
    84    28    99    1
    85    29   100    1
    86    29   101    1
    87    29   102    1
    88    30    31    2
    89    30    32    1
    90    32    33    1
    91    32    43    1
    92    33    34    1
    93    33   103    1
    94    33   104    1
    95    34    35    1
    96    34   105    1
    97    34   106    1
    98    35    36    1
    99    35   107    1
   100    35   108    1
   101    36    37    1
   102    36   109    1
   103    36   110    1
   104    37    38    1
   105    37   111    1
   106    37   112    1
   107    38    39    1
   108    38   113    1
   109    38   114    1
   110    39    40    1
   111    39   115    1
   112    39   116    1
   113    40    41    1
   114    40   117    1
   115    40   118    1
   116    41    42    1
   117    41   119    1
   118    41   120    1
   119    42   121    1
   120    42   122    1
   121    42   123    1
   122    43    44    1
   123    43   124    1
   124    43   125    1
   125    44    45    1
   126    44   126    1
   127    44   127    1
   128    45    46    1
   129    45   128    1
   130    45   129    1
   131    46    47    1
   132    46   130    1
   133    46   131    1
   134    47    48    1
   135    47   132    1
   136    47   133    1
   137    48    49    1
   138    48   134    1
   139    48   135    1
   140    49    50    1
   141    49   136    1
   142    49   137    1
   143    50    51    1
   144    50   138    1
   145    50   139    1
   146    51    52    1
   147    51   140    1
   148    51   141    1
   149    52   142    1
   150    52   143    1
   151    52   144    1
   152   145   146    1
   153   145   196    1
   154   145   197    1
   155   145   198    1
   156   146   147    1
   157   146   199    1
   158   146   200    1
   159   147   148    1
   160   147   201    1
   161   147   202    1
   162   148   149    1
   163   148   203    1
   164   148   204    1
   165   149   150    1
   166   149   205    1
   167   149   206    1
   168   150   151    1
   169   150   207    1
   170   150   208    1
   171   151   152    1
   172   151   209    1
   173   151   210    1
   174   152   153    1
   175   152   211    1
   176   152   212    1
   177   153   154    1
   178   153   213    1
   179   153   214    1
   180   154   155    1
   181   154   215    1
   182   154   216    1
   183   155   156    1
   184   155   166    1
   185   156   157    1
   186   156   217    1
   187   156   218    1
   188   157   158    1
   189   157   219    1
   190   157   220    1
   191   158   159    1
   192   158   221    1
   193   158   222    1
   194   159   160    1
   195   159   223    1
   196   159   224    1
   197   160   161    1
   198   160   225    1
   199   160   226    1
   200   161   162    1
   201   161   227    1
   202   161   228    1
   203   162   163    1
   204   162   229    1
   205   162   230    1
   206   163   164    1
   207   163   231    1
   208   163   232    1
   209   164   165    1
   210   164   233    1
   211   164   234    1
   212   165   235    1
   213   165   236    1
   214   165   237    1
   215   166   167    2
   216   166   168    1
   217   168   169    1
   218   168   170    1
   219   168   238    1
   220   169   239    1
   221   169   240    1
   222   169   241    1
   223   170   171    1
   224   171   172    1
   225   171   173    1
   226   171   242    1
   227   172   243    1
   228   172   244    1
   229   172   245    1
   230   173   174    2
   231   173   175    1
   232   175   176    1
   233   175   186    1
   234   176   177    1
   235   176   246    1
   236   176   247    1
   237   177   178    1
   238   177   248    1
   239   177   249    1
   240   178   179    1
   241   178   250    1
   242   178   251    1
   243   179   180    1
   244   179   252    1
   245   179   253    1
   246   180   181    1
   247   180   254    1
   248   180   255    1
   249   181   182    1
   250   181   256    1
   251   181   257    1
   252   182   183    1
   253   182   258    1
   254   182   259    1
   255   183   184    1
   256   183   260    1
   257   183   261    1
   258   184   185    1
   259   184   262    1
   260   184   263    1
   261   185   264    1
   262   185   265    1
   263   185   266    1
   264   186   187    1
   265   186   267    1
   266   186   268    1
   267   187   188    1
   268   187   269    1
   269   187   270    1
   270   188   189    1
   271   188   271    1
   272   188   272    1
   273   189   190    1
   274   189   273    1
   275   189   274    1
   276   190   191    1
   277   190   275    1
   278   190   276    1
   279   191   192    1
   280   191   277    1
   281   191   278    1
   282   192   193    1
   283   192   279    1
   284   192   280    1
   285   193   194    1
   286   193   281    1
   287   193   282    1
   288   194   195    1
   289   194   283    1
   290   194   284    1
   291   195   285    1
   292   195   286    1
   293   195   287    1
   294   288   289    1
   295   288   339    1
   296   288   340    1
   297   288   341    1
   298   289   290    1
   299   289   342    1
   300   289   343    1
   301   290   291    1
   302   290   344    1
   303   290   345    1
   304   291   292    1
   305   291   346    1
   306   291   347    1
   307   292   293    1
   308   292   348    1
   309   292   349    1
   310   293   294    1
   311   293   350    1
   312   293   351    1
   313   294   295    1
   314   294   352    1
   315   294   353    1
   316   295   296    1
   317   295   354    1
   318   295   355    1
   319   296   297    1
   320   296   356    1
   321   296   357    1
   322   297   298    1
   323   297   358    1
   324   297   359    1
   325   298   299    1
   326   298   309    1
   327   299   300    1
   328   299   360    1
   329   299   361    1
   330   300   301    1
   331   300   362    1
   332   300   363    1
   333   301   302    1
   334   301   364    1
   335   301   365    1
   336   302   303    1
   337   302   366    1
   338   302   367    1
   339   303   304    1
   340   303   368    1
   341   303   369    1
   342   304   305    1
   343   304   370    1
   344   304   371    1
   345   305   306    1
   346   305   372    1
   347   305   373    1
   348   306   307    1
   349   306   374    1
   350   306   375    1
   351   307   308    1
   352   307   376    1
   353   307   377    1
   354   308   378    1
   355   308   379    1
   356   308   380    1
   357   309   310    2
   358   309   311    1
   359   311   312    1
   360   311   313    1
   361   311   381    1
   362   312   382    1
   363   312   383    1
   364   312   384    1
   365   313   314    1
   366   314   315    1
   367   314   316    1
   368   314   385    1
   369   315   386    1
   370   315   387    1
   371   315   388    1
   372   316   317    2
   373   316   318    1
   374   318   319    1
   375   318   329    1
   376   319   320    1
   377   319   389    1
   378   319   390    1
   379   320   321    1
   380   320   391    1
   381   320   392    1
   382   321   322    1
   383   321   393    1
   384   321   394    1
   385   322   323    1
   386   322   395    1
   387   322   396    1
   388   323   324    1
   389   323   397    1
   390   323   398    1
   391   324   325    1
   392   324   399    1
   393   324   400    1
   394   325   326    1
   395   325   401    1
   396   325   402    1
   397   326   327    1
   398   326   403    1
   399   326   404    1
   400   327   328    1
   401   327   405    1
   402   327   406    1
   403   328   407    1
   404   328   408    1
   405   328   409    1
   406   329   330    1
   407   329   410    1
   408   329   411    1
   409   330   331    1
   410   330   412    1
   411   330   413    1
   412   331   332    1
   413   331   414    1
   414   331   415    1
   415   332   333    1
   416   332   416    1
   417   332   417    1
   418   333   334    1
   419   333   418    1
   420   333   419    1
   421   334   335    1
   422   334   420    1
   423   334   421    1
   424   335   336    1
   425   335   422    1
   426   335   423    1
   427   336   337    1
   428   336   424    1
   429   336   425    1
   430   337   338    1
   431   337   426    1
   432   337   427    1
   433   338   428    1
   434   338   429    1
   435   338   430    1
@<TRIPOS>SUBSTRUCTURE
     1 RES1      430 GROUP             0 ****  ****    0  
