@<TRIPOS>MOLECULE
am_c3_9H2O_c0_0_nunpairedes_0_charge_3 Charge: 3 Unpaired_Electrons: 0 XTB_Unpaired_Electrons: 0 XTB_Charge: 3
   358   363     1     0     0
SMALL
NoCharges
****
Generated from Architector

@<TRIPOS>ATOM
     1 La1      -0.0446    0.0264   -0.3995   La        1 RES1   0.0000
     2 C1       -9.6362    4.9981   -3.8081   C.3       1 RES1   0.0000
     3 C2       -8.3621    4.1677   -3.7548   C.3       1 RES1   0.0000
     4 C3       -8.5243    2.8607   -4.5303   C.3       1 RES1   0.0000
     5 C4       -7.2221    2.0607   -4.5492   C.3       1 RES1   0.0000
     6 C5       -7.3910    0.6429   -5.0940   C.3       1 RES1   0.0000
     7 C6       -6.1227   -0.2164   -4.9838   C.3       1 RES1   0.0000
     8 C7       -5.5821   -0.3099   -3.5476   C.3       1 RES1   0.0000
     9 C8       -4.9116   -1.6531   -3.1905   C.3       1 RES1   0.0000
    10 N1       -3.4674   -1.5675   -3.0450   N.am      1 RES1   0.0000
    11 C9       -2.7087   -1.6255   -4.2927   C.3       1 RES1   0.0000
    12 C10      -2.6563   -3.0006   -4.9576   C.3       1 RES1   0.0000
    13 C11      -1.9431   -4.0781   -4.1319   C.3       1 RES1   0.0000
    14 C12      -2.8594   -4.8503   -3.1694   C.3       1 RES1   0.0000
    15 C13      -2.5373   -6.3467   -3.1294   C.3       1 RES1   0.0000
    16 C14      -1.1831   -6.7028   -2.5044   C.3       1 RES1   0.0000
    17 C15      -1.2843   -7.0475   -1.0174   C.3       1 RES1   0.0000
    18 C16       0.0811   -7.1640   -0.3476   C.3       1 RES1   0.0000
    19 C17      -2.8459   -1.3191   -1.9055   C.2       1 RES1   0.0000
    20 O1       -1.6012   -1.2209   -1.8223   O.2       1 RES1   0.0000
    21 C18      -3.6588   -1.1444   -0.6041   C.3       1 RES1   0.0000
    22 C19      -4.1048   -2.4942   -0.0116   C.3       1 RES1   0.0000
    23 O2       -2.7503   -0.4469    0.2512   O.3       1 RES1   0.0000
    24 C20      -3.3201    0.2502    1.3591   C.3       1 RES1   0.0000
    25 C21      -3.1195   -0.5532    2.6519   C.3       1 RES1   0.0000
    26 C22      -2.5403    1.5689    1.4934   C.2       1 RES1   0.0000
    27 O3       -1.4320    1.6569    0.9156   O.2       1 RES1   0.0000
    28 N2       -3.0256    2.5365    2.2678   N.am      1 RES1   0.0000
    29 C23      -2.1698    3.6800    2.5842   C.3       1 RES1   0.0000
    30 C24      -2.4227    4.9326    1.7436   C.3       1 RES1   0.0000
    31 C25      -1.2259    5.8856    1.8053   C.3       1 RES1   0.0000
    32 C26      -1.1834    6.8321    0.6036   C.3       1 RES1   0.0000
    33 C27       0.2015    7.4647    0.4124   C.3       1 RES1   0.0000
    34 C28       0.5432    7.6409   -1.0708   C.3       1 RES1   0.0000
    35 C29       1.9963    8.0661   -1.3086   C.3       1 RES1   0.0000
    36 C30       2.9760    6.9001   -1.2274   C.3       1 RES1   0.0000
    37 C31      -4.2723    2.4620    3.0243   C.3       1 RES1   0.0000
    38 C32      -5.2506    3.6208    2.7823   C.3       1 RES1   0.0000
    39 C33      -6.6681    3.3184    3.3014   C.3       1 RES1   0.0000
    40 C34      -7.6363    2.6842    2.2934   C.3       1 RES1   0.0000
    41 C35      -7.4598    1.1843    2.0626   C.3       1 RES1   0.0000
    42 C36      -8.3864    0.6537    0.9670   C.3       1 RES1   0.0000
    43 C37      -8.2148   -0.8531    0.7766   C.3       1 RES1   0.0000
    44 C38      -9.0317   -1.4100   -0.3828   C.3       1 RES1   0.0000
    45 H1       -9.5257    5.9201   -3.2446   H         1 RES1   0.0000
    46 H2      -10.4676    4.4376   -3.3884   H         1 RES1   0.0000
    47 H3       -9.8776    5.2468   -4.8384   H         1 RES1   0.0000
    48 H4       -8.1142    3.9371   -2.7130   H         1 RES1   0.0000
    49 H5       -7.5323    4.7374   -4.1809   H         1 RES1   0.0000
    50 H6       -8.8414    3.0846   -5.5507   H         1 RES1   0.0000
    51 H7       -9.3119    2.2692   -4.0567   H         1 RES1   0.0000
    52 H8       -6.8552    2.0146   -3.5218   H         1 RES1   0.0000
    53 H9       -6.4875    2.6005   -5.1528   H         1 RES1   0.0000
    54 H10      -7.6761    0.6968   -6.1470   H         1 RES1   0.0000
    55 H11      -8.2070    0.1487   -4.5607   H         1 RES1   0.0000
    56 H12      -5.3657    0.1919   -5.6559   H         1 RES1   0.0000
    57 H13      -6.3773   -1.2178   -5.3388   H         1 RES1   0.0000
    58 H14      -6.4219   -0.1795   -2.8680   H         1 RES1   0.0000
    59 H15      -4.8699    0.4957   -3.3743   H         1 RES1   0.0000
    60 H16      -5.1107   -2.3802   -3.9732   H         1 RES1   0.0000
    61 H17      -5.3316   -2.0520   -2.2684   H         1 RES1   0.0000
    62 H18      -1.6951   -1.2897   -4.0695   H         1 RES1   0.0000
    63 H19      -3.1605   -0.9128   -4.9873   H         1 RES1   0.0000
    64 H20      -2.1179   -2.8510   -5.8951   H         1 RES1   0.0000
    65 H21      -3.6646   -3.3275   -5.2210   H         1 RES1   0.0000
    66 H22      -1.1210   -3.6104   -3.5833   H         1 RES1   0.0000
    67 H23      -1.5024   -4.7937   -4.8268   H         1 RES1   0.0000
    68 H24      -3.8931   -4.7479   -3.5050   H         1 RES1   0.0000
    69 H25      -2.7994   -4.4293   -2.1641   H         1 RES1   0.0000
    70 H26      -2.5638   -6.7206   -4.1518   H         1 RES1   0.0000
    71 H27      -3.3261   -6.8610   -2.5798   H         1 RES1   0.0000
    72 H28      -0.4759   -5.8828   -2.6501   H         1 RES1   0.0000
    73 H29      -0.7727   -7.5682   -3.0232   H         1 RES1   0.0000
    74 H30      -1.8049   -7.9998   -0.9107   H         1 RES1   0.0000
    75 H31      -1.8906   -6.2965   -0.5036   H         1 RES1   0.0000
    76 H32       0.6617   -7.9593   -0.8049   H         1 RES1   0.0000
    77 H33      -0.0327   -7.3979    0.7076   H         1 RES1   0.0000
    78 H34       0.6456   -6.2387   -0.4374   H         1 RES1   0.0000
    79 H35      -4.5371   -0.5127   -0.7833   H         1 RES1   0.0000
    80 H36      -3.3100   -3.2273   -0.0722   H         1 RES1   0.0000
    81 H37      -4.9625   -2.9076   -0.5290   H         1 RES1   0.0000
    82 H38      -4.3852   -2.3681    1.0281   H         1 RES1   0.0000
    83 H39      -4.3762    0.4410    1.1552   H         1 RES1   0.0000
    84 H40      -2.0677   -0.8208    2.6812   H         1 RES1   0.0000
    85 H41      -3.7161   -1.4621    2.6716   H         1 RES1   0.0000
    86 H42      -3.3661    0.0168    3.5417   H         1 RES1   0.0000
    87 H43      -1.1383    3.3553    2.4214   H         1 RES1   0.0000
    88 H44      -2.2952    3.9101    3.6447   H         1 RES1   0.0000
    89 H45      -3.3086    5.4549    2.0879   H         1 RES1   0.0000
    90 H46      -2.5839    4.6327    0.7083   H         1 RES1   0.0000
    91 H47      -0.3130    5.2883    1.8204   H         1 RES1   0.0000
    92 H48      -1.2407    6.4630    2.7283   H         1 RES1   0.0000
    93 H49      -1.9543    7.5932    0.7175   H         1 RES1   0.0000
    94 H50      -1.4292    6.2630   -0.2974   H         1 RES1   0.0000
    95 H51       0.9531    6.8254    0.8850   H         1 RES1   0.0000
    96 H52       0.2561    8.4344    0.9034   H         1 RES1   0.0000
    97 H53      -0.1382    8.3781   -1.5007   H         1 RES1   0.0000
    98 H54       0.3655    6.7031   -1.6065   H         1 RES1   0.0000
    99 H55       2.2778    8.8280   -0.5816   H         1 RES1   0.0000
   100 H56       2.0737    8.5157   -2.3003   H         1 RES1   0.0000
   101 H57       3.0021    6.4736   -0.2297   H         1 RES1   0.0000
   102 H58       3.9779    7.2446   -1.4611   H         1 RES1   0.0000
   103 H59       2.7123    6.1163   -1.9356   H         1 RES1   0.0000
   104 H60      -4.0003    2.4567    4.0856   H         1 RES1   0.0000
   105 H61      -4.7876    1.5327    2.8095   H         1 RES1   0.0000
   106 H62      -5.3031    3.8605    1.7208   H         1 RES1   0.0000
   107 H63      -4.8868    4.4988    3.3140   H         1 RES1   0.0000
   108 H64      -7.1093    4.2727    3.5887   H         1 RES1   0.0000
   109 H65      -6.6160    2.7077    4.2054   H         1 RES1   0.0000
   110 H66      -7.5564    3.2171    1.3432   H         1 RES1   0.0000
   111 H67      -8.6547    2.8466    2.6554   H         1 RES1   0.0000
   112 H68      -7.6620    0.6575    2.9988   H         1 RES1   0.0000
   113 H69      -6.4279    0.9679    1.7686   H         1 RES1   0.0000
   114 H70      -8.1657    1.1711    0.0284   H         1 RES1   0.0000
   115 H71      -9.4221    0.8706    1.2314   H         1 RES1   0.0000
   116 H72      -8.5153   -1.3670    1.6898   H         1 RES1   0.0000
   117 H73      -7.1555   -1.0789    0.6096   H         1 RES1   0.0000
   118 H74     -10.0901   -1.2122   -0.2404   H         1 RES1   0.0000
   119 H75      -8.9016   -2.4880   -0.4559   H         1 RES1   0.0000
   120 H76      -8.7329   -0.9626   -1.3292   H         1 RES1   0.0000
   121 C39       9.0812    4.0477   -2.6936   C.3       1 RES1   0.0000
   122 C40       7.5810    4.3164   -2.6621   C.3       1 RES1   0.0000
   123 C41       6.9500    4.1033   -4.0387   C.3       1 RES1   0.0000
   124 C42       5.4187    4.1913   -4.0190   C.3       1 RES1   0.0000
   125 C43       4.8303    3.7610   -5.3699   C.3       1 RES1   0.0000
   126 C44       3.4175    3.1619   -5.3330   C.3       1 RES1   0.0000
   127 C45       2.2696    4.1779   -5.3190   C.3       1 RES1   0.0000
   128 C46       1.4500    4.1372   -4.0290   C.3       1 RES1   0.0000
   129 N3        0.7818    2.8696   -3.7245   N.am      1 RES1   0.0000
   130 C47       0.1905    2.1245   -4.8371   C.3       1 RES1   0.0000
   131 C48      -0.9099    2.8259   -5.6341   C.3       1 RES1   0.0000
   132 C49      -2.2147    3.0564   -4.8708   C.3       1 RES1   0.0000
   133 C50      -2.1376    4.2080   -3.8652   C.3       1 RES1   0.0000
   134 C51      -3.4963    4.8263   -3.5366   C.3       1 RES1   0.0000
   135 C52      -4.5170    3.8528   -2.9554   C.3       1 RES1   0.0000
   136 C53      -4.1345    3.2604   -1.5994   C.3       1 RES1   0.0000
   137 C54      -5.3292    2.5810   -0.9368   C.3       1 RES1   0.0000
   138 C55       0.5802    2.4145   -2.4940   C.2       1 RES1   0.0000
   139 O4       -0.1918    1.4599   -2.2480   O.2       1 RES1   0.0000
   140 C56       1.2396    3.0815   -1.2800   C.3       1 RES1   0.0000
   141 C57       0.2126    4.0698   -0.7220   C.3       1 RES1   0.0000
   142 O5        1.4978    2.0114   -0.3658   O.3       1 RES1   0.0000
   143 C58       2.4432    2.2574    0.6759   C.3       1 RES1   0.0000
   144 C59       1.7869    2.9911    1.8497   C.3       1 RES1   0.0000
   145 C60       2.8813    0.8535    1.1478   C.2       1 RES1   0.0000
   146 O6        2.0721   -0.0657    0.9441   O.2       1 RES1   0.0000
   147 N4        4.0490    0.6332    1.7554   N.am      1 RES1   0.0000
   148 C61       4.3054   -0.7272    2.2833   C.3       1 RES1   0.0000
   149 C62       4.2823   -1.8847    1.2649   C.3       1 RES1   0.0000
   150 C63       4.8693   -3.1818    1.8564   C.3       1 RES1   0.0000
   151 C64       5.4818   -4.2217    0.8948   C.3       1 RES1   0.0000
   152 C65       4.6785   -5.0856   -0.0902   C.3       1 RES1   0.0000
   153 C66       5.6895   -5.8130   -0.9988   C.3       1 RES1   0.0000
   154 C67       5.1581   -6.5312   -2.2467   C.3       1 RES1   0.0000
   155 C68       4.5706   -5.6120   -3.3141   C.3       1 RES1   0.0000
   156 C69       4.8650    1.7215    2.3041   C.3       1 RES1   0.0000
   157 C70       5.6693    2.5444    1.3015   C.3       1 RES1   0.0000
   158 C71       6.5044    3.5874    2.0653   C.3       1 RES1   0.0000
   159 C72       6.5115    4.9840    1.4262   C.3       1 RES1   0.0000
   160 C73       5.4342    5.9246    1.9673   C.3       1 RES1   0.0000
   161 C74       5.6086    7.3407    1.4184   C.3       1 RES1   0.0000
   162 C75       4.4936    8.2780    1.8768   C.3       1 RES1   0.0000
   163 C76       4.6613    9.7019    1.3627   C.3       1 RES1   0.0000
   164 H77       9.5233    4.2020   -1.7131   H         1 RES1   0.0000
   165 H78       9.5698    4.7184   -3.3940   H         1 RES1   0.0000
   166 H79       9.2814    3.0254   -3.0073   H         1 RES1   0.0000
   167 H80       7.4068    5.3438   -2.3361   H         1 RES1   0.0000
   168 H81       7.1041    3.6495   -1.9345   H         1 RES1   0.0000
   169 H82       7.2528    3.1196   -4.4125   H         1 RES1   0.0000
   170 H83       7.3490    4.8477   -4.7290   H         1 RES1   0.0000
   171 H84       5.1235    5.2142   -3.7782   H         1 RES1   0.0000
   172 H85       5.0459    3.5448   -3.2147   H         1 RES1   0.0000
   173 H86       5.4945    3.0055   -5.7965   H         1 RES1   0.0000
   174 H87       4.8449    4.6071   -6.0551   H         1 RES1   0.0000
   175 H88       3.3212    2.5143   -4.4596   H         1 RES1   0.0000
   176 H89       3.3176    2.5296   -6.2170   H         1 RES1   0.0000
   177 H90       1.6341    4.0327   -6.1895   H         1 RES1   0.0000
   178 H91       2.6732    5.1872   -5.3975   H         1 RES1   0.0000
   179 H92       0.6891    4.9230   -4.0640   H         1 RES1   0.0000
   180 H93       2.1271    4.3815   -3.2145   H         1 RES1   0.0000
   181 H94      -0.2111    1.2010   -4.4163   H         1 RES1   0.0000
   182 H95       1.0061    1.8692   -5.5141   H         1 RES1   0.0000
   183 H96      -1.1180    2.1782   -6.4892   H         1 RES1   0.0000
   184 H97      -0.5501    3.7750   -6.0307   H         1 RES1   0.0000
   185 H98      -2.4977    2.1348   -4.3547   H         1 RES1   0.0000
   186 H99      -2.9921    3.2862   -5.6021   H         1 RES1   0.0000
   187 H100     -1.5239    5.0074   -4.2878   H         1 RES1   0.0000
   188 H101     -1.6711    3.8552   -2.9442   H         1 RES1   0.0000
   189 H102     -3.9216    5.2487   -4.4476   H         1 RES1   0.0000
   190 H103     -3.3472    5.6536   -2.8374   H         1 RES1   0.0000
   191 H104     -4.6987    3.0495   -3.6682   H         1 RES1   0.0000
   192 H105     -5.4565    4.3921   -2.8325   H         1 RES1   0.0000
   193 H106     -3.7984    4.0666   -0.9423   H         1 RES1   0.0000
   194 H107     -3.3051    2.5500   -1.7046   H         1 RES1   0.0000
   195 H108     -6.1433    3.2958   -0.8311   H         1 RES1   0.0000
   196 H109     -5.0648    2.2180    0.0540   H         1 RES1   0.0000
   197 H110     -5.6864    1.7433   -1.5321   H         1 RES1   0.0000
   198 H111      2.1833    3.5892   -1.5154   H         1 RES1   0.0000
   199 H112     -0.3403    4.5575   -1.5240   H         1 RES1   0.0000
   200 H113      0.6983    4.8357   -0.1322   H         1 RES1   0.0000
   201 H114     -0.5024    3.5111   -0.1187   H         1 RES1   0.0000
   202 H115      3.2831    2.8330    0.2763   H         1 RES1   0.0000
   203 H116      0.7553    2.6455    1.9433   H         1 RES1   0.0000
   204 H117      1.7983    4.0609    1.6953   H         1 RES1   0.0000
   205 H118      2.3015    2.7795    2.7834   H         1 RES1   0.0000
   206 H119      3.5564   -0.9262    3.0540   H         1 RES1   0.0000
   207 H120      5.2873   -0.7035    2.7558   H         1 RES1   0.0000
   208 H121      4.8672   -1.5876    0.4041   H         1 RES1   0.0000
   209 H122      3.2537   -2.0322    0.9524   H         1 RES1   0.0000
   210 H123      4.1386   -3.6479    2.5109   H         1 RES1   0.0000
   211 H124      5.7072   -2.8830    2.4899   H         1 RES1   0.0000
   212 H125      6.0274   -4.9277    1.5247   H         1 RES1   0.0000
   213 H126      6.2229   -3.6927    0.3002   H         1 RES1   0.0000
   214 H127      4.0216   -4.4880   -0.7205   H         1 RES1   0.0000
   215 H128      4.0649   -5.8186    0.4359   H         1 RES1   0.0000
   216 H129      6.2246   -6.5468   -0.3917   H         1 RES1   0.0000
   217 H130      6.4332   -5.0831   -1.3374   H         1 RES1   0.0000
   218 H131      4.4236   -7.2920   -1.9802   H         1 RES1   0.0000
   219 H132      6.0117   -7.0534   -2.6859   H         1 RES1   0.0000
   220 H133      3.5953   -5.2251   -3.0284   H         1 RES1   0.0000
   221 H134      4.4450   -6.1592   -4.2446   H         1 RES1   0.0000
   222 H135      5.2348   -4.7740   -3.5106   H         1 RES1   0.0000
   223 H136      5.5675    1.2812    3.0131   H         1 RES1   0.0000
   224 H137      4.2169    2.3986    2.8660   H         1 RES1   0.0000
   225 H138      5.0101    3.0578    0.6059   H         1 RES1   0.0000
   226 H139      6.3203    1.8949    0.7166   H         1 RES1   0.0000
   227 H140      7.5285    3.2249    2.1431   H         1 RES1   0.0000
   228 H141      6.1179    3.6832    3.0826   H         1 RES1   0.0000
   229 H142      6.4175    4.9018    0.3408   H         1 RES1   0.0000
   230 H143      7.4755    5.4509    1.6273   H         1 RES1   0.0000
   231 H144      5.5057    5.9632    3.0545   H         1 RES1   0.0000
   232 H145      4.4356    5.5539    1.7201   H         1 RES1   0.0000
   233 H146      5.6397    7.3061    0.3272   H         1 RES1   0.0000
   234 H147      6.5696    7.7305    1.7559   H         1 RES1   0.0000
   235 H148      4.4714    8.2889    2.9678   H         1 RES1   0.0000
   236 H149      3.5347    7.8876    1.5313   H         1 RES1   0.0000
   237 H150      5.5907   10.1346    1.7195   H         1 RES1   0.0000
   238 H151      3.8400   10.3216    1.7142   H         1 RES1   0.0000
   239 H152      4.6665    9.7296    0.2758   H         1 RES1   0.0000
   240 C77       8.4936   -3.9845    4.6131   C.3       1 RES1   0.0000
   241 C78       8.1780   -2.6754    3.8954   C.3       1 RES1   0.0000
   242 C79       8.6354   -2.7033    2.4350   C.3       1 RES1   0.0000
   243 C80       8.3097   -1.4148    1.6604   C.3       1 RES1   0.0000
   244 C81       8.0804   -1.6955    0.1705   C.3       1 RES1   0.0000
   245 C82       7.1205   -0.7375   -0.5465   C.3       1 RES1   0.0000
   246 C83       6.6543   -1.3507   -1.8842   C.3       1 RES1   0.0000
   247 C84       5.2065   -1.8580   -2.0857   C.3       1 RES1   0.0000
   248 N5        4.1083   -0.8826   -2.0697   N.am      1 RES1   0.0000
   249 C85       4.4347    0.4553   -2.5640   C.3       1 RES1   0.0000
   250 C86       5.0614    0.5339   -3.9581   C.3       1 RES1   0.0000
   251 C87       4.2310   -0.0162   -5.1193   C.3       1 RES1   0.0000
   252 C88       4.4965   -1.4855   -5.4527   C.3       1 RES1   0.0000
   253 C89       4.3338   -1.7994   -6.9406   C.3       1 RES1   0.0000
   254 C90       2.9419   -1.5391   -7.5174   C.3       1 RES1   0.0000
   255 C91       1.8400   -2.4291   -6.9241   C.3       1 RES1   0.0000
   256 C92       0.9173   -1.6779   -5.9689   C.3       1 RES1   0.0000
   257 C93       2.8286   -1.1053   -1.7605   C.2       1 RES1   0.0000
   258 O7        1.9732   -0.1994   -1.8509   O.2       1 RES1   0.0000
   259 C94       2.2430   -2.4714   -1.3594   C.3       1 RES1   0.0000
   260 C95       1.6822   -3.0636   -2.6544   C.3       1 RES1   0.0000
   261 O8        1.1840   -2.1516   -0.4341   O.3       1 RES1   0.0000
   262 C96       0.7069   -3.1209    0.5090   C.3       1 RES1   0.0000
   263 C97      -0.6257   -3.6698   -0.0002   C.3       1 RES1   0.0000
   264 C98       0.3710   -2.3329    1.8088   C.2       1 RES1   0.0000
   265 O9       -0.1085   -1.1912    1.6661   O.2       1 RES1   0.0000
   266 N6        0.5116   -2.8845    3.0125   N.am      1 RES1   0.0000
   267 C99       0.2665   -2.0585    4.2084   C.3       1 RES1   0.0000
   268 C100      1.3814   -1.0594    4.5437   C.3       1 RES1   0.0000
   269 C101      1.1022   -0.3671    5.8833   C.3       1 RES1   0.0000
   270 C102      2.1510    0.6608    6.3211   C.3       1 RES1   0.0000
   271 C103      2.0198    2.0526    5.6986   C.3       1 RES1   0.0000
   272 C104      2.6771    3.1178    6.5845   C.3       1 RES1   0.0000
   273 C105      2.3317    4.5694    6.2352   C.3       1 RES1   0.0000
   274 C106      3.0653    5.1057    5.0111   C.3       1 RES1   0.0000
   275 C107      0.6403   -4.3246    3.2537   C.3       1 RES1   0.0000
   276 C108      2.0718   -4.8459    3.3513   C.3       1 RES1   0.0000
   277 C109      2.1284   -6.2385    3.9981   C.3       1 RES1   0.0000
   278 C110      3.3706   -7.0275    3.5660   C.3       1 RES1   0.0000
   279 C111      3.1321   -7.7907    2.2639   C.3       1 RES1   0.0000
   280 C112      4.4058   -8.4100    1.6928   C.3       1 RES1   0.0000
   281 C113      4.1108   -9.1816    0.4072   C.3       1 RES1   0.0000
   282 C114      5.3793   -9.6657   -0.2840   C.3       1 RES1   0.0000
   283 H153      8.0357   -4.0028    5.5992   H         1 RES1   0.0000
   284 H154      8.1184   -4.8407    4.0561   H         1 RES1   0.0000
   285 H155      9.5668   -4.1012    4.7302   H         1 RES1   0.0000
   286 H156      7.0975   -2.5038    3.9310   H         1 RES1   0.0000
   287 H157      8.6560   -1.8525    4.4319   H         1 RES1   0.0000
   288 H158      9.7081   -2.8954    2.4155   H         1 RES1   0.0000
   289 H159      8.1537   -3.5528    1.9432   H         1 RES1   0.0000
   290 H160      7.4099   -0.9555    2.0806   H         1 RES1   0.0000
   291 H161      9.1226   -0.6992    1.7860   H         1 RES1   0.0000
   292 H162      9.0310   -1.6824   -0.3617   H         1 RES1   0.0000
   293 H163      7.6864   -2.7072    0.0719   H         1 RES1   0.0000
   294 H164      6.2848   -0.4828    0.1049   H         1 RES1   0.0000
   295 H165      7.6507    0.1959   -0.7414   H         1 RES1   0.0000
   296 H166      6.9262   -0.6637   -2.6790   H         1 RES1   0.0000
   297 H167      7.2716   -2.2356   -2.0629   H         1 RES1   0.0000
   298 H168      5.1955   -2.3420   -3.0684   H         1 RES1   0.0000
   299 H169      4.9940   -2.6345   -1.3563   H         1 RES1   0.0000
   300 H170      3.4866    1.0001   -2.5700   H         1 RES1   0.0000
   301 H171      5.1027    0.9243   -1.8333   H         1 RES1   0.0000
   302 H172      5.2385    1.5924   -4.1169   H         1 RES1   0.0000
   303 H173      6.0401    0.0656   -3.9812   H         1 RES1   0.0000
   304 H174      3.1695    0.1469   -4.9232   H         1 RES1   0.0000
   305 H175      4.4967    0.5624   -6.0028   H         1 RES1   0.0000
   306 H176      5.5302   -1.7237   -5.1920   H         1 RES1   0.0000
   307 H177      3.8385   -2.1378   -4.8765   H         1 RES1   0.0000
   308 H178      5.0540   -1.2068   -7.5075   H         1 RES1   0.0000
   309 H179      4.5836   -2.8494   -7.1018   H         1 RES1   0.0000
   310 H180      2.6828   -0.4857   -7.3911   H         1 RES1   0.0000
   311 H181      3.0010   -1.7172   -8.5910   H         1 RES1   0.0000
   312 H182      1.2262   -2.8265   -7.7326   H         1 RES1   0.0000
   313 H183      2.2976   -3.2808   -6.4172   H         1 RES1   0.0000
   314 H184      0.3764   -0.9070   -6.5153   H         1 RES1   0.0000
   315 H185      0.1908   -2.3649   -5.5410   H         1 RES1   0.0000
   316 H186      1.4690   -1.2013   -5.1592   H         1 RES1   0.0000
   317 H187      2.9569   -3.1516   -0.8923   H         1 RES1   0.0000
   318 H188      2.4479   -3.1094   -3.4259   H         1 RES1   0.0000
   319 H189      1.2999   -4.0657   -2.4860   H         1 RES1   0.0000
   320 H190      0.8790   -2.4174   -3.0033   H         1 RES1   0.0000
   321 H191      1.4561   -3.9012    0.6650   H         1 RES1   0.0000
   322 H192     -1.2917   -2.8165   -0.1222   H         1 RES1   0.0000
   323 H193     -0.5109   -4.1609   -0.9609   H         1 RES1   0.0000
   324 H194     -1.0630   -4.3704    0.7031   H         1 RES1   0.0000
   325 H195     -0.6794   -1.5233    4.0808   H         1 RES1   0.0000
   326 H196      0.1690   -2.7338    5.0576   H         1 RES1   0.0000
   327 H197      2.3216   -1.6097    4.6318   H         1 RES1   0.0000
   328 H198      1.4739   -0.3243    3.7439   H         1 RES1   0.0000
   329 H199      0.1232    0.1121    5.8523   H         1 RES1   0.0000
   330 H200      1.0612   -1.1448    6.6458   H         1 RES1   0.0000
   331 H201      2.0469    0.7746    7.3986   H         1 RES1   0.0000
   332 H202      3.1491    0.2623    6.1387   H         1 RES1   0.0000
   333 H203      2.4768    2.0558    4.7085   H         1 RES1   0.0000
   334 H204      0.9632    2.3009    5.5801   H         1 RES1   0.0000
   335 H205      2.3520    2.9419    7.6115   H         1 RES1   0.0000
   336 H206      3.7623    3.0003    6.5624   H         1 RES1   0.0000
   337 H207      1.2523    4.6635    6.0906   H         1 RES1   0.0000
   338 H208      2.6039    5.1923    7.0903   H         1 RES1   0.0000
   339 H209      2.8078    4.5456    4.1153   H         1 RES1   0.0000
   340 H210      2.8006    6.1470    4.8461   H         1 RES1   0.0000
   341 H211      4.1417    5.0530    5.1594   H         1 RES1   0.0000
   342 H212      0.1399   -4.5285    4.2022   H         1 RES1   0.0000
   343 H213      0.0976   -4.8695    2.4797   H         1 RES1   0.0000
   344 H214      2.5042   -4.8959    2.3522   H         1 RES1   0.0000
   345 H215      2.6657   -4.1588    3.9558   H         1 RES1   0.0000
   346 H216      2.1242   -6.1223    5.0822   H         1 RES1   0.0000
   347 H217      1.2417   -6.8124    3.7226   H         1 RES1   0.0000
   348 H218      4.2169   -6.3438    3.4604   H         1 RES1   0.0000
   349 H219      3.6296   -7.7463    4.3429   H         1 RES1   0.0000
   350 H220      2.4067   -8.5854    2.4506   H         1 RES1   0.0000
   351 H221      2.6914   -7.1215    1.5180   H         1 RES1   0.0000
   352 H222      5.1410   -7.6260    1.4907   H         1 RES1   0.0000
   353 H223      4.8453   -9.0836    2.4297   H         1 RES1   0.0000
   354 H224      3.4788  -10.0403    0.6431   H         1 RES1   0.0000
   355 H225      3.5493   -8.5369   -0.2758   H         1 RES1   0.0000
   356 H226      5.9235  -10.3545    0.3560   H         1 RES1   0.0000
   357 H227      5.1351  -10.1787   -1.2113   H         1 RES1   0.0000
   358 H228      6.0378   -8.8331   -0.5252   H         1 RES1   0.0000
@<TRIPOS>BOND
     1     1    20    1
     2     1    23    1
     3     1    27    1
     4     1   139    1
     5     1   142    1
     6     1   146    1
     7     1   258    1
     8     1   261    1
     9     1   265    1
    10     2     3    1
    11     2    45    1
    12     2    46    1
    13     2    47    1
    14     3     4    1
    15     3    48    1
    16     3    49    1
    17     4     5    1
    18     4    50    1
    19     4    51    1
    20     5     6    1
    21     5    52    1
    22     5    53    1
    23     6     7    1
    24     6    54    1
    25     6    55    1
    26     7     8    1
    27     7    56    1
    28     7    57    1
    29     8     9    1
    30     8    58    1
    31     8    59    1
    32     9    10    1
    33     9    60    1
    34     9    61    1
    35    10    11    1
    36    10    19    1
    37    11    12    1
    38    11    62    1
    39    11    63    1
    40    12    13    1
    41    12    64    1
    42    12    65    1
    43    13    14    1
    44    13    66    1
    45    13    67    1
    46    14    15    1
    47    14    68    1
    48    14    69    1
    49    15    16    1
    50    15    70    1
    51    15    71    1
    52    16    17    1
    53    16    72    1
    54    16    73    1
    55    17    18    1
    56    17    74    1
    57    17    75    1
    58    18    76    1
    59    18    77    1
    60    18    78    1
    61    19    20    2
    62    19    21    1
    63    21    22    1
    64    21    23    1
    65    21    79    1
    66    22    80    1
    67    22    81    1
    68    22    82    1
    69    23    24    1
    70    24    25    1
    71    24    26    1
    72    24    83    1
    73    25    84    1
    74    25    85    1
    75    25    86    1
    76    26    27    2
    77    26    28    1
    78    28    29    1
    79    28    37    1
    80    29    30    1
    81    29    87    1
    82    29    88    1
    83    30    31    1
    84    30    89    1
    85    30    90    1
    86    31    32    1
    87    31    91    1
    88    31    92    1
    89    32    33    1
    90    32    93    1
    91    32    94    1
    92    33    34    1
    93    33    95    1
    94    33    96    1
    95    34    35    1
    96    34    97    1
    97    34    98    1
    98    35    36    1
    99    35    99    1
   100    35   100    1
   101    36   101    1
   102    36   102    1
   103    36   103    1
   104    37    38    1
   105    37   104    1
   106    37   105    1
   107    38    39    1
   108    38   106    1
   109    38   107    1
   110    39    40    1
   111    39   108    1
   112    39   109    1
   113    40    41    1
   114    40   110    1
   115    40   111    1
   116    41    42    1
   117    41   112    1
   118    41   113    1
   119    42    43    1
   120    42   114    1
   121    42   115    1
   122    43    44    1
   123    43   116    1
   124    43   117    1
   125    44   118    1
   126    44   119    1
   127    44   120    1
   128   121   122    1
   129   121   164    1
   130   121   165    1
   131   121   166    1
   132   122   123    1
   133   122   167    1
   134   122   168    1
   135   123   124    1
   136   123   169    1
   137   123   170    1
   138   124   125    1
   139   124   171    1
   140   124   172    1
   141   125   126    1
   142   125   173    1
   143   125   174    1
   144   126   127    1
   145   126   175    1
   146   126   176    1
   147   127   128    1
   148   127   177    1
   149   127   178    1
   150   128   129    1
   151   128   179    1
   152   128   180    1
   153   129   130    1
   154   129   138    1
   155   130   131    1
   156   130   181    1
   157   130   182    1
   158   131   132    1
   159   131   183    1
   160   131   184    1
   161   132   133    1
   162   132   185    1
   163   132   186    1
   164   133   134    1
   165   133   187    1
   166   133   188    1
   167   134   135    1
   168   134   189    1
   169   134   190    1
   170   135   136    1
   171   135   191    1
   172   135   192    1
   173   136   137    1
   174   136   193    1
   175   136   194    1
   176   137   195    1
   177   137   196    1
   178   137   197    1
   179   138   139    2
   180   138   140    1
   181   140   141    1
   182   140   142    1
   183   140   198    1
   184   141   199    1
   185   141   200    1
   186   141   201    1
   187   142   143    1
   188   143   144    1
   189   143   145    1
   190   143   202    1
   191   144   203    1
   192   144   204    1
   193   144   205    1
   194   145   146    2
   195   145   147    1
   196   147   148    1
   197   147   156    1
   198   148   149    1
   199   148   206    1
   200   148   207    1
   201   149   150    1
   202   149   208    1
   203   149   209    1
   204   150   151    1
   205   150   210    1
   206   150   211    1
   207   151   152    1
   208   151   212    1
   209   151   213    1
   210   152   153    1
   211   152   214    1
   212   152   215    1
   213   153   154    1
   214   153   216    1
   215   153   217    1
   216   154   155    1
   217   154   218    1
   218   154   219    1
   219   155   220    1
   220   155   221    1
   221   155   222    1
   222   156   157    1
   223   156   223    1
   224   156   224    1
   225   157   158    1
   226   157   225    1
   227   157   226    1
   228   158   159    1
   229   158   227    1
   230   158   228    1
   231   159   160    1
   232   159   229    1
   233   159   230    1
   234   160   161    1
   235   160   231    1
   236   160   232    1
   237   161   162    1
   238   161   233    1
   239   161   234    1
   240   162   163    1
   241   162   235    1
   242   162   236    1
   243   163   237    1
   244   163   238    1
   245   163   239    1
   246   240   241    1
   247   240   283    1
   248   240   284    1
   249   240   285    1
   250   241   242    1
   251   241   286    1
   252   241   287    1
   253   242   243    1
   254   242   288    1
   255   242   289    1
   256   243   244    1
   257   243   290    1
   258   243   291    1
   259   244   245    1
   260   244   292    1
   261   244   293    1
   262   245   246    1
   263   245   294    1
   264   245   295    1
   265   246   247    1
   266   246   296    1
   267   246   297    1
   268   247   248    1
   269   247   298    1
   270   247   299    1
   271   248   249    1
   272   248   257    1
   273   249   250    1
   274   249   300    1
   275   249   301    1
   276   250   251    1
   277   250   302    1
   278   250   303    1
   279   251   252    1
   280   251   304    1
   281   251   305    1
   282   252   253    1
   283   252   306    1
   284   252   307    1
   285   253   254    1
   286   253   308    1
   287   253   309    1
   288   254   255    1
   289   254   310    1
   290   254   311    1
   291   255   256    1
   292   255   312    1
   293   255   313    1
   294   256   314    1
   295   256   315    1
   296   256   316    1
   297   257   258    2
   298   257   259    1
   299   259   260    1
   300   259   261    1
   301   259   317    1
   302   260   318    1
   303   260   319    1
   304   260   320    1
   305   261   262    1
   306   262   263    1
   307   262   264    1
   308   262   321    1
   309   263   322    1
   310   263   323    1
   311   263   324    1
   312   264   265    2
   313   264   266    1
   314   266   267    1
   315   266   275    1
   316   267   268    1
   317   267   325    1
   318   267   326    1
   319   268   269    1
   320   268   327    1
   321   268   328    1
   322   269   270    1
   323   269   329    1
   324   269   330    1
   325   270   271    1
   326   270   331    1
   327   270   332    1
   328   271   272    1
   329   271   333    1
   330   271   334    1
   331   272   273    1
   332   272   335    1
   333   272   336    1
   334   273   274    1
   335   273   337    1
   336   273   338    1
   337   274   339    1
   338   274   340    1
   339   274   341    1
   340   275   276    1
   341   275   342    1
   342   275   343    1
   343   276   277    1
   344   276   344    1
   345   276   345    1
   346   277   278    1
   347   277   346    1
   348   277   347    1
   349   278   279    1
   350   278   348    1
   351   278   349    1
   352   279   280    1
   353   279   350    1
   354   279   351    1
   355   280   281    1
   356   280   352    1
   357   280   353    1
   358   281   282    1
   359   281   354    1
   360   281   355    1
   361   282   356    1
   362   282   357    1
   363   282   358    1
@<TRIPOS>SUBSTRUCTURE
     1 RES1      358 GROUP             0 ****  ****    0  
