@<TRIPOS>MOLECULE
am_c3_9H2O_c0_0_nunpairedes_0_charge_3 Charge: 3 Unpaired_Electrons: 0 XTB_Unpaired_Electrons: 0 XTB_Charge: 3
   256   267     1     0     0
SMALL
NoCharges
****
Generated from Architector

@<TRIPOS>ATOM
     1 La1       0.0814    0.0290   -0.0637   La        1 RES1   0.0000
     2 C1        3.8605    6.6620   -2.9297   C.3       1 RES1   0.0000
     3 C2        3.7071    5.5101   -3.9124   C.3       1 RES1   0.0000
     4 C3        2.2550    5.0458   -4.0409   C.3       1 RES1   0.0000
     5 C4        2.1095    3.9846   -5.1391   C.3       1 RES1   0.0000
     6 C5        1.0093    2.9548   -4.8618   C.3       1 RES1   0.0000
     7 C6       -0.3882    3.4912   -5.1825   C.3       1 RES1   0.0000
     8 C7       -1.5141    2.6624   -4.5435   C.3       1 RES1   0.0000
     9 C8       -2.1401    3.1942   -3.2390   C.3       1 RES1   0.0000
    10 N1       -1.2247    3.8210   -2.2827   N.am      1 RES1   0.0000
    11 C9       -1.2279    5.2676   -2.4105   C.3       1 RES1   0.0000
    12 C10      -2.5401    5.9524   -1.9891   C.3       1 RES1   0.0000
    13 C11      -3.0878    5.5722   -0.6121   C.3       1 RES1   0.0000
    14 C12      -4.0550    4.3799   -0.6228   C.3       1 RES1   0.0000
    15 C13      -4.9769    4.4343    0.5977   C.3       1 RES1   0.0000
    16 C14      -5.9599    3.2660    0.7159   C.3       1 RES1   0.0000
    17 C15      -7.2061    3.6174    1.5461   C.3       1 RES1   0.0000
    18 C16      -6.9990    3.4969    3.0512   C.3       1 RES1   0.0000
    19 C17      -0.5848    3.0291   -1.4141   C.2       1 RES1   0.0000
    20 O1       -0.8665    1.8048   -1.4163   O.2       1 RES1   0.0000
    21 C18       0.4537    3.4433   -0.3691   C.ar      1 RES1   0.0000
    22 C19       0.7790    4.7320    0.0914   C.ar      1 RES1   0.0000
    23 C20       1.6751    4.8803    1.1259   C.ar      1 RES1   0.0000
    24 C21       2.2295    3.7665    1.7662   C.ar      1 RES1   0.0000
    25 C22       3.0568    3.8831    2.9202   C.ar      1 RES1   0.0000
    26 C23       3.4787    2.7770    3.5704   C.ar      1 RES1   0.0000
    27 C24       3.1352    1.4819    3.0906   C.ar      1 RES1   0.0000
    28 C25       3.5100    0.3091    3.7586   C.ar      1 RES1   0.0000
    29 C26       3.1667   -0.9273    3.2617   C.ar      1 RES1   0.0000
    30 C27       2.4453   -1.0092    2.0592   C.ar      1 RES1   0.0000
    31 C28       1.9302   -2.2470    1.3464   C.2       1 RES1   0.0000
    32 O2        1.0835   -2.0402    0.4430   O.2       1 RES1   0.0000
    33 N2        2.3430   -3.4934    1.5869   N.am      1 RES1   0.0000
    34 C29       1.7485   -4.5558    0.7732   C.3       1 RES1   0.0000
    35 C30       0.4109   -5.0040    1.3537   C.3       1 RES1   0.0000
    36 C31      -0.4358   -5.7338    0.3147   C.3       1 RES1   0.0000
    37 C32      -1.2785   -4.7675   -0.5175   C.3       1 RES1   0.0000
    38 C33      -2.0083   -5.4940   -1.6489   C.3       1 RES1   0.0000
    39 C34      -1.0564   -5.9927   -2.7371   C.3       1 RES1   0.0000
    40 C35      -1.8096   -6.3885   -4.0051   C.3       1 RES1   0.0000
    41 C36      -0.8754   -6.7343   -5.1583   C.3       1 RES1   0.0000
    42 C37       3.1836   -3.9558    2.6836   C.3       1 RES1   0.0000
    43 C38       4.6903   -3.6289    2.5574   C.3       1 RES1   0.0000
    44 C39       5.5575   -4.7497    1.9427   C.3       1 RES1   0.0000
    45 C40       6.1868   -4.3652    0.6071   C.3       1 RES1   0.0000
    46 C41       5.0798   -4.1667   -0.4099   C.3       1 RES1   0.0000
    47 C42       5.5145   -3.5543   -1.7414   C.3       1 RES1   0.0000
    48 C43       4.6230   -2.3597   -2.0883   C.3       1 RES1   0.0000
    49 C44       3.1274   -2.6158   -1.8808   C.3       1 RES1   0.0000
    50 N3        2.0597    0.1042    1.4309   N.ar      1 RES1   0.0000
    51 C45       2.3680    1.3160    1.9120   C.ar      1 RES1   0.0000
    52 C46       1.8631    2.5013    1.2441   C.ar      1 RES1   0.0000
    53 N4        1.0140    2.3761    0.2123   N.ar      1 RES1   0.0000
    54 H1        4.9086    6.9011   -2.7844   H         1 RES1   0.0000
    55 H2        3.4531    6.3942   -1.9581   H         1 RES1   0.0000
    56 H3        3.3426    7.5455   -3.2900   H         1 RES1   0.0000
    57 H4        4.3229    4.6718   -3.5746   H         1 RES1   0.0000
    58 H5        4.0721    5.8156   -4.8948   H         1 RES1   0.0000
    59 H6        1.6214    5.9105   -4.2470   H         1 RES1   0.0000
    60 H7        1.9259    4.6295   -3.0831   H         1 RES1   0.0000
    61 H8        3.0627    3.4616   -5.2445   H         1 RES1   0.0000
    62 H9        1.9077    4.4672   -6.0951   H         1 RES1   0.0000
    63 H10       1.0603    2.6414   -3.8125   H         1 RES1   0.0000
    64 H11       1.1935    2.0776   -5.4870   H         1 RES1   0.0000
    65 H12      -0.5087    3.4974   -6.2683   H         1 RES1   0.0000
    66 H13      -0.4399    4.5283   -4.8647   H         1 RES1   0.0000
    67 H14      -1.1617    1.6446   -4.3726   H         1 RES1   0.0000
    68 H15      -2.3374    2.5927   -5.2545   H         1 RES1   0.0000
    69 H16      -2.6601    2.3617   -2.7606   H         1 RES1   0.0000
    70 H17      -2.8884    3.9435   -3.4801   H         1 RES1   0.0000
    71 H18      -1.0778    5.5124   -3.4631   H         1 RES1   0.0000
    72 H19      -0.3881    5.6843   -1.8753   H         1 RES1   0.0000
    73 H20      -3.3157    5.7765   -2.7368   H         1 RES1   0.0000
    74 H21      -2.3274    7.0217   -2.0056   H         1 RES1   0.0000
    75 H22      -3.6368    6.4316   -0.2207   H         1 RES1   0.0000
    76 H23      -2.2548    5.3777    0.0683   H         1 RES1   0.0000
    77 H24      -3.5034    3.4321   -0.6564   H         1 RES1   0.0000
    78 H25      -4.6809    4.4245   -1.5161   H         1 RES1   0.0000
    79 H26      -5.5477    5.3622    0.5328   H         1 RES1   0.0000
    80 H27      -4.3669    4.4951    1.4941   H         1 RES1   0.0000
    81 H28      -5.4617    2.3967    1.1624   H         1 RES1   0.0000
    82 H29      -6.2793    2.9717   -0.2857   H         1 RES1   0.0000
    83 H30      -8.0136    2.9429    1.2567   H         1 RES1   0.0000
    84 H31      -7.5315    4.6360    1.3198   H         1 RES1   0.0000
    85 H32      -6.6170    2.5106    3.3073   H         1 RES1   0.0000
    86 H33      -7.9428    3.6397    3.5695   H         1 RES1   0.0000
    87 H34      -6.3086    4.2537    3.4137   H         1 RES1   0.0000
    88 H35       0.3161    5.6252   -0.2916   H         1 RES1   0.0000
    89 H36       1.9283    5.8707    1.4681   H         1 RES1   0.0000
    90 H37       3.3161    4.8648    3.2787   H         1 RES1   0.0000
    91 H38       4.0919    2.8518    4.4515   H         1 RES1   0.0000
    92 H39       4.0725    0.3721    4.6756   H         1 RES1   0.0000
    93 H40       3.4454   -1.8022    3.8190   H         1 RES1   0.0000
    94 H41       2.4537   -5.3846    0.7172   H         1 RES1   0.0000
    95 H42       1.5680   -4.1915   -0.2364   H         1 RES1   0.0000
    96 H43      -0.1256   -4.1131    1.6804   H         1 RES1   0.0000
    97 H44       0.5743   -5.6528    2.2113   H         1 RES1   0.0000
    98 H45      -1.0993   -6.4418    0.8126   H         1 RES1   0.0000
    99 H46       0.2138   -6.3035   -0.3480   H         1 RES1   0.0000
   100 H47      -0.6407   -3.9797   -0.9388   H         1 RES1   0.0000
   101 H48      -2.0088   -4.2722    0.1338   H         1 RES1   0.0000
   102 H49      -2.7394   -4.8132   -2.0977   H         1 RES1   0.0000
   103 H50      -2.5554   -6.3416   -1.2314   H         1 RES1   0.0000
   104 H51      -0.4974   -6.8543   -2.3695   H         1 RES1   0.0000
   105 H52      -0.3395   -5.1993   -2.9753   H         1 RES1   0.0000
   106 H53      -2.4521   -5.5552   -4.3043   H         1 RES1   0.0000
   107 H54      -2.4537   -7.2424   -3.7876   H         1 RES1   0.0000
   108 H55      -0.2069   -5.9020   -5.3760   H         1 RES1   0.0000
   109 H56      -1.4508   -6.9489   -6.0540   H         1 RES1   0.0000
   110 H57      -0.2761   -7.6099   -4.9232   H         1 RES1   0.0000
   111 H58       3.0655   -5.0380    2.7114   H         1 RES1   0.0000
   112 H59       2.7662   -3.5809    3.6233   H         1 RES1   0.0000
   113 H60       5.0616   -3.3978    3.5562   H         1 RES1   0.0000
   114 H61       4.8190   -2.7225    1.9646   H         1 RES1   0.0000
   115 H62       4.9536   -5.6389    1.7683   H         1 RES1   0.0000
   116 H63       6.3437   -5.0344    2.6368   H         1 RES1   0.0000
   117 H64       6.8678   -5.1500    0.2907   H         1 RES1   0.0000
   118 H65       6.7601   -3.4448    0.6946   H         1 RES1   0.0000
   119 H66       4.3728   -3.4824    0.0516   H         1 RES1   0.0000
   120 H67       4.5708   -5.1153   -0.5685   H         1 RES1   0.0000
   121 H68       5.5048   -4.2949   -2.5428   H         1 RES1   0.0000
   122 H69       6.5402   -3.1922   -1.6600   H         1 RES1   0.0000
   123 H70       4.8165   -2.0739   -3.1228   H         1 RES1   0.0000
   124 H71       4.9196   -1.5333   -1.4346   H         1 RES1   0.0000
   125 H72       2.7874   -3.5244   -2.3631   H         1 RES1   0.0000
   126 H73       2.5157   -1.8032   -2.2521   H         1 RES1   0.0000
   127 H74       2.9015   -2.7041   -0.8264   H         1 RES1   0.0000
   128 C47      -5.7818   -5.7430    2.2428   C.3       1 RES1   0.0000
   129 C48      -4.4729   -6.1652    2.8959   C.3       1 RES1   0.0000
   130 C49      -3.7471   -4.9766    3.5317   C.3       1 RES1   0.0000
   131 C50      -2.3847   -5.3774    4.1145   C.3       1 RES1   0.0000
   132 C51      -1.3518   -4.2399    4.1102   C.3       1 RES1   0.0000
   133 C52      -1.2467   -3.3950    5.3820   C.3       1 RES1   0.0000
   134 C53      -0.4046   -2.1312    5.1280   C.3       1 RES1   0.0000
   135 C54      -1.1613   -0.8367    4.7874   C.3       1 RES1   0.0000
   136 N5       -2.2422   -0.9613    3.8011   N.am      1 RES1   0.0000
   137 C55      -3.5287   -1.2085    4.4402   C.3       1 RES1   0.0000
   138 C56      -4.0670   -0.0566    5.3027   C.3       1 RES1   0.0000
   139 C57      -4.2682    1.2443    4.5292   C.3       1 RES1   0.0000
   140 C58      -3.1168    2.2471    4.6390   C.3       1 RES1   0.0000
   141 C59      -3.3693    3.3898    3.6583   C.3       1 RES1   0.0000
   142 C60      -2.3618    4.5465    3.7289   C.3       1 RES1   0.0000
   143 C61      -3.0368    5.7745    4.3500   C.3       1 RES1   0.0000
   144 C62      -3.9732    6.4609    3.3638   C.3       1 RES1   0.0000
   145 C63      -1.9189   -0.8517    2.5025   C.2       1 RES1   0.0000
   146 O3       -0.7351   -0.5677    2.2006   O.2       1 RES1   0.0000
   147 C64      -2.8463   -1.0371    1.2990   C.ar      1 RES1   0.0000
   148 C65      -4.2502   -1.0423    1.2808   C.ar      1 RES1   0.0000
   149 C66      -4.9185   -1.2118    0.0896   C.ar      1 RES1   0.0000
   150 C67      -4.2199   -1.3202   -1.1187   C.ar      1 RES1   0.0000
   151 C68      -4.8957   -1.4060   -2.3685   C.ar      1 RES1   0.0000
   152 C69      -4.1954   -1.3732   -3.5252   C.ar      1 RES1   0.0000
   153 C70      -2.7824   -1.2324   -3.5059   C.ar      1 RES1   0.0000
   154 C71      -2.0441   -1.0811   -4.6882   C.ar      1 RES1   0.0000
   155 C72      -0.7051   -0.7680   -4.6328   C.ar      1 RES1   0.0000
   156 C73      -0.0849   -0.6430   -3.3790   C.ar      1 RES1   0.0000
   157 C74       1.2931   -0.0924   -3.0923   C.2       1 RES1   0.0000
   158 O4        1.4753    0.3065   -1.9157   O.2       1 RES1   0.0000
   159 N6        2.3034   -0.0128   -3.9625   N.am      1 RES1   0.0000
   160 C75       3.5911    0.3218   -3.3554   C.3       1 RES1   0.0000
   161 C76       3.8773    1.7745   -3.0005   C.3       1 RES1   0.0000
   162 C77       5.0426    1.7890   -2.0042   C.3       1 RES1   0.0000
   163 C78       4.5721    1.5487   -0.5689   C.3       1 RES1   0.0000
   164 C79       5.7290    1.4997    0.4307   C.3       1 RES1   0.0000
   165 C80       6.5027    0.1817    0.4459   C.3       1 RES1   0.0000
   166 C81       7.5522    0.2064    1.5577   C.3       1 RES1   0.0000
   167 C82       8.3191   -1.1027    1.6855   C.3       1 RES1   0.0000
   168 C83       2.3347   -0.5077   -5.3311   C.3       1 RES1   0.0000
   169 C84       2.1577   -2.0371   -5.4480   C.3       1 RES1   0.0000
   170 C85       3.4560   -2.7540   -5.8356   C.3       1 RES1   0.0000
   171 C86       3.3138   -4.2752   -5.9262   C.3       1 RES1   0.0000
   172 C87       3.0444   -4.9174   -4.5670   C.3       1 RES1   0.0000
   173 C88       3.2568   -6.4323   -4.5618   C.3       1 RES1   0.0000
   174 C89       2.4813   -7.1351   -3.4453   C.3       1 RES1   0.0000
   175 C90       2.8546   -6.6796   -2.0391   C.3       1 RES1   0.0000
   176 N7       -0.7554   -0.8907   -2.2519   N.ar      1 RES1   0.0000
   177 C91      -2.0678   -1.1621   -2.2846   C.ar      1 RES1   0.0000
   178 C92      -2.8086   -1.2337   -1.0372   C.ar      1 RES1   0.0000
   179 N8       -2.1708   -1.1063    0.1430   N.ar      1 RES1   0.0000
   180 H75      -6.2684   -6.5985    1.7876   H         1 RES1   0.0000
   181 H76      -5.5968   -5.0090    1.4604   H         1 RES1   0.0000
   182 H77      -6.4556   -5.3117    2.9773   H         1 RES1   0.0000
   183 H78      -3.8251   -6.6051    2.1333   H         1 RES1   0.0000
   184 H79      -4.6620   -6.9300    3.6504   H         1 RES1   0.0000
   185 H80      -4.3808   -4.5331    4.3039   H         1 RES1   0.0000
   186 H81      -3.5978   -4.2192    2.7515   H         1 RES1   0.0000
   187 H82      -1.9912   -6.1922    3.5022   H         1 RES1   0.0000
   188 H83      -2.5047   -5.7709    5.1241   H         1 RES1   0.0000
   189 H84      -1.5702   -3.5789    3.2650   H         1 RES1   0.0000
   190 H85      -0.3640   -4.6760    3.9537   H         1 RES1   0.0000
   191 H86      -0.7709   -3.9981    6.1577   H         1 RES1   0.0000
   192 H87      -2.2335   -3.1465    5.7663   H         1 RES1   0.0000
   193 H88       0.3134   -2.3327    4.3296   H         1 RES1   0.0000
   194 H89       0.1661   -1.9122    6.0305   H         1 RES1   0.0000
   195 H90      -0.4276   -0.1086    4.4336   H         1 RES1   0.0000
   196 H91      -1.6109   -0.4432    5.6955   H         1 RES1   0.0000
   197 H92      -3.4203   -2.0719    5.0944   H         1 RES1   0.0000
   198 H93      -4.2672   -1.4863    3.7039   H         1 RES1   0.0000
   199 H94      -3.4276    0.1248    6.1657   H         1 RES1   0.0000
   200 H95      -5.0276   -0.3970    5.6909   H         1 RES1   0.0000
   201 H96      -5.1742    1.7412    4.8786   H         1 RES1   0.0000
   202 H97      -4.4163    0.9939    3.4754   H         1 RES1   0.0000
   203 H98      -2.1603    1.7541    4.4386   H         1 RES1   0.0000
   204 H99      -3.0757    2.6604    5.6491   H         1 RES1   0.0000
   205 H100     -4.3546    3.7838    3.8943   H         1 RES1   0.0000
   206 H101     -3.4534    2.9875    2.6472   H         1 RES1   0.0000
   207 H102     -1.9874    4.8001    2.7282   H         1 RES1   0.0000
   208 H103     -1.4981    4.2563    4.3330   H         1 RES1   0.0000
   209 H104     -2.2832    6.4795    4.6948   H         1 RES1   0.0000
   210 H105     -3.6020    5.4552    5.2291   H         1 RES1   0.0000
   211 H106     -3.4538    6.6920    2.4359   H         1 RES1   0.0000
   212 H107     -4.3556    7.3840    3.7822   H         1 RES1   0.0000
   213 H108     -4.8253    5.8294    3.1319   H         1 RES1   0.0000
   214 H109     -4.8385   -0.8455    2.1598   H         1 RES1   0.0000
   215 H110     -5.9964   -1.2209    0.0842   H         1 RES1   0.0000
   216 H111     -5.9688   -1.4679   -2.3786   H         1 RES1   0.0000
   217 H112     -4.6924   -1.4241   -4.4751   H         1 RES1   0.0000
   218 H113     -2.5362   -1.1622   -5.6434   H         1 RES1   0.0000
   219 H114     -0.1649   -0.5735   -5.5424   H         1 RES1   0.0000
   220 H115      4.3841   -0.0468   -4.0035   H         1 RES1   0.0000
   221 H116      3.6350   -0.1909   -2.3984   H         1 RES1   0.0000
   222 H117      3.0024    2.2351   -2.5432   H         1 RES1   0.0000
   223 H118      4.1461    2.3292   -3.8918   H         1 RES1   0.0000
   224 H119      5.5572    2.7500   -2.0453   H         1 RES1   0.0000
   225 H120      5.7651    1.0181   -2.2779   H         1 RES1   0.0000
   226 H121      3.9865    0.6244   -0.5034   H         1 RES1   0.0000
   227 H122      3.8939    2.3605   -0.2888   H         1 RES1   0.0000
   228 H123      5.3349    1.6806    1.4360   H         1 RES1   0.0000
   229 H124      6.4180    2.3132    0.1978   H         1 RES1   0.0000
   230 H125      6.9926    0.0241   -0.5174   H         1 RES1   0.0000
   231 H126      5.8143   -0.6544    0.6147   H         1 RES1   0.0000
   232 H127      7.0547    0.4251    2.5084   H         1 RES1   0.0000
   233 H128      8.2571    1.0157    1.3590   H         1 RES1   0.0000
   234 H129      7.6581   -1.9074    2.0016   H         1 RES1   0.0000
   235 H130      9.1058   -1.0034    2.4278   H         1 RES1   0.0000
   236 H131      8.7780   -1.3728    0.7375   H         1 RES1   0.0000
   237 H132      3.3100   -0.2376   -5.7312   H         1 RES1   0.0000
   238 H133      1.6071    0.0270   -5.9439   H         1 RES1   0.0000
   239 H134      1.3952   -2.2740   -6.1915   H         1 RES1   0.0000
   240 H135      1.8100   -2.4294   -4.4933   H         1 RES1   0.0000
   241 H136      4.2332   -2.5307   -5.1037   H         1 RES1   0.0000
   242 H137      3.7970   -2.3832   -6.8010   H         1 RES1   0.0000
   243 H138      4.2443   -4.6792   -6.3275   H         1 RES1   0.0000
   244 H139      2.5175   -4.5365   -6.6223   H         1 RES1   0.0000
   245 H140      2.0121   -4.7126   -4.2602   H         1 RES1   0.0000
   246 H141      3.7286   -4.4646   -3.8500   H         1 RES1   0.0000
   247 H142      4.3210   -6.6504   -4.4636   H         1 RES1   0.0000
   248 H143      2.9246   -6.8381   -5.5184   H         1 RES1   0.0000
   249 H144      2.6662   -8.2064   -3.5268   H         1 RES1   0.0000
   250 H145      1.4164   -6.9571   -3.6004   H         1 RES1   0.0000
   251 H146      3.9134   -6.8402   -1.8541   H         1 RES1   0.0000
   252 H147      2.6276   -5.6242   -1.9075   H         1 RES1   0.0000
   253 H148      2.2932   -7.2508   -1.3009   H         1 RES1   0.0000
   254 O5       -1.5855    1.9732    1.3174   O.3       1 RES1   0.0000
   255 H149     -2.3185    2.4323    0.8828   H         1 RES1   0.0000
   256 H150     -1.6545    2.2209    2.2543   H         1 RES1   0.0000
@<TRIPOS>BOND
     1     1    20    1
     2     1    32    1
     3     1    50    1
     4     1    53    1
     5     1   146    1
     6     1   158    1
     7     1   176    1
     8     1   179    1
     9     1   254    1
    10     2     3    1
    11     2    54    1
    12     2    55    1
    13     2    56    1
    14     3     4    1
    15     3    57    1
    16     3    58    1
    17     4     5    1
    18     4    59    1
    19     4    60    1
    20     5     6    1
    21     5    61    1
    22     5    62    1
    23     6     7    1
    24     6    63    1
    25     6    64    1
    26     7     8    1
    27     7    65    1
    28     7    66    1
    29     8     9    1
    30     8    67    1
    31     8    68    1
    32     9    10    1
    33     9    69    1
    34     9    70    1
    35    10    11    1
    36    10    19    1
    37    11    12    1
    38    11    71    1
    39    11    72    1
    40    12    13    1
    41    12    73    1
    42    12    74    1
    43    13    14    1
    44    13    75    1
    45    13    76    1
    46    14    15    1
    47    14    77    1
    48    14    78    1
    49    15    16    1
    50    15    79    1
    51    15    80    1
    52    16    17    1
    53    16    81    1
    54    16    82    1
    55    17    18    1
    56    17    83    1
    57    17    84    1
    58    18    85    1
    59    18    86    1
    60    18    87    1
    61    19    20    2
    62    19    21    1
    63    21    22    1
    64    21    53    2
    65    22    23    2
    66    22    88    1
    67    23    24    1
    68    23    89    1
    69    24    25    1
    70    24    52    2
    71    25    26    2
    72    25    90    1
    73    26    27    1
    74    26    91    1
    75    27    28    1
    76    27    51    2
    77    28    29    2
    78    28    92    1
    79    29    30    1
    80    29    93    1
    81    30    31    1
    82    30    50    2
    83    31    32    2
    84    31    33    1
    85    33    34    1
    86    33    42    1
    87    34    35    1
    88    34    94    1
    89    34    95    1
    90    35    36    1
    91    35    96    1
    92    35    97    1
    93    36    37    1
    94    36    98    1
    95    36    99    1
    96    37    38    1
    97    37   100    1
    98    37   101    1
    99    38    39    1
   100    38   102    1
   101    38   103    1
   102    39    40    1
   103    39   104    1
   104    39   105    1
   105    40    41    1
   106    40   106    1
   107    40   107    1
   108    41   108    1
   109    41   109    1
   110    41   110    1
   111    42    43    1
   112    42   111    1
   113    42   112    1
   114    43    44    1
   115    43   113    1
   116    43   114    1
   117    44    45    1
   118    44   115    1
   119    44   116    1
   120    45    46    1
   121    45   117    1
   122    45   118    1
   123    46    47    1
   124    46   119    1
   125    46   120    1
   126    47    48    1
   127    47   121    1
   128    47   122    1
   129    48    49    1
   130    48   123    1
   131    48   124    1
   132    49   125    1
   133    49   126    1
   134    49   127    1
   135    50    51    1
   136    51    52    1
   137    52    53    1
   138   128   129    1
   139   128   180    1
   140   128   181    1
   141   128   182    1
   142   129   130    1
   143   129   183    1
   144   129   184    1
   145   130   131    1
   146   130   185    1
   147   130   186    1
   148   131   132    1
   149   131   187    1
   150   131   188    1
   151   132   133    1
   152   132   189    1
   153   132   190    1
   154   133   134    1
   155   133   191    1
   156   133   192    1
   157   134   135    1
   158   134   193    1
   159   134   194    1
   160   135   136    1
   161   135   195    1
   162   135   196    1
   163   136   137    1
   164   136   145    1
   165   137   138    1
   166   137   197    1
   167   137   198    1
   168   138   139    1
   169   138   199    1
   170   138   200    1
   171   139   140    1
   172   139   201    1
   173   139   202    1
   174   140   141    1
   175   140   203    1
   176   140   204    1
   177   141   142    1
   178   141   205    1
   179   141   206    1
   180   142   143    1
   181   142   207    1
   182   142   208    1
   183   143   144    1
   184   143   209    1
   185   143   210    1
   186   144   211    1
   187   144   212    1
   188   144   213    1
   189   145   146    2
   190   145   147    1
   191   147   148    1
   192   147   179    2
   193   148   149    2
   194   148   214    1
   195   149   150    1
   196   149   215    1
   197   150   151    1
   198   150   178    2
   199   151   152    2
   200   151   216    1
   201   152   153    1
   202   152   217    1
   203   153   154    1
   204   153   177    2
   205   154   155    2
   206   154   218    1
   207   155   156    1
   208   155   219    1
   209   156   157    1
   210   156   176    2
   211   157   158    2
   212   157   159    1
   213   159   160    1
   214   159   168    1
   215   160   161    1
   216   160   220    1
   217   160   221    1
   218   161   162    1
   219   161   222    1
   220   161   223    1
   221   162   163    1
   222   162   224    1
   223   162   225    1
   224   163   164    1
   225   163   226    1
   226   163   227    1
   227   164   165    1
   228   164   228    1
   229   164   229    1
   230   165   166    1
   231   165   230    1
   232   165   231    1
   233   166   167    1
   234   166   232    1
   235   166   233    1
   236   167   234    1
   237   167   235    1
   238   167   236    1
   239   168   169    1
   240   168   237    1
   241   168   238    1
   242   169   170    1
   243   169   239    1
   244   169   240    1
   245   170   171    1
   246   170   241    1
   247   170   242    1
   248   171   172    1
   249   171   243    1
   250   171   244    1
   251   172   173    1
   252   172   245    1
   253   172   246    1
   254   173   174    1
   255   173   247    1
   256   173   248    1
   257   174   175    1
   258   174   249    1
   259   174   250    1
   260   175   251    1
   261   175   252    1
   262   175   253    1
   263   176   177    1
   264   177   178    1
   265   178   179    1
   266   254   255    1
   267   254   256    1
@<TRIPOS>SUBSTRUCTURE
     1 RES1      256 GROUP             0 ****  ****    0  
