@<TRIPOS>MOLECULE
ICIGOT_geomtry_0_nunpairedes_0_charge_3 Charge: 3 Unpaired_Electrons: 4 XTB_Unpaired_Electrons: 0 XTB_Charge: 3
   177   180     1     0     0
SMALL
NoCharges
****
Generated from Architector

@<TRIPOS>ATOM
     1 Ho1      -0.1077   -0.1177   -0.1516   Ho        1 RES1   0.0000
     2 C1        0.4332   -7.7149    2.8509   C.3       1 RES1   0.0000
     3 C2        1.1643   -6.6124    2.0966   C.3       1 RES1   0.0000
     4 C3        0.2206   -5.5723    1.4845   C.3       1 RES1   0.0000
     5 C4       -0.6323   -6.1336    0.3510   C.3       1 RES1   0.0000
     6 C5       -1.4048   -5.0427   -0.3923   C.3       1 RES1   0.0000
     7 C6       -2.5998   -4.5146    0.3936   C.3       1 RES1   0.0000
     8 O1       -2.2936   -3.3331    1.1834   O.3       1 RES1   0.0000
     9 P1       -2.3084   -1.8773    0.6035   P.3       1 RES1   0.0000
    10 O2       -1.5516   -1.6473   -0.6601   O.2       1 RES1   0.0000
    11 O3       -1.5095   -1.0502    1.7471   O.3       1 RES1   0.0000
    12 O4       -3.7282   -1.2379    0.6991   O.3       1 RES1   0.0000
    13 C7       -5.0268   -1.7765    0.2919   C.3       1 RES1   0.0000
    14 C8       -5.5945   -1.0649   -0.9223   C.3       1 RES1   0.0000
    15 C9       -4.7654   -1.2029   -2.1963   C.3       1 RES1   0.0000
    16 C10      -5.5238   -0.6070   -3.3890   C.3       1 RES1   0.0000
    17 C11      -4.7249   -0.6240   -4.6939   C.3       1 RES1   0.0000
    18 C12      -4.5274   -2.0283   -5.2489   C.3       1 RES1   0.0000
    19 H1        1.1493   -8.3704    3.3348   H         1 RES1   0.0000
    20 H2       -0.1677   -8.3184    2.1796   H         1 RES1   0.0000
    21 H3       -0.2143   -7.2930    3.6146   H         1 RES1   0.0000
    22 H4        1.7680   -7.0534    1.3028   H         1 RES1   0.0000
    23 H5        1.8508   -6.1083    2.7832   H         1 RES1   0.0000
    24 H6        0.8154   -4.7451    1.0795   H         1 RES1   0.0000
    25 H7       -0.4333   -5.1774    2.2666   H         1 RES1   0.0000
    26 H8       -1.3364   -6.8641    0.7477   H         1 RES1   0.0000
    27 H9        0.0193   -6.6482   -0.3536   H         1 RES1   0.0000
    28 H10      -1.7758   -5.4512   -1.3313   H         1 RES1   0.0000
    29 H11      -0.7488   -4.2012   -0.6264   H         1 RES1   0.0000
    30 H12      -2.9368   -5.2442    1.1324   H         1 RES1   0.0000
    31 H13      -3.4263   -4.2938   -0.2806   H         1 RES1   0.0000
    32 H14      -1.8339   -1.2336    2.6510   H         1 RES1   0.0000
    33 H15      -5.6797   -1.6077    1.1516   H         1 RES1   0.0000
    34 H16      -4.9556   -2.8498    0.1129   H         1 RES1   0.0000
    35 H17      -5.7223   -0.0089   -0.6920   H         1 RES1   0.0000
    36 H18      -6.5821   -1.4989   -1.0891   H         1 RES1   0.0000
    37 H19      -4.5550   -2.2575   -2.3846   H         1 RES1   0.0000
    38 H20      -3.8066   -0.6870   -2.0790   H         1 RES1   0.0000
    39 H21      -5.7940    0.4252   -3.1523   H         1 RES1   0.0000
    40 H22      -6.4523   -1.1618   -3.5409   H         1 RES1   0.0000
    41 H23      -3.7559   -0.1465   -4.5247   H         1 RES1   0.0000
    42 H24      -5.2692   -0.0329   -5.4323   H         1 RES1   0.0000
    43 H25      -3.9220   -2.6343   -4.5817   H         1 RES1   0.0000
    44 H26      -4.0374   -1.9867   -6.2163   H         1 RES1   0.0000
    45 H27      -5.4861   -2.5188   -5.3841   H         1 RES1   0.0000
    46 C13       5.1194    0.9978   -3.3555   C.3       1 RES1   0.0000
    47 C14       3.6652    1.3972   -3.5789   C.3       1 RES1   0.0000
    48 C15       3.5830    2.7931   -4.1962   C.3       1 RES1   0.0000
    49 C16       2.1712    3.3793   -4.2715   C.3       1 RES1   0.0000
    50 C17       1.2626    2.6838   -5.2986   C.3       1 RES1   0.0000
    51 C18       0.1654    1.8095   -4.7072   C.3       1 RES1   0.0000
    52 O5        0.6966    0.5102   -4.2928   O.3       1 RES1   0.0000
    53 P2        0.0702   -0.2871   -3.1058   P.3       1 RES1   0.0000
    54 O6       -0.6128    0.5997   -2.1264   O.2       1 RES1   0.0000
    55 O7        1.3330   -0.9006   -2.2752   O.3       1 RES1   0.0000
    56 O8       -0.8862   -1.4400   -3.5016   O.3       1 RES1   0.0000
    57 C19      -0.7148   -2.7987   -3.9823   C.3       1 RES1   0.0000
    58 C20      -0.6662   -2.9130   -5.5020   C.3       1 RES1   0.0000
    59 C21       0.4943   -2.1657   -6.1614   C.3       1 RES1   0.0000
    60 C22       1.8733   -2.5132   -5.6013   C.3       1 RES1   0.0000
    61 C23       2.2499   -3.9822   -5.7885   C.3       1 RES1   0.0000
    62 C24       3.6662   -4.2701   -5.3070   C.3       1 RES1   0.0000
    63 H28       5.1965    0.0087   -2.9123   H         1 RES1   0.0000
    64 H29       5.6192    1.7077   -2.7030   H         1 RES1   0.0000
    65 H30       5.6594    0.9894   -4.2974   H         1 RES1   0.0000
    66 H31       3.1128    1.3819   -2.6260   H         1 RES1   0.0000
    67 H32       3.1898    0.6794   -4.2479   H         1 RES1   0.0000
    68 H33       4.0045    2.7650   -5.2029   H         1 RES1   0.0000
    69 H34       4.2047    3.4746   -3.6132   H         1 RES1   0.0000
    70 H35       2.2719    4.4275   -4.5589   H         1 RES1   0.0000
    71 H36       1.6979    3.3488   -3.2839   H         1 RES1   0.0000
    72 H37       1.8634    2.0807   -5.9763   H         1 RES1   0.0000
    73 H38       0.7511    3.4325   -5.9060   H         1 RES1   0.0000
    74 H39      -0.6053    1.6131   -5.4530   H         1 RES1   0.0000
    75 H40      -0.2985    2.2880   -3.8439   H         1 RES1   0.0000
    76 H41       2.0637   -1.1904   -2.8484   H         1 RES1   0.0000
    77 H42      -1.6127   -3.3026   -3.6160   H         1 RES1   0.0000
    78 H43       0.1741   -3.2416   -3.5266   H         1 RES1   0.0000
    79 H44      -1.6001   -2.5338   -5.9178   H         1 RES1   0.0000
    80 H45      -0.5947   -3.9771   -5.7360   H         1 RES1   0.0000
    81 H46       0.3240   -1.0944   -6.0535   H         1 RES1   0.0000
    82 H47       0.4954   -2.3908   -7.2292   H         1 RES1   0.0000
    83 H48       1.9151   -2.2600   -4.5324   H         1 RES1   0.0000
    84 H49       2.6170   -1.8929   -6.1068   H         1 RES1   0.0000
    85 H50       2.1702   -4.2295   -6.8466   H         1 RES1   0.0000
    86 H51       1.5525   -4.6225   -5.2466   H         1 RES1   0.0000
    87 H52       4.3845   -3.6621   -5.8493   H         1 RES1   0.0000
    88 H53       3.9147   -5.3139   -5.4720   H         1 RES1   0.0000
    89 H54       3.7690   -4.0589   -4.2433   H         1 RES1   0.0000
    90 C25       6.2798    1.5593    0.2350   C.3       1 RES1   0.0000
    91 C26       6.1006    2.8920    0.9537   C.3       1 RES1   0.0000
    92 C27       5.5622    3.9987    0.0467   C.3       1 RES1   0.0000
    93 C28       4.1459    3.7667   -0.4932   C.3       1 RES1   0.0000
    94 C29       3.0856    3.8182    0.6127   C.3       1 RES1   0.0000
    95 C30       1.6701    3.5931    0.0862   C.3       1 RES1   0.0000
    96 O9        0.7499    3.5531    1.2050   O.3       1 RES1   0.0000
    97 P3       -0.4755    2.5877    1.3367   P.3       1 RES1   0.0000
    98 O10      -0.7865    1.8555    0.0753   O.2       1 RES1   0.0000
    99 O11      -0.0457    1.3584    2.3110   O.3       1 RES1   0.0000
   100 O12      -1.6712    3.2742    2.0123   O.3       1 RES1   0.0000
   101 C31      -1.9338    4.6870    2.2963   C.3       1 RES1   0.0000
   102 C32      -2.4087    4.7852    3.7378   C.3       1 RES1   0.0000
   103 C33      -1.4024    4.2880    4.7783   C.3       1 RES1   0.0000
   104 C34      -0.3003    5.2754    5.1700   C.3       1 RES1   0.0000
   105 C35       0.8943    5.3667    4.2177   C.3       1 RES1   0.0000
   106 C36       1.7177    4.0855    4.1480   C.3       1 RES1   0.0000
   107 H55       6.8061    0.8558    0.8726   H         1 RES1   0.0000
   108 H56       6.8828    1.7008   -0.6567   H         1 RES1   0.0000
   109 H57       5.3268    1.1183   -0.0570   H         1 RES1   0.0000
   110 H58       7.0729    3.2158    1.3249   H         1 RES1   0.0000
   111 H59       5.4497    2.7769    1.8230   H         1 RES1   0.0000
   112 H60       6.2374    4.1042   -0.8023   H         1 RES1   0.0000
   113 H61       5.5894    4.9447    0.5889   H         1 RES1   0.0000
   114 H62       4.1027    2.8069   -1.0104   H         1 RES1   0.0000
   115 H63       3.9322    4.5497   -1.2218   H         1 RES1   0.0000
   116 H64       3.1193    4.7988    1.0907   H         1 RES1   0.0000
   117 H65       3.2966    3.0601    1.3708   H         1 RES1   0.0000
   118 H66       1.5860    2.6524   -0.4840   H         1 RES1   0.0000
   119 H67       1.3482    4.4171   -0.5556   H         1 RES1   0.0000
   120 H68      -0.1046    1.5430    3.2616   H         1 RES1   0.0000
   121 H69      -2.7239    5.0062    1.6135   H         1 RES1   0.0000
   122 H70      -1.0310    5.2652    2.1107   H         1 RES1   0.0000
   123 H71      -3.3177    4.1888    3.8207   H         1 RES1   0.0000
   124 H72      -2.6719    5.8215    3.9449   H         1 RES1   0.0000
   125 H73      -0.9560    3.3596    4.4189   H         1 RES1   0.0000
   126 H74      -1.9608    4.0450    5.6820   H         1 RES1   0.0000
   127 H75       0.0795    4.9860    6.1528   H         1 RES1   0.0000
   128 H76      -0.7402    6.2674    5.2753   H         1 RES1   0.0000
   129 H77       1.5384    6.1690    4.5776   H         1 RES1   0.0000
   130 H78       0.5724    5.6436    3.2138   H         1 RES1   0.0000
   131 H79       2.0095    3.7700    5.1451   H         1 RES1   0.0000
   132 H80       2.6174    4.2562    3.5642   H         1 RES1   0.0000
   133 H81       1.1585    3.2781    3.6751   H         1 RES1   0.0000
   134 C37      -2.1872    0.7664    5.8198   C.3       1 RES1   0.0000
   135 C38      -2.1282   -0.7415    5.6402   C.3       1 RES1   0.0000
   136 C39      -0.7315   -1.1958    5.2281   C.3       1 RES1   0.0000
   137 C40      -0.6468   -2.7065    5.0375   C.3       1 RES1   0.0000
   138 C41       0.7544   -3.1441    4.6143   C.3       1 RES1   0.0000
   139 C42       1.0794   -2.8659    3.1542   C.3       1 RES1   0.0000
   140 O13       1.4998   -1.4893    2.8562   O.3       1 RES1   0.0000
   141 P4        2.0596   -1.3693    1.3877   P.3       1 RES1   0.0000
   142 O14       1.0777   -1.8108    0.3570   O.2       1 RES1   0.0000
   143 O15       2.2237    0.2166    1.0977   O.3       1 RES1   0.0000
   144 O16       3.4240   -2.0774    1.2321   O.3       1 RES1   0.0000
   145 C43       4.3050   -2.5114    2.3115   C.3       1 RES1   0.0000
   146 C44       5.4393   -1.5339    2.5550   C.3       1 RES1   0.0000
   147 C45       5.0507   -0.2084    3.2190   C.3       1 RES1   0.0000
   148 C46       5.1089   -0.1759    4.7498   C.3       1 RES1   0.0000
   149 C47       4.0707   -1.0497    5.4671   C.3       1 RES1   0.0000
   150 C48       4.6085   -2.4185    5.8732   C.3       1 RES1   0.0000
   151 H82      -3.1716    1.0705    6.1532   H         1 RES1   0.0000
   152 H83      -1.9730    1.2717    4.8800   H         1 RES1   0.0000
   153 H84      -1.4684    1.0933    6.5644   H         1 RES1   0.0000
   154 H85      -2.8580   -1.0521    4.8874   H         1 RES1   0.0000
   155 H86      -2.3990   -1.2301    6.5757   H         1 RES1   0.0000
   156 H87      -0.0208   -0.9138    6.0080   H         1 RES1   0.0000
   157 H88      -0.4246   -0.6983    4.3005   H         1 RES1   0.0000
   158 H89      -1.3700   -3.0505    4.2916   H         1 RES1   0.0000
   159 H90      -0.8956   -3.1968    5.9797   H         1 RES1   0.0000
   160 H91       0.8391   -4.2274    4.7214   H         1 RES1   0.0000
   161 H92       1.4988   -2.6894    5.2658   H         1 RES1   0.0000
   162 H93       0.2104   -3.0592    2.5291   H         1 RES1   0.0000
   163 H94       1.8835   -3.5265    2.8300   H         1 RES1   0.0000
   164 H95       3.0647    0.6036    1.4256   H         1 RES1   0.0000
   165 H96       4.7038   -3.4613    1.9531   H         1 RES1   0.0000
   166 H97       3.7259   -2.6604    3.2189   H         1 RES1   0.0000
   167 H98       5.9185   -1.3343    1.5976   H         1 RES1   0.0000
   168 H99       6.1615   -2.0441    3.1911   H         1 RES1   0.0000
   169 H100      4.0402    0.0913    2.9100   H         1 RES1   0.0000
   170 H101      5.7428    0.5559    2.8667   H         1 RES1   0.0000
   171 H102      4.9624    0.8638    5.0570   H         1 RES1   0.0000
   172 H103      6.1105   -0.4635    5.0713   H         1 RES1   0.0000
   173 H104      3.1819   -1.1479    4.8362   H         1 RES1   0.0000
   174 H105      3.7605   -0.5367    6.3785   H         1 RES1   0.0000
   175 H106      4.9248   -3.0174    5.0235   H         1 RES1   0.0000
   176 H107      3.8567   -2.9785    6.4228   H         1 RES1   0.0000
   177 H108      5.4647   -2.2889    6.5279   H         1 RES1   0.0000
@<TRIPOS>BOND
     1     1    10    1
     2     1    11    1
     3     1    54    1
     4     1    55    1
     5     1    98    1
     6     1    99    1
     7     1   142    1
     8     1   143    1
     9     2     3    1
    10     2    19    1
    11     2    20    1
    12     2    21    1
    13     3     4    1
    14     3    22    1
    15     3    23    1
    16     4     5    1
    17     4    24    1
    18     4    25    1
    19     5     6    1
    20     5    26    1
    21     5    27    1
    22     6     7    1
    23     6    28    1
    24     6    29    1
    25     7     8    1
    26     7    30    1
    27     7    31    1
    28     8     9    1
    29     9    10    2
    30     9    11    1
    31     9    12    1
    32    11    32    1
    33    12    13    1
    34    13    14    1
    35    13    33    1
    36    13    34    1
    37    14    15    1
    38    14    35    1
    39    14    36    1
    40    15    16    1
    41    15    37    1
    42    15    38    1
    43    16    17    1
    44    16    39    1
    45    16    40    1
    46    17    18    1
    47    17    41    1
    48    17    42    1
    49    18    43    1
    50    18    44    1
    51    18    45    1
    52    46    47    1
    53    46    63    1
    54    46    64    1
    55    46    65    1
    56    47    48    1
    57    47    66    1
    58    47    67    1
    59    48    49    1
    60    48    68    1
    61    48    69    1
    62    49    50    1
    63    49    70    1
    64    49    71    1
    65    50    51    1
    66    50    72    1
    67    50    73    1
    68    51    52    1
    69    51    74    1
    70    51    75    1
    71    52    53    1
    72    53    54    2
    73    53    55    1
    74    53    56    1
    75    55    76    1
    76    56    57    1
    77    57    58    1
    78    57    77    1
    79    57    78    1
    80    58    59    1
    81    58    79    1
    82    58    80    1
    83    59    60    1
    84    59    81    1
    85    59    82    1
    86    60    61    1
    87    60    83    1
    88    60    84    1
    89    61    62    1
    90    61    85    1
    91    61    86    1
    92    62    87    1
    93    62    88    1
    94    62    89    1
    95    90    91    1
    96    90   107    1
    97    90   108    1
    98    90   109    1
    99    91    92    1
   100    91   110    1
   101    91   111    1
   102    92    93    1
   103    92   112    1
   104    92   113    1
   105    93    94    1
   106    93   114    1
   107    93   115    1
   108    94    95    1
   109    94   116    1
   110    94   117    1
   111    95    96    1
   112    95   118    1
   113    95   119    1
   114    96    97    1
   115    97    98    2
   116    97    99    1
   117    97   100    1
   118    99   120    1
   119   100   101    1
   120   101   102    1
   121   101   121    1
   122   101   122    1
   123   102   103    1
   124   102   123    1
   125   102   124    1
   126   103   104    1
   127   103   125    1
   128   103   126    1
   129   104   105    1
   130   104   127    1
   131   104   128    1
   132   105   106    1
   133   105   129    1
   134   105   130    1
   135   106   131    1
   136   106   132    1
   137   106   133    1
   138   134   135    1
   139   134   151    1
   140   134   152    1
   141   134   153    1
   142   135   136    1
   143   135   154    1
   144   135   155    1
   145   136   137    1
   146   136   156    1
   147   136   157    1
   148   137   138    1
   149   137   158    1
   150   137   159    1
   151   138   139    1
   152   138   160    1
   153   138   161    1
   154   139   140    1
   155   139   162    1
   156   139   163    1
   157   140   141    1
   158   141   142    2
   159   141   143    1
   160   141   144    1
   161   143   164    1
   162   144   145    1
   163   145   146    1
   164   145   165    1
   165   145   166    1
   166   146   147    1
   167   146   167    1
   168   146   168    1
   169   147   148    1
   170   147   169    1
   171   147   170    1
   172   148   149    1
   173   148   171    1
   174   148   172    1
   175   149   150    1
   176   149   173    1
   177   149   174    1
   178   150   175    1
   179   150   176    1
   180   150   177    1
@<TRIPOS>SUBSTRUCTURE
     1 RES1      177 GROUP             0 ****  ****    0  
