@<TRIPOS>MOLECULE
ICIGOT_geomtry_0_nunpairedes_0_charge_1 Charge: 1 Unpaired_Electrons: 1 XTB_Unpaired_Electrons: 0 XTB_Charge: 1
   119   132     1     0     0
SMALL
NoCharges
****
Generated from Architector

@<TRIPOS>ATOM
     1 Yb1      -0.3370    0.0634   -0.0731   Yb        1 RES1   0.0000
     2 C1        4.4606    0.3063   -4.4653   C.3       1 RES1   0.0000
     3 C2        3.1817   -0.0075   -5.2295   C.3       1 RES1   0.0000
     4 C3        1.9336    0.3585   -4.4340   C.3       1 RES1   0.0000
     5 C4        0.6338    0.1544   -5.2101   C.3       1 RES1   0.0000
     6 C5        0.2930   -1.2788   -5.6290   C.3       1 RES1   0.0000
     7 C6       -0.2648   -2.2016   -4.5426   C.3       1 RES1   0.0000
     8 N1        0.6953   -2.6600   -3.5447   N.ar      1 RES1   0.0000
     9 C7        1.5574   -3.7158   -3.7490   C.ar      1 RES1   0.0000
    10 C8        1.5156   -4.4127   -5.0627   C.ar      1 RES1   0.0000
    11 C9        0.4885   -5.3041   -5.3681   C.ar      1 RES1   0.0000
    12 C10       0.4899   -5.9859   -6.5732   C.ar      1 RES1   0.0000
    13 C11       1.5081   -5.7756   -7.4892   C.ar      1 RES1   0.0000
    14 C12       2.5264   -4.8826   -7.2000   C.ar      1 RES1   0.0000
    15 C13       2.5327   -4.2101   -5.9907   C.ar      1 RES1   0.0000
    16 C14       2.4516   -4.1240   -2.7895   C.ar      1 RES1   0.0000
    17 C15       3.3952   -5.2345   -3.0653   C.ar      1 RES1   0.0000
    18 C16       2.9573   -6.5528   -3.0568   C.ar      1 RES1   0.0000
    19 C17       3.8585   -7.5818   -3.2612   C.ar      1 RES1   0.0000
    20 C18       5.1943   -7.2984   -3.4923   C.ar      1 RES1   0.0000
    21 C19       5.6316   -5.9850   -3.5247   C.ar      1 RES1   0.0000
    22 C20       4.7350   -4.9554   -3.3071   C.ar      1 RES1   0.0000
    23 C21       2.4807   -3.4764   -1.5092   C.ar      1 RES1   0.0000
    24 C22       3.3253   -3.7786   -0.4226   C.ar      1 RES1   0.0000
    25 C23       3.2533   -3.0233    0.7510   C.ar      1 RES1   0.0000
    26 C24       4.0623   -3.1917    1.9262   C.ar      1 RES1   0.0000
    27 C25       3.9839   -2.3585    2.9937   C.ar      1 RES1   0.0000
    28 C26       3.1046   -1.2231    3.0272   C.ar      1 RES1   0.0000
    29 C27       3.0493   -0.2428    4.0224   C.ar      1 RES1   0.0000
    30 C28       2.1900    0.8636    3.8709   C.ar      1 RES1   0.0000
    31 C29       2.0654    1.9921    4.7478   C.ar      1 RES1   0.0000
    32 C30       2.8740    2.0565    5.9919   C.ar      1 RES1   0.0000
    33 C31       4.2253    2.3804    5.9317   C.ar      1 RES1   0.0000
    34 C32       4.9850    2.4119    7.0874   C.ar      1 RES1   0.0000
    35 C33       4.4019    2.1113    8.3074   C.ar      1 RES1   0.0000
    36 C34       3.0556    1.7936    8.3752   C.ar      1 RES1   0.0000
    37 C35       2.2926    1.7732    7.2218   C.ar      1 RES1   0.0000
    38 C36       1.2065    3.0152    4.4293   C.ar      1 RES1   0.0000
    39 C37       1.1056    4.2073    5.3132   C.ar      1 RES1   0.0000
    40 C38       2.0947    5.1887    5.2895   C.ar      1 RES1   0.0000
    41 C39       1.9973    6.2953    6.1154   C.ar      1 RES1   0.0000
    42 C40       0.9217    6.4252    6.9786   C.ar      1 RES1   0.0000
    43 C41      -0.0620    5.4510    7.0126   C.ar      1 RES1   0.0000
    44 C42       0.0266    4.3496    6.1804   C.ar      1 RES1   0.0000
    45 N2        0.4349    3.0094    3.2831   N.ar      1 RES1   0.0000
    46 C43      -0.3865    4.1457    2.8666   C.3       1 RES1   0.0000
    47 C44      -1.8915    3.8775    2.9659   C.3       1 RES1   0.0000
    48 C45      -2.7328    5.0357    2.4152   C.3       1 RES1   0.0000
    49 C46      -2.6421    5.2208    0.9010   C.3       1 RES1   0.0000
    50 C47      -3.5816    6.3080    0.3800   C.3       1 RES1   0.0000
    51 C48      -3.4756    6.4540   -1.1331   C.3       1 RES1   0.0000
    52 C49       0.4810    1.9834    2.3991   C.ar      1 RES1   0.0000
    53 O1       -0.1668    1.9875    1.3321   O.2       1 RES1   0.0000
    54 C50       1.3794    0.8855    2.7118   C.ar      1 RES1   0.0000
    55 N3        1.4101   -0.0502    1.7723   N.ar      1 RES1   0.0000
    56 C51       2.2485   -1.0667    1.9091   C.ar      1 RES1   0.0000
    57 C52       2.3051   -1.9704    0.7922   C.ar      1 RES1   0.0000
    58 N4        1.4717   -1.7041   -0.2065   N.ar      1 RES1   0.0000
    59 C53       1.5579   -2.4232   -1.3210   C.ar      1 RES1   0.0000
    60 C54       0.6599   -1.9750   -2.3724   C.ar      1 RES1   0.0000
    61 O2       -0.0784   -0.9896   -2.1910   O.2       1 RES1   0.0000
    62 H1        5.3370    0.0433   -5.0532   H         1 RES1   0.0000
    63 H2        4.4989   -0.2454   -3.5277   H         1 RES1   0.0000
    64 H3        4.5155    1.3662   -4.2334   H         1 RES1   0.0000
    65 H4        3.1713   -1.0685   -5.4819   H         1 RES1   0.0000
    66 H5        3.1802    0.5500   -6.1659   H         1 RES1   0.0000
    67 H6        1.9872    1.4148   -4.1671   H         1 RES1   0.0000
    68 H7        1.9148   -0.1969   -3.4969   H         1 RES1   0.0000
    69 H8        0.6989    0.7460   -6.1257   H         1 RES1   0.0000
    70 H9       -0.1891    0.5619   -4.6210   H         1 RES1   0.0000
    71 H10       1.1486   -1.7514   -6.1100   H         1 RES1   0.0000
    72 H11      -0.5020   -1.2122   -6.3737   H         1 RES1   0.0000
    73 H12      -0.7177   -3.0704   -5.0201   H         1 RES1   0.0000
    74 H13      -1.0195   -1.6646   -3.9630   H         1 RES1   0.0000
    75 H14      -0.3055   -5.4784   -4.6557   H         1 RES1   0.0000
    76 H15      -0.2959   -6.6947   -6.7952   H         1 RES1   0.0000
    77 H16       1.5080   -6.3176   -8.4214   H         1 RES1   0.0000
    78 H17       3.3298   -4.7118   -7.9023   H         1 RES1   0.0000
    79 H18       3.3350   -3.5221   -5.7713   H         1 RES1   0.0000
    80 H19       1.9150   -6.7637   -2.8715   H         1 RES1   0.0000
    81 H20       3.5257   -8.6079   -3.2231   H         1 RES1   0.0000
    82 H21       5.8920   -8.1060   -3.6428   H         1 RES1   0.0000
    83 H22       6.6704   -5.7515   -3.7022   H         1 RES1   0.0000
    84 H23       5.0735   -3.9299   -3.3257   H         1 RES1   0.0000
    85 H24       4.0403   -4.5839   -0.5250   H         1 RES1   0.0000
    86 H25       4.7602   -4.0120    1.9495   H         1 RES1   0.0000
    87 H26       4.6184   -2.5261    3.8486   H         1 RES1   0.0000
    88 H27       3.6863   -0.3102    4.8945   H         1 RES1   0.0000
    89 H28       4.6738    2.6113    4.9762   H         1 RES1   0.0000
    90 H29       6.0349    2.6625    7.0391   H         1 RES1   0.0000
    91 H30       5.0030    2.1245    9.2022   H         1 RES1   0.0000
    92 H31       2.5918    1.5506    9.3199   H         1 RES1   0.0000
    93 H32       1.2444    1.5218    7.2754   H         1 RES1   0.0000
    94 H33       2.9301    5.0909    4.6123   H         1 RES1   0.0000
    95 H34       2.7646    7.0560    6.0959   H         1 RES1   0.0000
    96 H35       0.8581    7.2832    7.6283   H         1 RES1   0.0000
    97 H36      -0.8990    5.5324    7.6901   H         1 RES1   0.0000
    98 H37      -0.7443    3.5948    6.2091   H         1 RES1   0.0000
    99 H38      -0.1420    4.3111    1.8147   H         1 RES1   0.0000
   100 H39      -0.1002    5.0135    3.4586   H         1 RES1   0.0000
   101 H40      -2.1624    3.7050    4.0098   H         1 RES1   0.0000
   102 H41      -2.1246    2.9748    2.3993   H         1 RES1   0.0000
   103 H42      -2.4511    5.9645    2.9140   H         1 RES1   0.0000
   104 H43      -3.7728    4.8314    2.6726   H         1 RES1   0.0000
   105 H44      -2.8870    4.2808    0.4062   H         1 RES1   0.0000
   106 H45      -1.6250    5.4881    0.6154   H         1 RES1   0.0000
   107 H46      -3.3386    7.2607    0.8524   H         1 RES1   0.0000
   108 H47      -4.6112    6.0681    0.6460   H         1 RES1   0.0000
   109 H48      -2.4631    6.7227   -1.4228   H         1 RES1   0.0000
   110 H49      -4.1489    7.2247   -1.5004   H         1 RES1   0.0000
   111 H50      -3.7270    5.5191   -1.6263   H         1 RES1   0.0000
   112 N5       -2.1849   -1.1962    0.9479   N.3       1 RES1   0.0000
   113 O3       -3.2256   -1.5626    1.3809   O.2       1 RES1   0.0000
   114 O4       -1.3694   -0.5671    1.6521   O.co2     1 RES1   0.0000
   115 O5       -1.8207   -1.4502   -0.2105   O.co2     1 RES1   0.0000
   116 N6       -0.9050    1.9669   -1.4742   N.3       1 RES1   0.0000
   117 O6       -1.1723    2.9036   -2.1504   O.2       1 RES1   0.0000
   118 O7        0.2745    1.5878   -1.3295   O.co2     1 RES1   0.0000
   119 O8       -1.7763    1.3146   -0.8700   O.co2     1 RES1   0.0000
@<TRIPOS>BOND
     1     1    53    1
     2     1    55    1
     3     1    58    1
     4     1    61    1
     5     1   114    1
     6     1   115    1
     7     1   118    1
     8     1   119    1
     9     2     3    1
    10     2    62    1
    11     2    63    1
    12     2    64    1
    13     3     4    1
    14     3    65    1
    15     3    66    1
    16     4     5    1
    17     4    67    1
    18     4    68    1
    19     5     6    1
    20     5    69    1
    21     5    70    1
    22     6     7    1
    23     6    71    1
    24     6    72    1
    25     7     8    1
    26     7    73    1
    27     7    74    1
    28     8     9    1
    29     8    60    1
    30     9    10    1
    31     9    16    2
    32    10    11    1
    33    10    15    2
    34    11    12    2
    35    11    75    1
    36    12    13    1
    37    12    76    1
    38    13    14    2
    39    13    77    1
    40    14    15    1
    41    14    78    1
    42    15    79    1
    43    16    17    1
    44    16    23    1
    45    17    18    1
    46    17    22    2
    47    18    19    2
    48    18    80    1
    49    19    20    1
    50    19    81    1
    51    20    21    2
    52    20    82    1
    53    21    22    1
    54    21    83    1
    55    22    84    1
    56    23    24    1
    57    23    59    2
    58    24    25    2
    59    24    85    1
    60    25    26    1
    61    25    57    1
    62    26    27    2
    63    26    86    1
    64    27    28    1
    65    27    87    1
    66    28    29    1
    67    28    56    2
    68    29    30    2
    69    29    88    1
    70    30    31    1
    71    30    54    1
    72    31    32    1
    73    31    38    2
    74    32    33    1
    75    32    37    2
    76    33    34    2
    77    33    89    1
    78    34    35    1
    79    34    90    1
    80    35    36    2
    81    35    91    1
    82    36    37    1
    83    36    92    1
    84    37    93    1
    85    38    39    1
    86    38    45    1
    87    39    40    1
    88    39    44    2
    89    40    41    2
    90    40    94    1
    91    41    42    1
    92    41    95    1
    93    42    43    2
    94    42    96    1
    95    43    44    1
    96    43    97    1
    97    44    98    1
    98    45    46    1
    99    45    52    1
   100    46    47    1
   101    46    99    1
   102    46   100    1
   103    47    48    1
   104    47   101    1
   105    47   102    1
   106    48    49    1
   107    48   103    1
   108    48   104    1
   109    49    50    1
   110    49   105    1
   111    49   106    1
   112    50    51    1
   113    50   107    1
   114    50   108    1
   115    51   109    1
   116    51   110    1
   117    51   111    1
   118    52    53    2
   119    52    54    1
   120    54    55    2
   121    55    56    1
   122    56    57    1
   123    57    58    2
   124    58    59    1
   125    59    60    1
   126    60    61    2
   127   112   113    2
   128   112   114    1
   129   112   115    1
   130   116   117    2
   131   116   118    1
   132   116   119    1
@<TRIPOS>SUBSTRUCTURE
     1 RES1      119 GROUP             0 ****  ****    0  
