@<TRIPOS>MOLECULE
am_c3_9H2O_c0_0_nunpairedes_0_charge_3 Charge: 3 Unpaired_Electrons: 1 XTB_Unpaired_Electrons: 0 XTB_Charge: 3
   126   137     1     0     0
SMALL
NoCharges
****
Generated from Architector

@<TRIPOS>ATOM
     1 Ce1      -0.1173    0.0513    0.0121   Ce        1 RES1   0.0000
     2 C1        0.7881    6.4015   -3.0996   C.3       1 RES1   0.0000
     3 C2       -0.2350    6.3858   -4.2297   C.3       1 RES1   0.0000
     4 C3       -1.2301    5.2210   -4.1752   C.3       1 RES1   0.0000
     5 C4       -0.7808    3.9081   -4.8280   C.3       1 RES1   0.0000
     6 C5        0.3586    3.1858   -4.1051   C.3       1 RES1   0.0000
     7 C6        0.5847    1.8028   -4.7286   C.3       1 RES1   0.0000
     8 N1        1.6586    1.0493   -4.0823   N.ar      1 RES1   0.0000
     9 C7        2.8246    0.7128   -4.7421   C.ar      1 RES1   0.0000
    10 C8        2.9565    1.1266   -6.1554   C.ar      1 RES1   0.0000
    11 C9        3.1418    2.4650   -6.4921   C.ar      1 RES1   0.0000
    12 C10       3.2631    2.8390   -7.8165   C.ar      1 RES1   0.0000
    13 C11       3.1809    1.8976   -8.8263   C.ar      1 RES1   0.0000
    14 C12       2.9814    0.5708   -8.4919   C.ar      1 RES1   0.0000
    15 C13       2.8814    0.1747   -7.1698   C.ar      1 RES1   0.0000
    16 C14       3.8118   -0.0431   -4.1447   C.ar      1 RES1   0.0000
    17 C15       5.0295   -0.3891   -4.9094   C.ar      1 RES1   0.0000
    18 C16       5.3271   -1.7247   -5.1730   C.ar      1 RES1   0.0000
    19 C17       6.4672   -2.0605   -5.8811   C.ar      1 RES1   0.0000
    20 C18       7.3397   -1.0757   -6.3152   C.ar      1 RES1   0.0000
    21 C19       7.0425    0.2537   -6.0611   C.ar      1 RES1   0.0000
    22 C20       5.8894    0.6015   -5.3782   C.ar      1 RES1   0.0000
    23 C21       3.6419   -0.4873   -2.7933   C.ar      1 RES1   0.0000
    24 C22       4.5843   -1.1789   -2.0051   C.ar      1 RES1   0.0000
    25 C23       4.2979   -1.5023   -0.6769   C.ar      1 RES1   0.0000
    26 C24       5.1905   -2.1764    0.2259   C.ar      1 RES1   0.0000
    27 C25       4.8224   -2.5188    1.4867   C.ar      1 RES1   0.0000
    28 C26       3.5228   -2.2020    2.0148   C.ar      1 RES1   0.0000
    29 C27       3.0528   -2.5792    3.2744   C.ar      1 RES1   0.0000
    30 C28       1.7288   -2.2828    3.6641   C.ar      1 RES1   0.0000
    31 C29       1.0697   -2.6593    4.8780   C.ar      1 RES1   0.0000
    32 C30       1.7822   -3.3999    5.9320   C.ar      1 RES1   0.0000
    33 C31       1.2316   -4.5611    6.4757   C.ar      1 RES1   0.0000
    34 C32       1.8989   -5.2506    7.4684   C.ar      1 RES1   0.0000
    35 C33       3.1263   -4.8070    7.9331   C.ar      1 RES1   0.0000
    36 C34       3.6744   -3.6528    7.4006   C.ar      1 RES1   0.0000
    37 C35       3.0108   -2.9480    6.4110   C.ar      1 RES1   0.0000
    38 C36      -0.2674   -2.3374    5.0648   C.ar      1 RES1   0.0000
    39 C37      -0.9384   -2.6341    6.3408   C.ar      1 RES1   0.0000
    40 C38      -2.1167   -3.3823    6.3660   C.ar      1 RES1   0.0000
    41 C39      -2.7415   -3.6658    7.5641   C.ar      1 RES1   0.0000
    42 C40      -2.2065   -3.2184    8.7592   C.ar      1 RES1   0.0000
    43 C41      -1.0394   -2.4747    8.7386   C.ar      1 RES1   0.0000
    44 C42      -0.4038   -2.1784    7.5466   C.ar      1 RES1   0.0000
    45 N2       -1.0084   -1.7012    4.0906   N.ar      1 RES1   0.0000
    46 C43      -2.3776   -1.2217    4.2929   C.3       1 RES1   0.0000
    47 C44      -3.3994   -1.9004    3.3717   C.3       1 RES1   0.0000
    48 C45      -4.7946   -1.2745    3.4795   C.3       1 RES1   0.0000
    49 C46      -4.9092    0.1462    2.9201   C.3       1 RES1   0.0000
    50 C47      -6.3436    0.6889    2.9579   C.3       1 RES1   0.0000
    51 C48      -7.3274   -0.0115    2.0295   C.3       1 RES1   0.0000
    52 C49      -0.4622   -1.3460    2.9065   C.ar      1 RES1   0.0000
    53 O1       -1.1528   -0.8062    1.9920   O.2       1 RES1   0.0000
    54 C50       0.9458   -1.5809    2.7128   C.ar      1 RES1   0.0000
    55 N3        1.4070   -1.1446    1.5355   N.ar      1 RES1   0.0000
    56 C51       2.6415   -1.4752    1.1708   C.ar      1 RES1   0.0000
    57 C52       3.0154   -1.1495   -0.1826   C.ar      1 RES1   0.0000
    58 N4        2.0943   -0.5426   -0.9228   N.ar      1 RES1   0.0000
    59 C53       2.4046   -0.1796   -2.1734   C.ar      1 RES1   0.0000
    60 C54       1.3831    0.5922   -2.8425   C.ar      1 RES1   0.0000
    61 O2        0.2692    0.8175   -2.2771   O.2       1 RES1   0.0000
    62 H1        1.3810    7.3097   -3.1510   H         1 RES1   0.0000
    63 H2        1.4725    5.5588   -3.1515   H         1 RES1   0.0000
    64 H3        0.2901    6.3846   -2.1330   H         1 RES1   0.0000
    65 H4        0.2785    6.3844   -5.1911   H         1 RES1   0.0000
    66 H5       -0.8046    7.3145   -4.1700   H         1 RES1   0.0000
    67 H6       -2.1315    5.5288   -4.7069   H         1 RES1   0.0000
    68 H7       -1.5136    5.0395   -3.1353   H         1 RES1   0.0000
    69 H8       -0.4823    4.1091   -5.8584   H         1 RES1   0.0000
    70 H9       -1.6443    3.2359   -4.8596   H         1 RES1   0.0000
    71 H10       0.1011    3.0620   -3.0486   H         1 RES1   0.0000
    72 H11       1.2737    3.7714   -4.1826   H         1 RES1   0.0000
    73 H12       0.8074    1.8908   -5.7908   H         1 RES1   0.0000
    74 H13      -0.3215    1.2031   -4.6026   H         1 RES1   0.0000
    75 H14       3.2125    3.2067   -5.7096   H         1 RES1   0.0000
    76 H15       3.4115    3.8751   -8.0582   H         1 RES1   0.0000
    77 H16       3.2596    2.1926   -9.8622   H         1 RES1   0.0000
    78 H17       2.8967   -0.1573   -9.2777   H         1 RES1   0.0000
    79 H18       2.7265   -0.8648   -6.9187   H         1 RES1   0.0000
    80 H19       4.6422   -2.5007   -4.8581   H         1 RES1   0.0000
    81 H20       6.6779   -3.0966   -6.0922   H         1 RES1   0.0000
    82 H21       8.2449   -1.3361   -6.8474   H         1 RES1   0.0000
    83 H22       7.7226    1.0189   -6.4008   H         1 RES1   0.0000
    84 H23       5.6613    1.6412   -5.1907   H         1 RES1   0.0000
    85 H24       5.5477   -1.4398   -2.4181   H         1 RES1   0.0000
    86 H25       6.1794   -2.4129   -0.1363   H         1 RES1   0.0000
    87 H26       5.5072   -3.0467    2.1352   H         1 RES1   0.0000
    88 H27       3.6974   -3.1499    3.9292   H         1 RES1   0.0000
    89 H28       0.2853   -4.9291    6.1074   H         1 RES1   0.0000
    90 H29       1.4513   -6.1367    7.8842   H         1 RES1   0.0000
    91 H30       3.6474   -5.3510    8.7067   H         1 RES1   0.0000
    92 H31       4.6216   -3.3030    7.7743   H         1 RES1   0.0000
    93 H32       3.4124   -2.0169    6.0337   H         1 RES1   0.0000
    94 H33      -2.5196   -3.7750    5.4436   H         1 RES1   0.0000
    95 H34      -3.6534   -4.2347    7.5576   H         1 RES1   0.0000
    96 H35      -2.6937   -3.4426    9.6956   H         1 RES1   0.0000
    97 H36      -0.6295   -2.1213    9.6674   H         1 RES1   0.0000
    98 H37       0.4994   -1.5856    7.5402   H         1 RES1   0.0000
    99 H38      -2.3443   -0.1552    4.0553   H         1 RES1   0.0000
   100 H39      -2.6403   -1.3414    5.3421   H         1 RES1   0.0000
   101 H40      -3.4723   -2.9613    3.6202   H         1 RES1   0.0000
   102 H41      -3.0514   -1.8184    2.3388   H         1 RES1   0.0000
   103 H42      -5.1172   -1.2826    4.5213   H         1 RES1   0.0000
   104 H43      -5.4731   -1.9199    2.9230   H         1 RES1   0.0000
   105 H44      -4.5372    0.1587    1.8871   H         1 RES1   0.0000
   106 H45      -4.2853    0.8250    3.5082   H         1 RES1   0.0000
   107 H46      -6.3111    1.7460    2.6901   H         1 RES1   0.0000
   108 H47      -6.7178    0.6258    3.9794   H         1 RES1   0.0000
   109 H48      -6.9806   -0.0017    0.9985   H         1 RES1   0.0000
   110 H49      -8.2804    0.5077    2.0652   H         1 RES1   0.0000
   111 H50      -7.5037   -1.0392    2.3304   H         1 RES1   0.0000
   112 O3       -2.1766    1.2697   -0.2189   O.3       1 RES1   0.0000
   113 H51      -2.3174    1.7568   -1.0463   H         1 RES1   0.0000
   114 H52      -3.0582    0.9995    0.0902   H         1 RES1   0.0000
   115 O4        1.8517    1.9857    0.0637   O.3       1 RES1   0.0000
   116 H53       1.9866    2.5877   -0.6813   H         1 RES1   0.0000
   117 H54       2.6503    2.0717    0.6030   H         1 RES1   0.0000
   118 O5       -0.2757    1.7248    2.0496   O.3       1 RES1   0.0000
   119 H55      -1.1745    1.9864    2.2974   H         1 RES1   0.0000
   120 H56       0.2497    1.8230    2.8563   H         1 RES1   0.0000
   121 O6       -1.8538   -1.0705   -1.6715   O.3       1 RES1   0.0000
   122 H57      -1.5409   -1.1664   -2.5842   H         1 RES1   0.0000
   123 H58      -2.6201   -1.6586   -1.5905   H         1 RES1   0.0000
   124 O7       -0.0384   -2.6312   -0.4109   O.3       1 RES1   0.0000
   125 H59      -0.5855   -3.2624    0.0817   H         1 RES1   0.0000
   126 H60       0.4504   -3.1598   -1.0601   H         1 RES1   0.0000
@<TRIPOS>BOND
     1     1    53    1
     2     1    55    1
     3     1    58    1
     4     1    61    1
     5     1   112    1
     6     1   115    1
     7     1   118    1
     8     1   121    1
     9     1   124    1
    10     2     3    1
    11     2    62    1
    12     2    63    1
    13     2    64    1
    14     3     4    1
    15     3    65    1
    16     3    66    1
    17     4     5    1
    18     4    67    1
    19     4    68    1
    20     5     6    1
    21     5    69    1
    22     5    70    1
    23     6     7    1
    24     6    71    1
    25     6    72    1
    26     7     8    1
    27     7    73    1
    28     7    74    1
    29     8     9    1
    30     8    60    1
    31     9    10    1
    32     9    16    2
    33    10    11    1
    34    10    15    2
    35    11    12    2
    36    11    75    1
    37    12    13    1
    38    12    76    1
    39    13    14    2
    40    13    77    1
    41    14    15    1
    42    14    78    1
    43    15    79    1
    44    16    17    1
    45    16    23    1
    46    17    18    1
    47    17    22    2
    48    18    19    2
    49    18    80    1
    50    19    20    1
    51    19    81    1
    52    20    21    2
    53    20    82    1
    54    21    22    1
    55    21    83    1
    56    22    84    1
    57    23    24    1
    58    23    59    2
    59    24    25    2
    60    24    85    1
    61    25    26    1
    62    25    57    1
    63    26    27    2
    64    26    86    1
    65    27    28    1
    66    27    87    1
    67    28    29    1
    68    28    56    2
    69    29    30    2
    70    29    88    1
    71    30    31    1
    72    30    54    1
    73    31    32    1
    74    31    38    2
    75    32    33    1
    76    32    37    2
    77    33    34    2
    78    33    89    1
    79    34    35    1
    80    34    90    1
    81    35    36    2
    82    35    91    1
    83    36    37    1
    84    36    92    1
    85    37    93    1
    86    38    39    1
    87    38    45    1
    88    39    40    1
    89    39    44    2
    90    40    41    2
    91    40    94    1
    92    41    42    1
    93    41    95    1
    94    42    43    2
    95    42    96    1
    96    43    44    1
    97    43    97    1
    98    44    98    1
    99    45    46    1
   100    45    52    1
   101    46    47    1
   102    46    99    1
   103    46   100    1
   104    47    48    1
   105    47   101    1
   106    47   102    1
   107    48    49    1
   108    48   103    1
   109    48   104    1
   110    49    50    1
   111    49   105    1
   112    49   106    1
   113    50    51    1
   114    50   107    1
   115    50   108    1
   116    51   109    1
   117    51   110    1
   118    51   111    1
   119    52    53    2
   120    52    54    1
   121    54    55    2
   122    55    56    1
   123    56    57    1
   124    57    58    2
   125    58    59    1
   126    59    60    1
   127    60    61    2
   128   112   113    1
   129   112   114    1
   130   115   116    1
   131   115   117    1
   132   118   119    1
   133   118   120    1
   134   121   122    1
   135   121   123    1
   136   124   125    1
   137   124   126    1
@<TRIPOS>SUBSTRUCTURE
     1 RES1      126 GROUP             0 ****  ****    0  
