@<TRIPOS>MOLECULE
am_c3_9H2O_c0_0_nunpairedes_0_charge_3 Charge: 3 Unpaired_Electrons: 5 XTB_Unpaired_Electrons: 0 XTB_Charge: 3
   268   273     1     0     0
SMALL
NoCharges
****
Generated from Architector

@<TRIPOS>ATOM
     1 Sm1      -0.0904   -0.0298   -0.0954   Sm        1 RES1   0.0000
     2 C1       -1.4996   -5.8562    0.0097   C.3       1 RES1   0.0000
     3 C2       -2.3801   -4.7818   -0.6234   C.3       1 RES1   0.0000
     4 C3       -3.8515   -4.9339   -0.2336   C.3       1 RES1   0.0000
     5 C4       -4.1555   -4.6928    1.2457   C.3       1 RES1   0.0000
     6 C5       -3.7287   -3.3268    1.7897   C.3       1 RES1   0.0000
     7 C6       -4.4431   -2.1568    1.1079   C.3       1 RES1   0.0000
     8 N1       -4.0704   -0.8778    1.7259   N.am      1 RES1   0.0000
     9 C7       -4.9162   -0.2890    2.7566   C.3       1 RES1   0.0000
    10 C8       -5.7775    0.8571    2.1946   C.3       1 RES1   0.0000
    11 C9       -6.8129    0.4227    1.1483   C.3       1 RES1   0.0000
    12 C10      -8.1809   -0.0060    1.6954   C.3       1 RES1   0.0000
    13 C11      -8.2163   -1.1990    2.6589   C.3       1 RES1   0.0000
    14 C12      -8.0571   -0.8143    4.1274   C.3       1 RES1   0.0000
    15 C13      -2.9900   -0.2742    1.2543   C.2       1 RES1   0.0000
    16 O1       -2.3497   -0.7126    0.2911   O.2       1 RES1   0.0000
    17 C14      -2.4217    0.9906    1.9335   C.3       1 RES1   0.0000
    18 O2       -1.4474    1.5814    1.0673   O.3       1 RES1   0.0000
    19 C15      -1.8753    2.7646    0.3958   C.3       1 RES1   0.0000
    20 C16      -1.2502    2.7986   -1.0103   C.2       1 RES1   0.0000
    21 O3       -0.8420    1.7409   -1.5193   O.2       1 RES1   0.0000
    22 N2       -1.1905    3.9832   -1.6045   N.am      1 RES1   0.0000
    23 C17      -0.7111    4.1024   -2.9815   C.3       1 RES1   0.0000
    24 C18       0.2122    5.2960   -3.2664   C.3       1 RES1   0.0000
    25 C19       1.6035    5.2022   -2.6403   C.3       1 RES1   0.0000
    26 C20       2.5296    6.3710   -2.9834   C.3       1 RES1   0.0000
    27 C21       3.9672    6.1106   -2.5212   C.3       1 RES1   0.0000
    28 C22       4.1062    5.9973   -1.0087   C.3       1 RES1   0.0000
    29 C23      -1.7498    5.1767   -0.9874   C.3       1 RES1   0.0000
    30 C24      -0.7399    5.8982   -0.0892   C.3       1 RES1   0.0000
    31 C25      -1.4201    6.9381    0.7973   C.3       1 RES1   0.0000
    32 C26      -0.4142    7.5749    1.7549   C.3       1 RES1   0.0000
    33 C27       0.1093    6.6038    2.8121   C.3       1 RES1   0.0000
    34 C28       1.0320    7.3097    3.7919   C.3       1 RES1   0.0000
    35 H1       -0.4706   -5.7978   -0.3486   H         1 RES1   0.0000
    36 H2       -1.8751   -6.8423   -0.2498   H         1 RES1   0.0000
    37 H3       -1.4979   -5.7827    1.0954   H         1 RES1   0.0000
    38 H4       -2.3253   -4.8764   -1.7076   H         1 RES1   0.0000
    39 H5       -2.0237   -3.7793   -0.3617   H         1 RES1   0.0000
    40 H6       -4.1645   -5.9526   -0.4698   H         1 RES1   0.0000
    41 H7       -4.4561   -4.2628   -0.8471   H         1 RES1   0.0000
    42 H8       -3.6606   -5.4581    1.8445   H         1 RES1   0.0000
    43 H9       -5.2280   -4.8217    1.4040   H         1 RES1   0.0000
    44 H10      -2.6503   -3.1909    1.6712   H         1 RES1   0.0000
    45 H11      -3.9613   -3.3045    2.8573   H         1 RES1   0.0000
    46 H12      -5.5225   -2.2792    1.1855   H         1 RES1   0.0000
    47 H13      -4.1593   -2.1164    0.0512   H         1 RES1   0.0000
    48 H14      -4.2824    0.0641    3.5820   H         1 RES1   0.0000
    49 H15      -5.5408   -1.0973    3.1289   H         1 RES1   0.0000
    50 H16      -5.1112    1.5958    1.7378   H         1 RES1   0.0000
    51 H17      -6.2915    1.3496    3.0189   H         1 RES1   0.0000
    52 H18      -6.3878   -0.3612    0.5176   H         1 RES1   0.0000
    53 H19      -6.9966    1.2830    0.4994   H         1 RES1   0.0000
    54 H20      -8.7951   -0.2419    0.8224   H         1 RES1   0.0000
    55 H21      -8.6433    0.8507    2.1900   H         1 RES1   0.0000
    56 H22      -7.4704   -1.9438    2.3674   H         1 RES1   0.0000
    57 H23      -9.1906   -1.6795    2.5575   H         1 RES1   0.0000
    58 H24      -7.1019   -0.3461    4.3479   H         1 RES1   0.0000
    59 H25      -8.1520   -1.6962    4.7544   H         1 RES1   0.0000
    60 H26      -8.8428   -0.1219    4.4157   H         1 RES1   0.0000
    61 H27      -1.8638    0.6661    2.8245   H         1 RES1   0.0000
    62 H28      -3.1794    1.7289    2.2015   H         1 RES1   0.0000
    63 H29      -1.5377    3.6322    0.9760   H         1 RES1   0.0000
    64 H30      -2.9687    2.8038    0.2757   H         1 RES1   0.0000
    65 H31      -1.5962    4.1981   -3.6182   H         1 RES1   0.0000
    66 H32      -0.2133    3.1636   -3.2386   H         1 RES1   0.0000
    67 H33      -0.2679    6.2280   -2.9698   H         1 RES1   0.0000
    68 H34       0.3285    5.3343   -4.3508   H         1 RES1   0.0000
    69 H35       2.0890    4.3109   -3.0334   H         1 RES1   0.0000
    70 H36       1.5135    5.1224   -1.5563   H         1 RES1   0.0000
    71 H37       2.1603    7.2931   -2.5336   H         1 RES1   0.0000
    72 H38       2.5264    6.5137   -4.0656   H         1 RES1   0.0000
    73 H39       4.5934    6.9317   -2.8668   H         1 RES1   0.0000
    74 H40       4.3433    5.1998   -2.9964   H         1 RES1   0.0000
    75 H41       3.7427    6.9029   -0.5325   H         1 RES1   0.0000
    76 H42       5.1506    5.8689   -0.7389   H         1 RES1   0.0000
    77 H43       3.5427    5.1492   -0.6211   H         1 RES1   0.0000
    78 H44      -2.6343    4.9042   -0.4082   H         1 RES1   0.0000
    79 H45      -2.0873    5.8386   -1.7838   H         1 RES1   0.0000
    80 H46       0.0071    6.4079   -0.6951   H         1 RES1   0.0000
    81 H47      -0.2152    5.1707    0.5368   H         1 RES1   0.0000
    82 H48      -2.2310    6.4757    1.3668   H         1 RES1   0.0000
    83 H49      -1.8641    7.7067    0.1616   H         1 RES1   0.0000
    84 H50      -0.8941    8.4131    2.2570   H         1 RES1   0.0000
    85 H51       0.4220    7.9813    1.1821   H         1 RES1   0.0000
    86 H52       0.6646    5.7884    2.3374   H         1 RES1   0.0000
    87 H53      -0.7342    6.1684    3.3539   H         1 RES1   0.0000
    88 H54       1.8901    7.7253    3.2712   H         1 RES1   0.0000
    89 H55       1.3890    6.6184    4.5494   H         1 RES1   0.0000
    90 H56       0.5084    8.1196    4.2890   H         1 RES1   0.0000
    91 C29       0.2141    0.3764   -7.4233   C.3       1 RES1   0.0000
    92 C30       0.1926    1.7906   -6.8538   C.3       1 RES1   0.0000
    93 C31       1.5145    2.5312   -7.0738   C.3       1 RES1   0.0000
    94 C32       2.6659    1.9966   -6.2106   C.3       1 RES1   0.0000
    95 C33       2.6063    2.5926   -4.8030   C.3       1 RES1   0.0000
    96 C34       3.6114    2.0002   -3.7959   C.3       1 RES1   0.0000
    97 N3        3.0815    0.8212   -3.1090   N.am      1 RES1   0.0000
    98 C35       3.3564   -0.4944   -3.7043   C.3       1 RES1   0.0000
    99 C36       4.3071   -1.2878   -2.7946   C.3       1 RES1   0.0000
   100 C37       5.1344   -2.3834   -3.4789   C.3       1 RES1   0.0000
   101 C38       4.3961   -3.6086   -4.0266   C.3       1 RES1   0.0000
   102 C39       3.5466   -4.4051   -3.0300   C.3       1 RES1   0.0000
   103 C40       4.2185   -4.7183   -1.6992   C.3       1 RES1   0.0000
   104 C41       2.3710    0.8706   -1.9842   C.2       1 RES1   0.0000
   105 O4        1.7931   -0.1234   -1.5018   O.2       1 RES1   0.0000
   106 C42       2.2856    2.2093   -1.2465   C.3       1 RES1   0.0000
   107 O5        1.3411    2.1955   -0.1643   O.3       1 RES1   0.0000
   108 C43       1.8813    2.5069    1.1193   C.3       1 RES1   0.0000
   109 C44       2.3313    1.1978    1.7886   C.2       1 RES1   0.0000
   110 O6        1.7672    0.1671    1.3700   O.2       1 RES1   0.0000
   111 N4        3.2267    1.1867    2.7590   N.am      1 RES1   0.0000
   112 C45       3.5616   -0.1084    3.3601   C.3       1 RES1   0.0000
   113 C46       4.1210   -1.1351    2.3643   C.3       1 RES1   0.0000
   114 C47       5.6029   -0.9783    2.0137   C.3       1 RES1   0.0000
   115 C48       6.5329   -1.0813    3.2252   C.3       1 RES1   0.0000
   116 C49       7.9832   -1.3616    2.8333   C.3       1 RES1   0.0000
   117 C50       8.5942   -0.2593    1.9822   C.3       1 RES1   0.0000
   118 C51       3.8852    2.3748    3.2923   C.3       1 RES1   0.0000
   119 C52       5.2722    2.6083    2.6858   C.3       1 RES1   0.0000
   120 C53       5.2364    2.7321    1.1661   C.3       1 RES1   0.0000
   121 C54       6.6248    2.8258    0.5399   C.3       1 RES1   0.0000
   122 C55       6.5615    2.7419   -0.9841   C.3       1 RES1   0.0000
   123 C56       7.9481    2.8310   -1.5993   C.3       1 RES1   0.0000
   124 H57      -0.7732   -0.0729   -7.3696   H         1 RES1   0.0000
   125 H58       0.5162    0.3976   -8.4656   H         1 RES1   0.0000
   126 H59       0.9120   -0.2623   -6.8862   H         1 RES1   0.0000
   127 H60      -0.6022    2.3497   -7.3496   H         1 RES1   0.0000
   128 H61      -0.0476    1.7598   -5.7869   H         1 RES1   0.0000
   129 H62       1.7780    2.4494   -8.1282   H         1 RES1   0.0000
   130 H63       1.3805    3.5961   -6.8657   H         1 RES1   0.0000
   131 H64       2.6086    0.9097   -6.1697   H         1 RES1   0.0000
   132 H65       3.6231    2.2688   -6.6611   H         1 RES1   0.0000
   133 H66       2.8104    3.6593   -4.9057   H         1 RES1   0.0000
   134 H67       1.5969    2.4697   -4.4040   H         1 RES1   0.0000
   135 H68       4.5157    1.6987   -4.3256   H         1 RES1   0.0000
   136 H69       3.9098    2.7506   -3.0580   H         1 RES1   0.0000
   137 H70       2.4175   -1.0357   -3.8582   H         1 RES1   0.0000
   138 H71       3.8236   -0.3280   -4.6741   H         1 RES1   0.0000
   139 H72       5.0245   -0.5705   -2.3848   H         1 RES1   0.0000
   140 H73       3.7417   -1.7034   -1.9580   H         1 RES1   0.0000
   141 H74       5.6889   -1.9350   -4.3069   H         1 RES1   0.0000
   142 H75       5.8745   -2.7251   -2.7517   H         1 RES1   0.0000
   143 H76       3.7592   -3.3169   -4.8669   H         1 RES1   0.0000
   144 H77       5.1630   -4.2721   -4.4306   H         1 RES1   0.0000
   145 H78       2.6130   -3.8752   -2.8394   H         1 RES1   0.0000
   146 H79       3.2817   -5.3474   -3.5112   H         1 RES1   0.0000
   147 H80       4.4508   -3.8105   -1.1471   H         1 RES1   0.0000
   148 H81       3.5595   -5.3383   -1.0926   H         1 RES1   0.0000
   149 H82       5.1406   -5.2682   -1.8575   H         1 RES1   0.0000
   150 H83       3.2910    2.4629   -0.8864   H         1 RES1   0.0000
   151 H84       1.9418    2.9679   -1.9527   H         1 RES1   0.0000
   152 H85       2.6731    3.2571    1.0301   H         1 RES1   0.0000
   153 H86       1.0467    2.9093    1.7141   H         1 RES1   0.0000
   154 H87       4.2888    0.0791    4.1460   H         1 RES1   0.0000
   155 H88       2.6507   -0.5104    3.8234   H         1 RES1   0.0000
   156 H89       3.9876   -2.1275    2.7999   H         1 RES1   0.0000
   157 H90       3.5333   -1.0971    1.4442   H         1 RES1   0.0000
   158 H91       5.8486   -1.7803    1.3117   H         1 RES1   0.0000
   159 H92       5.7689   -0.0382    1.4889   H         1 RES1   0.0000
   160 H93       6.5023   -0.1569    3.8086   H         1 RES1   0.0000
   161 H94       6.1841   -1.8906    3.8688   H         1 RES1   0.0000
   162 H95       8.5656   -1.4692    3.7478   H         1 RES1   0.0000
   163 H96       8.0360   -2.3095    2.2955   H         1 RES1   0.0000
   164 H97       8.5137    0.6997    2.4888   H         1 RES1   0.0000
   165 H98       9.6462   -0.4606    1.8114   H         1 RES1   0.0000
   166 H99       8.1030   -0.1980    1.0144   H         1 RES1   0.0000
   167 H100      3.2501    3.2502    3.1408   H         1 RES1   0.0000
   168 H101      3.9813    2.2075    4.3660   H         1 RES1   0.0000
   169 H102      5.6806    3.5172    3.1242   H         1 RES1   0.0000
   170 H103      5.9307    1.7893    2.9682   H         1 RES1   0.0000
   171 H104      4.7288    1.8515    0.7543   H         1 RES1   0.0000
   172 H105      4.6762    3.6307    0.8918   H         1 RES1   0.0000
   173 H106      7.0887    3.7665    0.8371   H         1 RES1   0.0000
   174 H107      7.2524    2.0183    0.9168   H         1 RES1   0.0000
   175 H108      6.0912    1.7961   -1.2761   H         1 RES1   0.0000
   176 H109      5.9421    3.5563   -1.3690   H         1 RES1   0.0000
   177 H110      8.5795    2.0254   -1.2376   H         1 RES1   0.0000
   178 H111      7.8918    2.7653   -2.6808   H         1 RES1   0.0000
   179 H112      8.4160    3.7737   -1.3354   H         1 RES1   0.0000
   180 C57      -3.8474    2.8118   -4.4660   C.3       1 RES1   0.0000
   181 C58      -4.1224    1.4946   -3.7486   C.3       1 RES1   0.0000
   182 C59      -4.1688    0.2914   -4.6959   C.3       1 RES1   0.0000
   183 C60      -2.8411   -0.0513   -5.3810   C.3       1 RES1   0.0000
   184 C61      -1.7196   -0.5674   -4.4675   C.3       1 RES1   0.0000
   185 C62      -1.9822   -1.9941   -3.9635   C.3       1 RES1   0.0000
   186 N5       -0.7971   -2.6402   -3.3724   N.am      1 RES1   0.0000
   187 C63      -0.0353   -3.6270   -4.1328   C.3       1 RES1   0.0000
   188 C64      -0.2529   -5.0825   -3.6939   C.3       1 RES1   0.0000
   189 C65      -1.5944   -5.6739   -4.1407   C.3       1 RES1   0.0000
   190 C66      -1.5615   -6.4109   -5.4819   C.3       1 RES1   0.0000
   191 C67      -1.1633   -5.5878   -6.7116   C.3       1 RES1   0.0000
   192 C68       0.3408   -5.5177   -6.9640   C.3       1 RES1   0.0000
   193 C69      -0.4159   -2.1692   -2.1918   C.2       1 RES1   0.0000
   194 O7       -0.9355   -1.1457   -1.7244   O.2       1 RES1   0.0000
   195 C70       0.6634   -2.8559   -1.3246   C.3       1 RES1   0.0000
   196 O8        0.5757   -2.2550   -0.0314   O.3       1 RES1   0.0000
   197 C71       0.6547   -3.0838    1.1238   C.3       1 RES1   0.0000
   198 C72      -0.0778   -2.2974    2.2247   C.2       1 RES1   0.0000
   199 O9       -0.4339   -1.1311    1.9781   O.2       1 RES1   0.0000
   200 N6       -0.4082   -2.8991    3.3620   N.am      1 RES1   0.0000
   201 C73      -1.4767   -2.3309    4.1819   C.3       1 RES1   0.0000
   202 C74      -1.0935   -1.7560    5.5456   C.3       1 RES1   0.0000
   203 C75      -0.4035   -0.3951    5.4857   C.3       1 RES1   0.0000
   204 C76      -0.1261    0.1424    6.8923   C.3       1 RES1   0.0000
   205 C77       0.4319    1.5652    6.8969   C.3       1 RES1   0.0000
   206 C78       1.7646    1.6819    6.1716   C.3       1 RES1   0.0000
   207 C79       0.1968   -4.1400    3.8147   C.3       1 RES1   0.0000
   208 C80       1.6031   -3.9228    4.3770   C.3       1 RES1   0.0000
   209 C81       2.2253   -5.2658    4.7576   C.3       1 RES1   0.0000
   210 C82       3.6619   -5.1423    5.2636   C.3       1 RES1   0.0000
   211 C83       4.5993   -4.4853    4.2543   C.3       1 RES1   0.0000
   212 C84       6.0639   -4.6735    4.6174   C.3       1 RES1   0.0000
   213 H113     -3.9219    3.6432   -3.7668   H         1 RES1   0.0000
   214 H114     -4.5778    2.9754   -5.2535   H         1 RES1   0.0000
   215 H115     -2.8583    2.8165   -4.9174   H         1 RES1   0.0000
   216 H116     -5.0964    1.5707   -3.2603   H         1 RES1   0.0000
   217 H117     -3.3737    1.3305   -2.9674   H         1 RES1   0.0000
   218 H118     -4.8947    0.5097   -5.4825   H         1 RES1   0.0000
   219 H119     -4.5392   -0.5815   -4.1542   H         1 RES1   0.0000
   220 H120     -2.4824    0.8420   -5.8932   H         1 RES1   0.0000
   221 H121     -3.0331   -0.8040   -6.1509   H         1 RES1   0.0000
   222 H122     -1.5916    0.0999   -3.6117   H         1 RES1   0.0000
   223 H123     -0.7848   -0.5744   -5.0343   H         1 RES1   0.0000
   224 H124     -2.3254   -2.6216   -4.7858   H         1 RES1   0.0000
   225 H125     -2.7632   -1.9668   -3.1959   H         1 RES1   0.0000
   226 H126      1.0244   -3.3547   -4.0606   H         1 RES1   0.0000
   227 H127     -0.3314   -3.5103   -5.1740   H         1 RES1   0.0000
   228 H128     -0.1823   -5.1392   -2.6088   H         1 RES1   0.0000
   229 H129      0.5566   -5.6916   -4.0942   H         1 RES1   0.0000
   230 H130     -2.3535   -4.8881   -4.1600   H         1 RES1   0.0000
   231 H131     -1.9073   -6.4053   -3.3917   H         1 RES1   0.0000
   232 H132     -2.5685   -6.8060   -5.6339   H         1 RES1   0.0000
   233 H133     -0.8885   -7.2663   -5.3955   H         1 RES1   0.0000
   234 H134     -1.5932   -4.5844   -6.6441   H         1 RES1   0.0000
   235 H135     -1.6143   -6.0628   -7.5834   H         1 RES1   0.0000
   236 H136      0.8818   -4.9758   -6.1938   H         1 RES1   0.0000
   237 H137      0.5322   -5.0262   -7.9134   H         1 RES1   0.0000
   238 H138      0.7563   -6.5196   -7.0246   H         1 RES1   0.0000
   239 H139      1.6539   -2.6280   -1.7459   H         1 RES1   0.0000
   240 H140      0.5113   -3.9358   -1.2718   H         1 RES1   0.0000
   241 H141      0.1264   -4.0316    0.9625   H         1 RES1   0.0000
   242 H142      1.7014   -3.2944    1.3901   H         1 RES1   0.0000
   243 H143     -2.1787   -3.1547    4.3413   H         1 RES1   0.0000
   244 H144     -1.9603   -1.5508    3.5868   H         1 RES1   0.0000
   245 H145     -0.4684   -2.4631    6.0916   H         1 RES1   0.0000
   246 H146     -2.0263   -1.6486    6.1049   H         1 RES1   0.0000
   247 H147     -1.0473    0.3147    4.9543   H         1 RES1   0.0000
   248 H148      0.5304   -0.4852    4.9260   H         1 RES1   0.0000
   249 H149      0.5719   -0.5259    7.4015   H         1 RES1   0.0000
   250 H150     -1.0581    0.1340    7.4622   H         1 RES1   0.0000
   251 H151      0.5636    1.8775    7.9321   H         1 RES1   0.0000
   252 H152     -0.2914    2.2451    6.4417   H         1 RES1   0.0000
   253 H153      2.4787    0.9778    6.5896   H         1 RES1   0.0000
   254 H154      2.1648    2.6844    6.2879   H         1 RES1   0.0000
   255 H155      1.6455    1.4777    5.1095   H         1 RES1   0.0000
   256 H156      0.2409   -4.8546    2.9885   H         1 RES1   0.0000
   257 H157     -0.4389   -4.5697    4.5903   H         1 RES1   0.0000
   258 H158      1.5567   -3.2749    5.2539   H         1 RES1   0.0000
   259 H159      2.2151   -3.4256    3.6230   H         1 RES1   0.0000
   260 H160      2.2076   -5.9239    3.8849   H         1 RES1   0.0000
   261 H161      1.6161   -5.7297    5.5354   H         1 RES1   0.0000
   262 H162      4.0264   -6.1442    5.4881   H         1 RES1   0.0000
   263 H163      3.6796   -4.5753    6.1952   H         1 RES1   0.0000
   264 H164      4.3864   -3.4152    4.2203   H         1 RES1   0.0000
   265 H165      4.4211   -4.9056    3.2612   H         1 RES1   0.0000
   266 H166      6.2803   -4.2169    5.5792   H         1 RES1   0.0000
   267 H167      6.7025   -4.2180    3.8645   H         1 RES1   0.0000
   268 H168      6.3082   -5.7293    4.6757   H         1 RES1   0.0000
@<TRIPOS>BOND
     1     1    16    1
     2     1    18    1
     3     1    21    1
     4     1   105    1
     5     1   107    1
     6     1   110    1
     7     1   194    1
     8     1   196    1
     9     1   199    1
    10     2     3    1
    11     2    35    1
    12     2    36    1
    13     2    37    1
    14     3     4    1
    15     3    38    1
    16     3    39    1
    17     4     5    1
    18     4    40    1
    19     4    41    1
    20     5     6    1
    21     5    42    1
    22     5    43    1
    23     6     7    1
    24     6    44    1
    25     6    45    1
    26     7     8    1
    27     7    46    1
    28     7    47    1
    29     8     9    1
    30     8    15    1
    31     9    10    1
    32     9    48    1
    33     9    49    1
    34    10    11    1
    35    10    50    1
    36    10    51    1
    37    11    12    1
    38    11    52    1
    39    11    53    1
    40    12    13    1
    41    12    54    1
    42    12    55    1
    43    13    14    1
    44    13    56    1
    45    13    57    1
    46    14    58    1
    47    14    59    1
    48    14    60    1
    49    15    16    2
    50    15    17    1
    51    17    18    1
    52    17    61    1
    53    17    62    1
    54    18    19    1
    55    19    20    1
    56    19    63    1
    57    19    64    1
    58    20    21    2
    59    20    22    1
    60    22    23    1
    61    22    29    1
    62    23    24    1
    63    23    65    1
    64    23    66    1
    65    24    25    1
    66    24    67    1
    67    24    68    1
    68    25    26    1
    69    25    69    1
    70    25    70    1
    71    26    27    1
    72    26    71    1
    73    26    72    1
    74    27    28    1
    75    27    73    1
    76    27    74    1
    77    28    75    1
    78    28    76    1
    79    28    77    1
    80    29    30    1
    81    29    78    1
    82    29    79    1
    83    30    31    1
    84    30    80    1
    85    30    81    1
    86    31    32    1
    87    31    82    1
    88    31    83    1
    89    32    33    1
    90    32    84    1
    91    32    85    1
    92    33    34    1
    93    33    86    1
    94    33    87    1
    95    34    88    1
    96    34    89    1
    97    34    90    1
    98    91    92    1
    99    91   124    1
   100    91   125    1
   101    91   126    1
   102    92    93    1
   103    92   127    1
   104    92   128    1
   105    93    94    1
   106    93   129    1
   107    93   130    1
   108    94    95    1
   109    94   131    1
   110    94   132    1
   111    95    96    1
   112    95   133    1
   113    95   134    1
   114    96    97    1
   115    96   135    1
   116    96   136    1
   117    97    98    1
   118    97   104    1
   119    98    99    1
   120    98   137    1
   121    98   138    1
   122    99   100    1
   123    99   139    1
   124    99   140    1
   125   100   101    1
   126   100   141    1
   127   100   142    1
   128   101   102    1
   129   101   143    1
   130   101   144    1
   131   102   103    1
   132   102   145    1
   133   102   146    1
   134   103   147    1
   135   103   148    1
   136   103   149    1
   137   104   105    2
   138   104   106    1
   139   106   107    1
   140   106   150    1
   141   106   151    1
   142   107   108    1
   143   108   109    1
   144   108   152    1
   145   108   153    1
   146   109   110    2
   147   109   111    1
   148   111   112    1
   149   111   118    1
   150   112   113    1
   151   112   154    1
   152   112   155    1
   153   113   114    1
   154   113   156    1
   155   113   157    1
   156   114   115    1
   157   114   158    1
   158   114   159    1
   159   115   116    1
   160   115   160    1
   161   115   161    1
   162   116   117    1
   163   116   162    1
   164   116   163    1
   165   117   164    1
   166   117   165    1
   167   117   166    1
   168   118   119    1
   169   118   167    1
   170   118   168    1
   171   119   120    1
   172   119   169    1
   173   119   170    1
   174   120   121    1
   175   120   171    1
   176   120   172    1
   177   121   122    1
   178   121   173    1
   179   121   174    1
   180   122   123    1
   181   122   175    1
   182   122   176    1
   183   123   177    1
   184   123   178    1
   185   123   179    1
   186   180   181    1
   187   180   213    1
   188   180   214    1
   189   180   215    1
   190   181   182    1
   191   181   216    1
   192   181   217    1
   193   182   183    1
   194   182   218    1
   195   182   219    1
   196   183   184    1
   197   183   220    1
   198   183   221    1
   199   184   185    1
   200   184   222    1
   201   184   223    1
   202   185   186    1
   203   185   224    1
   204   185   225    1
   205   186   187    1
   206   186   193    1
   207   187   188    1
   208   187   226    1
   209   187   227    1
   210   188   189    1
   211   188   228    1
   212   188   229    1
   213   189   190    1
   214   189   230    1
   215   189   231    1
   216   190   191    1
   217   190   232    1
   218   190   233    1
   219   191   192    1
   220   191   234    1
   221   191   235    1
   222   192   236    1
   223   192   237    1
   224   192   238    1
   225   193   194    2
   226   193   195    1
   227   195   196    1
   228   195   239    1
   229   195   240    1
   230   196   197    1
   231   197   198    1
   232   197   241    1
   233   197   242    1
   234   198   199    2
   235   198   200    1
   236   200   201    1
   237   200   207    1
   238   201   202    1
   239   201   243    1
   240   201   244    1
   241   202   203    1
   242   202   245    1
   243   202   246    1
   244   203   204    1
   245   203   247    1
   246   203   248    1
   247   204   205    1
   248   204   249    1
   249   204   250    1
   250   205   206    1
   251   205   251    1
   252   205   252    1
   253   206   253    1
   254   206   254    1
   255   206   255    1
   256   207   208    1
   257   207   256    1
   258   207   257    1
   259   208   209    1
   260   208   258    1
   261   208   259    1
   262   209   210    1
   263   209   260    1
   264   209   261    1
   265   210   211    1
   266   210   262    1
   267   210   263    1
   268   211   212    1
   269   211   264    1
   270   211   265    1
   271   212   266    1
   272   212   267    1
   273   212   268    1
@<TRIPOS>SUBSTRUCTURE
     1 RES1      268 GROUP             0 ****  ****    0  
