@<TRIPOS>MOLECULE
am_c3_9H2O_c0_0_nunpairedes_0_charge_2 Charge: 2 Unpaired_Electrons: 5 XTB_Unpaired_Electrons: 0 XTB_Charge: 2
    66    75     1     0     0
SMALL
NoCharges
****
Generated from Architector

@<TRIPOS>ATOM
     1 Sm1       0.4385   -0.6496   -0.5097   Sm        1 RES1   0.0000
     2 C1        3.1779   -3.9909    0.1326   C.3       1 RES1   0.0000
     3 C2        1.9333   -4.8792    0.0710   C.3       1 RES1   0.0000
     4 C3        0.6247   -4.0968    0.2088   C.3       1 RES1   0.0000
     5 C4        0.0396   -3.4621   -1.0379   C.ar      1 RES1   0.0000
     6 N1       -1.1805   -2.9673   -0.8100   N.ar      1 RES1   0.0000
     7 N2       -1.8910   -2.2947   -1.6550   N.ar      1 RES1   0.0000
     8 C5       -1.2190   -1.8899   -2.7373   C.ar      1 RES1   0.0000
     9 C6       -1.3053   -0.5190   -3.3259   C.ar      1 RES1   0.0000
    10 C7       -1.7255   -0.0418   -4.5510   C.ar      1 RES1   0.0000
    11 C8       -1.2631    1.2122   -4.9437   C.ar      1 RES1   0.0000
    12 C9       -0.3062    1.8890   -4.1912   C.ar      1 RES1   0.0000
    13 C10       0.0850    1.3175   -2.9976   C.ar      1 RES1   0.0000
    14 C11       1.3184    1.4892   -2.1827   C.ar      1 RES1   0.0000
    15 N3        1.4722    2.3191   -1.1743   N.ar      1 RES1   0.0000
    16 N4        2.4133    2.0325   -0.3198   N.ar      1 RES1   0.0000
    17 C12       3.3380    1.1160   -0.5585   C.ar      1 RES1   0.0000
    18 C13       4.3483    0.8900    0.5146   C.3       1 RES1   0.0000
    19 C14       4.2082   -0.4854    1.1841   C.3       1 RES1   0.0000
    20 C15       2.8003   -0.7552    1.7182   C.3       1 RES1   0.0000
    21 C16       3.2749    0.3427   -1.7599   C.ar      1 RES1   0.0000
    22 C17       4.3368   -0.5312   -2.3187   C.3       1 RES1   0.0000
    23 C18       4.7004   -0.0550   -3.7479   C.3       1 RES1   0.0000
    24 C19       5.7221   -0.9971   -4.3582   C.3       1 RES1   0.0000
    25 N5        2.1243    0.4259   -2.4324   N.ar      1 RES1   0.0000
    26 N6       -0.4624    0.1783   -2.5451   N.ar      1 RES1   0.0000
    27 N7       -0.0603   -2.4218   -3.0900   N.ar      1 RES1   0.0000
    28 C20       0.5410   -3.3654   -2.3794   C.ar      1 RES1   0.0000
    29 C21       1.6396   -4.0629   -3.0994   C.3       1 RES1   0.0000
    30 C22       1.8945   -3.3832   -4.4552   C.3       1 RES1   0.0000
    31 C23       2.9242   -4.1026   -5.3116   C.3       1 RES1   0.0000
    32 H1        4.0178   -4.5089   -0.3230   H         1 RES1   0.0000
    33 H2        3.4483   -3.7989    1.1699   H         1 RES1   0.0000
    34 H3        3.0184   -3.0283   -0.3906   H         1 RES1   0.0000
    35 H4        1.9898   -5.5938    0.8925   H         1 RES1   0.0000
    36 H5        1.9033   -5.4701   -0.8434   H         1 RES1   0.0000
    37 H6        0.7407   -3.2999    0.9786   H         1 RES1   0.0000
    38 H7       -0.1539   -4.7743    0.5804   H         1 RES1   0.0000
    39 H8       -2.3781   -0.6226   -5.1830   H         1 RES1   0.0000
    40 H9       -1.5716    1.6329   -5.8859   H         1 RES1   0.0000
    41 H10       0.1659    2.7919   -4.5398   H         1 RES1   0.0000
    42 H11       4.2053    1.6938    1.2355   H         1 RES1   0.0000
    43 H12       5.3502    0.9648    0.0887   H         1 RES1   0.0000
    44 H13       4.9101   -0.5118    2.0166   H         1 RES1   0.0000
    45 H14       4.4805   -1.2846    0.4906   H         1 RES1   0.0000
    46 H15       2.4167    0.1045    2.2727   H         1 RES1   0.0000
    47 H16       2.8079   -1.6111    2.3936   H         1 RES1   0.0000
    48 H17       2.0917   -1.0033    0.8495   H         1 RES1   0.0000
    49 H18       3.9877   -1.5683   -2.3976   H         1 RES1   0.0000
    50 H19       5.2298   -0.5207   -1.6966   H         1 RES1   0.0000
    51 H20       5.1110    0.9528   -3.6966   H         1 RES1   0.0000
    52 H21       3.7955   -0.0279   -4.3562   H         1 RES1   0.0000
    53 H22       6.6356   -1.0070   -3.7704   H         1 RES1   0.0000
    54 H23       5.9643   -0.6824   -5.3688   H         1 RES1   0.0000
    55 H24       5.3272   -2.0062   -4.4010   H         1 RES1   0.0000
    56 H25       1.3592   -5.1063   -3.2754   H         1 RES1   0.0000
    57 H26       2.5448   -4.0824   -2.4895   H         1 RES1   0.0000
    58 H27       2.2081   -2.3510   -4.2723   H         1 RES1   0.0000
    59 H28       0.9597   -3.3448   -5.0134   H         1 RES1   0.0000
    60 H29       3.9012   -4.1216   -4.8377   H         1 RES1   0.0000
    61 H30       3.0219   -3.5863   -6.2639   H         1 RES1   0.0000
    62 H31       2.6102   -5.1220   -5.5163   H         1 RES1   0.0000
    63 N8       -0.9216    0.8703    0.8307   N.3       1 RES1   0.0000
    64 O1       -1.5306    1.8421    1.0572   O.2       1 RES1   0.0000
    65 O2        0.3022    0.7411    1.0861   O.co2     1 RES1   0.0000
    66 O3       -1.4098   -0.1392    0.2716   O.co2     1 RES1   0.0000
@<TRIPOS>BOND
     1     1     6    1
     2     1     7    1
     3     1    15    1
     4     1    16    1
     5     1    25    1
     6     1    26    1
     7     1    27    1
     8     1    65    1
     9     1    66    1
    10     2     3    1
    11     2    32    1
    12     2    33    1
    13     2    34    1
    14     3     4    1
    15     3    35    1
    16     3    36    1
    17     4     5    1
    18     4    37    1
    19     4    38    1
    20     5     6    1
    21     5    28    2
    22     6     7    2
    23     7     8    1
    24     8     9    1
    25     8    27    2
    26     9    10    1
    27     9    26    2
    28    10    11    2
    29    10    39    1
    30    11    12    1
    31    11    40    1
    32    12    13    2
    33    12    41    1
    34    13    14    1
    35    13    26    1
    36    14    15    1
    37    14    25    2
    38    15    16    2
    39    16    17    1
    40    17    18    1
    41    17    21    2
    42    18    19    1
    43    18    42    1
    44    18    43    1
    45    19    20    1
    46    19    44    1
    47    19    45    1
    48    20    46    1
    49    20    47    1
    50    20    48    1
    51    21    22    1
    52    21    25    1
    53    22    23    1
    54    22    49    1
    55    22    50    1
    56    23    24    1
    57    23    51    1
    58    23    52    1
    59    24    53    1
    60    24    54    1
    61    24    55    1
    62    27    28    1
    63    28    29    1
    64    29    30    1
    65    29    56    1
    66    29    57    1
    67    30    31    1
    68    30    58    1
    69    30    59    1
    70    31    60    1
    71    31    61    1
    72    31    62    1
    73    63    64    2
    74    63    65    1
    75    63    66    1
@<TRIPOS>SUBSTRUCTURE
     1 RES1       66 GROUP             0 ****  ****    0  
