@<TRIPOS>MOLECULE
capped_square_antiprismatic_0_nunpairedes_0_charge_3 Charge: 3 Unpaired_Electrons: 5 XTB_Unpaired_Electrons: 0 XTB_Charge: 3
   124   137     1     0     0
SMALL
NoCharges
****
Generated from Architector

@<TRIPOS>ATOM
     1 Sm1      -0.0159   -0.0247   -0.0342   Sm        1 RES1   0.0000
     2 C1        0.4926   -4.5765   -2.9462   C.3       1 RES1   0.0000
     3 C2        0.2888   -3.2490   -3.6576   C.3       1 RES1   0.0000
     4 N1       -1.0040   -2.6378   -3.3333   N.am      1 RES1   0.0000
     5 C3       -0.9989   -1.5891   -2.5116   C.2       1 RES1   0.0000
     6 O1        0.0722   -1.2153   -1.9807   O.2       1 RES1   0.0000
     7 C4       -2.2069   -0.7133   -2.2480   C.ar      1 RES1   0.0000
     8 C5       -3.2851   -0.5110   -3.1095   C.ar      1 RES1   0.0000
     9 C6       -4.2080    0.4668   -2.7705   C.ar      1 RES1   0.0000
    10 C7       -4.0079    1.2620   -1.6497   C.ar      1 RES1   0.0000
    11 C8       -2.8756    1.0451   -0.8635   C.ar      1 RES1   0.0000
    12 C9       -2.4799    1.9406    0.2672   C.ar      1 RES1   0.0000
    13 C10      -3.3260    2.9438    0.7449   C.ar      1 RES1   0.0000
    14 C11      -2.8820    3.7092    1.8053   C.ar      1 RES1   0.0000
    15 C12      -1.5931    3.5611    2.3062   C.ar      1 RES1   0.0000
    16 C13      -0.7591    2.6086    1.7269   C.ar      1 RES1   0.0000
    17 C14       0.7310    2.3230    1.9557   C.2       1 RES1   0.0000
    18 O2        1.2353    1.5325    1.1324   O.2       1 RES1   0.0000
    19 N2        1.4834    2.8322    2.9452   N.am      1 RES1   0.0000
    20 C15       1.0667    3.9054    3.8433   C.3       1 RES1   0.0000
    21 C16       1.0331    5.2400    3.1027   C.3       1 RES1   0.0000
    22 C17       2.8549    2.4216    3.0948   C.ar      1 RES1   0.0000
    23 C18       3.2597    1.1063    2.8720   C.ar      1 RES1   0.0000
    24 C19       4.5725    0.7259    3.0997   C.ar      1 RES1   0.0000
    25 C20       5.5045    1.6348    3.5723   C.ar      1 RES1   0.0000
    26 C21       5.1072    2.9405    3.8066   C.ar      1 RES1   0.0000
    27 C22       3.8026    3.3355    3.5602   C.ar      1 RES1   0.0000
    28 N3       -1.2531    1.7895    0.7794   N.ar      1 RES1   0.0000
    29 N4       -2.0401    0.0470   -1.1615   N.ar      1 RES1   0.0000
    30 C23      -2.1625   -3.3447   -3.7511   C.ar      1 RES1   0.0000
    31 C24      -2.2169   -3.9463   -5.0045   C.ar      1 RES1   0.0000
    32 C25      -3.3308   -4.6826   -5.3652   C.ar      1 RES1   0.0000
    33 C26      -4.4085   -4.8040   -4.5050   C.ar      1 RES1   0.0000
    34 C27      -4.3465   -4.2130   -3.2534   C.ar      1 RES1   0.0000
    35 C28      -3.2213   -3.5111   -2.8604   C.ar      1 RES1   0.0000
    36 H1        1.4616   -4.9671   -3.2344   H         1 RES1   0.0000
    37 H2       -0.2695   -5.2943   -3.2335   H         1 RES1   0.0000
    38 H3        0.4676   -4.4492   -1.8668   H         1 RES1   0.0000
    39 H4        0.3248   -3.3903   -4.7373   H         1 RES1   0.0000
    40 H5        1.0679   -2.5397   -3.3714   H         1 RES1   0.0000
    41 H6       -3.3968   -1.0821   -4.0179   H         1 RES1   0.0000
    42 H7       -5.0622    0.6242   -3.4088   H         1 RES1   0.0000
    43 H8       -4.7002    2.0585   -1.4410   H         1 RES1   0.0000
    44 H9       -4.3010    3.1127    0.3176   H         1 RES1   0.0000
    45 H10      -3.5301    4.4514    2.2346   H         1 RES1   0.0000
    46 H11      -1.2956    4.1978    3.1170   H         1 RES1   0.0000
    47 H12       1.7792    3.9331    4.6730   H         1 RES1   0.0000
    48 H13       0.1040    3.6296    4.2755   H         1 RES1   0.0000
    49 H14       2.0279    5.5404    2.7885   H         1 RES1   0.0000
    50 H15       0.6473    6.0114    3.7572   H         1 RES1   0.0000
    51 H16       0.4182    5.1854    2.2076   H         1 RES1   0.0000
    52 H17       2.5639    0.3586    2.5158   H         1 RES1   0.0000
    53 H18       4.8627   -0.2986    2.9168   H         1 RES1   0.0000
    54 H19       6.5280    1.3393    3.7495   H         1 RES1   0.0000
    55 H20       5.8228    3.6515    4.1911   H         1 RES1   0.0000
    56 H21       3.5477    4.3668    3.7433   H         1 RES1   0.0000
    57 H22      -1.4071   -3.8522   -5.7106   H         1 RES1   0.0000
    58 H23      -3.3488   -5.1673   -6.3253   H         1 RES1   0.0000
    59 H24      -5.2821   -5.3656   -4.7972   H         1 RES1   0.0000
    60 H25      -5.1784   -4.3234   -2.5794   H         1 RES1   0.0000
    61 H26      -3.1360   -3.1001   -1.8630   H         1 RES1   0.0000
    62 C29      -0.4060    4.9368   -2.7945   C.3       1 RES1   0.0000
    63 C30      -0.1684    3.5566   -3.3825   C.3       1 RES1   0.0000
    64 N5        1.1493    3.0025   -3.0456   N.am      1 RES1   0.0000
    65 C31       1.1690    1.9469   -2.2252   C.2       1 RES1   0.0000
    66 O3        0.1079    1.5906   -1.6639   O.2       1 RES1   0.0000
    67 C32       2.3678    1.0507   -1.9867   C.ar      1 RES1   0.0000
    68 C33       3.5370    0.9732   -2.7426   C.ar      1 RES1   0.0000
    69 C34       4.4694    0.0069   -2.3957   C.ar      1 RES1   0.0000
    70 C35       4.2045   -0.8895   -1.3705   C.ar      1 RES1   0.0000
    71 C36       2.9825   -0.8013   -0.7007   C.ar      1 RES1   0.0000
    72 C37       2.5459   -1.8125    0.3145   C.ar      1 RES1   0.0000
    73 C38       3.4233   -2.7681    0.8341   C.ar      1 RES1   0.0000
    74 C39       2.9216   -3.7019    1.7213   C.ar      1 RES1   0.0000
    75 C40       1.5704   -3.7141    2.0534   C.ar      1 RES1   0.0000
    76 C41       0.7398   -2.7493    1.4926   C.ar      1 RES1   0.0000
    77 C42      -0.7780   -2.5771    1.5866   C.2       1 RES1   0.0000
    78 O4       -1.2726   -1.9085    0.6550   O.2       1 RES1   0.0000
    79 N6       -1.5424   -3.0256    2.5963   N.am      1 RES1   0.0000
    80 C43      -1.1198   -4.0125    3.5907   C.3       1 RES1   0.0000
    81 C44      -1.1272   -5.4192    2.9997   C.3       1 RES1   0.0000
    82 C45      -2.8855   -2.5445    2.7607   C.ar      1 RES1   0.0000
    83 C46      -3.2216   -1.2271    2.4526   C.ar      1 RES1   0.0000
    84 C47      -4.4767   -0.7361    2.7673   C.ar      1 RES1   0.0000
    85 C48      -5.4180   -1.5324    3.3962   C.ar      1 RES1   0.0000
    86 C49      -5.0959   -2.8464    3.6872   C.ar      1 RES1   0.0000
    87 C50      -3.8472   -3.3539    3.3679   C.ar      1 RES1   0.0000
    88 N7        1.2573   -1.8160    0.6721   N.ar      1 RES1   0.0000
    89 N8        2.1242    0.1722   -1.0077   N.ar      1 RES1   0.0000
    90 C51       2.2695    3.7450   -3.5072   C.ar      1 RES1   0.0000
    91 C52       2.2590    4.3387   -4.7664   C.ar      1 RES1   0.0000
    92 C53       3.3297    5.1142   -5.1728   C.ar      1 RES1   0.0000
    93 C54       4.4298    5.2916   -4.3519   C.ar      1 RES1   0.0000
    94 C55       4.4287    4.7192   -3.0901   C.ar      1 RES1   0.0000
    95 C56       3.3483    3.9728   -2.6543   C.ar      1 RES1   0.0000
    96 H27      -1.3914    5.2639   -3.1071   H         1 RES1   0.0000
    97 H28       0.3267    5.6504   -3.1576   H         1 RES1   0.0000
    98 H29      -0.3668    4.9143   -1.7089   H         1 RES1   0.0000
    99 H30      -0.2314    3.5955   -4.4701   H         1 RES1   0.0000
   100 H31      -0.9223    2.8569   -3.0163   H         1 RES1   0.0000
   101 H32       3.7203    1.6308   -3.5768   H         1 RES1   0.0000
   102 H33       5.3901   -0.0516   -2.9525   H         1 RES1   0.0000
   103 H34       4.9238   -1.6572   -1.1440   H         1 RES1   0.0000
   104 H35       4.4597   -2.7914    0.5371   H         1 RES1   0.0000
   105 H36       3.5828   -4.4400    2.1409   H         1 RES1   0.0000
   106 H37       1.2172   -4.4771    2.7203   H         1 RES1   0.0000
   107 H38      -1.8095   -3.9565    4.4381   H         1 RES1   0.0000
   108 H39      -0.1396   -3.7197    3.9663   H         1 RES1   0.0000
   109 H40      -2.1375   -5.7247    2.7473   H         1 RES1   0.0000
   110 H41      -0.7278   -6.1240    3.7209   H         1 RES1   0.0000
   111 H42      -0.5432   -5.4699    2.0854   H         1 RES1   0.0000
   112 H43      -2.5136   -0.5628    1.9696   H         1 RES1   0.0000
   113 H44      -4.7157    0.2853    2.5157   H         1 RES1   0.0000
   114 H45      -6.3960   -1.1465    3.6395   H         1 RES1   0.0000
   115 H46      -5.8287   -3.4740    4.1680   H         1 RES1   0.0000
   116 H47      -3.6406   -4.3839    3.6110   H         1 RES1   0.0000
   117 H48       1.4312    4.2093   -5.4451   H         1 RES1   0.0000
   118 H49       3.2915    5.5898   -6.1368   H         1 RES1   0.0000
   119 H50       5.2704    5.8825   -4.6811   H         1 RES1   0.0000
   120 H51       5.2723    4.8820   -2.4416   H         1 RES1   0.0000
   121 H52       3.3181    3.5662   -1.6524   H         1 RES1   0.0000
   122 O5       -0.1648   -0.1103    2.8495   O.3       1 RES1   0.0000
   123 H53       0.6133   -0.2141    3.4138   H         1 RES1   0.0000
   124 H54      -0.8573    0.2332    3.4304   H         1 RES1   0.0000
@<TRIPOS>BOND
     1     1     6    1
     2     1    18    1
     3     1    28    1
     4     1    29    1
     5     1    66    1
     6     1    78    1
     7     1    88    1
     8     1    89    1
     9     1   122    1
    10     2     3    1
    11     2    36    1
    12     2    37    1
    13     2    38    1
    14     3     4    1
    15     3    39    1
    16     3    40    1
    17     4     5    1
    18     4    30    1
    19     5     6    2
    20     5     7    1
    21     7     8    1
    22     7    29    2
    23     8     9    2
    24     8    41    1
    25     9    10    1
    26     9    42    1
    27    10    11    2
    28    10    43    1
    29    11    12    1
    30    11    29    1
    31    12    13    1
    32    12    28    2
    33    13    14    2
    34    13    44    1
    35    14    15    1
    36    14    45    1
    37    15    16    2
    38    15    46    1
    39    16    17    1
    40    16    28    1
    41    17    18    2
    42    17    19    1
    43    19    20    1
    44    19    22    1
    45    20    21    1
    46    20    47    1
    47    20    48    1
    48    21    49    1
    49    21    50    1
    50    21    51    1
    51    22    23    1
    52    22    27    2
    53    23    24    2
    54    23    52    1
    55    24    25    1
    56    24    53    1
    57    25    26    2
    58    25    54    1
    59    26    27    1
    60    26    55    1
    61    27    56    1
    62    30    31    1
    63    30    35    2
    64    31    32    2
    65    31    57    1
    66    32    33    1
    67    32    58    1
    68    33    34    2
    69    33    59    1
    70    34    35    1
    71    34    60    1
    72    35    61    1
    73    62    63    1
    74    62    96    1
    75    62    97    1
    76    62    98    1
    77    63    64    1
    78    63    99    1
    79    63   100    1
    80    64    65    1
    81    64    90    1
    82    65    66    2
    83    65    67    1
    84    67    68    1
    85    67    89    2
    86    68    69    2
    87    68   101    1
    88    69    70    1
    89    69   102    1
    90    70    71    2
    91    70   103    1
    92    71    72    1
    93    71    89    1
    94    72    73    1
    95    72    88    2
    96    73    74    2
    97    73   104    1
    98    74    75    1
    99    74   105    1
   100    75    76    2
   101    75   106    1
   102    76    77    1
   103    76    88    1
   104    77    78    2
   105    77    79    1
   106    79    80    1
   107    79    82    1
   108    80    81    1
   109    80   107    1
   110    80   108    1
   111    81   109    1
   112    81   110    1
   113    81   111    1
   114    82    83    1
   115    82    87    2
   116    83    84    2
   117    83   112    1
   118    84    85    1
   119    84   113    1
   120    85    86    2
   121    85   114    1
   122    86    87    1
   123    86   115    1
   124    87   116    1
   125    90    91    1
   126    90    95    2
   127    91    92    2
   128    91   117    1
   129    92    93    1
   130    92   118    1
   131    93    94    2
   132    93   119    1
   133    94    95    1
   134    94   120    1
   135    95   121    1
   136   122   123    1
   137   122   124    1
@<TRIPOS>SUBSTRUCTURE
     1 RES1      124 GROUP             0 ****  ****    0  
