@<TRIPOS>MOLECULE
am_c3_9H2O_c0_0_nunpairedes_0_charge_3 Charge: 3 Unpaired_Electrons: 5 XTB_Unpaired_Electrons: 0 XTB_Charge: 3
   172   186     1     0     0
SMALL
NoCharges
****
Generated from Architector

@<TRIPOS>ATOM
     1 Sm1       0.0036    0.0034    0.0044   Sm        1 RES1   0.0000
     2 C1       -1.4246   -4.5059    2.0032   C.3       1 RES1   0.0000
     3 C2       -1.6031   -3.4246    3.0663   C.3       1 RES1   0.0000
     4 N1       -2.5957   -2.4447    2.6293   N.am      1 RES1   0.0000
     5 C3       -2.1776   -1.5564    1.7148   C.2       1 RES1   0.0000
     6 O1       -0.9536   -1.4446    1.4918   O.2       1 RES1   0.0000
     7 C4       -3.1157   -0.7937    0.8163   C.ar      1 RES1   0.0000
     8 C5       -4.5009   -0.9387    0.7438   C.ar      1 RES1   0.0000
     9 C6       -5.1830   -0.2019   -0.2144   C.ar      1 RES1   0.0000
    10 C7       -4.4892    0.6090   -1.1028   C.ar      1 RES1   0.0000
    11 C8       -3.1008    0.6381   -1.0175   C.ar      1 RES1   0.0000
    12 C9       -2.1356    1.4196   -1.8706   C.2       1 RES1   0.0000
    13 O2       -0.9395    1.3931   -1.5224   O.2       1 RES1   0.0000
    14 N2       -2.5024    2.2002   -2.8888   N.am      1 RES1   0.0000
    15 C10      -1.5220    3.1266   -3.4535   C.3       1 RES1   0.0000
    16 C11      -1.0330    2.7310   -4.8444   C.3       1 RES1   0.0000
    17 C12      -3.6830    2.0677   -3.6575   C.ar      1 RES1   0.0000
    18 C13      -4.4573    3.1731   -3.9758   C.ar      1 RES1   0.0000
    19 C14      -5.5570    3.0229   -4.8013   C.ar      1 RES1   0.0000
    20 C15      -5.8721    1.7710   -5.2991   C.ar      1 RES1   0.0000
    21 C16      -5.0892    0.6593   -5.0064   C.ar      1 RES1   0.0000
    22 C17      -5.4067   -0.6917   -5.5596   C.3       1 RES1   0.0000
    23 C18      -3.9827    0.8230   -4.1878   C.ar      1 RES1   0.0000
    24 N3       -2.4607   -0.0289   -0.0565   N.ar      1 RES1   0.0000
    25 C19      -3.8034   -2.4233    3.3619   C.ar      1 RES1   0.0000
    26 C20      -4.3872   -3.6080    3.7956   C.ar      1 RES1   0.0000
    27 C21      -5.5393   -3.5762    4.5590   C.ar      1 RES1   0.0000
    28 C22      -6.1188   -2.3609    4.8714   C.ar      1 RES1   0.0000
    29 C23      -5.5287   -1.1658    4.4764   C.ar      1 RES1   0.0000
    30 C24      -6.1601    0.1470    4.8082   C.3       1 RES1   0.0000
    31 C25      -4.3477   -1.2066    3.7494   C.ar      1 RES1   0.0000
    32 H1       -0.7011   -5.2433    2.3429   H         1 RES1   0.0000
    33 H2       -1.0614   -4.0511    1.0826   H         1 RES1   0.0000
    34 H3       -2.3618   -5.0161    1.7832   H         1 RES1   0.0000
    35 H4       -0.6611   -2.8927    3.2168   H         1 RES1   0.0000
    36 H5       -1.9211   -3.8534    4.0162   H         1 RES1   0.0000
    37 H6       -5.0357   -1.5998    1.4068   H         1 RES1   0.0000
    38 H7       -6.2587   -0.2625   -0.2845   H         1 RES1   0.0000
    39 H8       -5.0157    1.1880   -1.8418   H         1 RES1   0.0000
    40 H9       -0.6869    3.1796   -2.7527   H         1 RES1   0.0000
    41 H10      -1.9904    4.1114   -3.5181   H         1 RES1   0.0000
    42 H11      -0.5363    1.7626   -4.8339   H         1 RES1   0.0000
    43 H12      -0.3256    3.4830   -5.1891   H         1 RES1   0.0000
    44 H13      -1.8555    2.6927   -5.5567   H         1 RES1   0.0000
    45 H14      -4.2033    4.1428   -3.5888   H         1 RES1   0.0000
    46 H15      -6.1633    3.8780   -5.0639   H         1 RES1   0.0000
    47 H16      -6.7332    1.6530   -5.9336   H         1 RES1   0.0000
    48 H17      -6.3086   -0.6713   -6.1628   H         1 RES1   0.0000
    49 H18      -5.5455   -1.4061   -4.7502   H         1 RES1   0.0000
    50 H19      -4.5872   -1.0540   -6.1776   H         1 RES1   0.0000
    51 H20      -3.3309   -0.0086   -3.9674   H         1 RES1   0.0000
    52 H21      -3.9542   -4.5578    3.5434   H         1 RES1   0.0000
    53 H22      -5.9993   -4.4939    4.8951   H         1 RES1   0.0000
    54 H23      -7.0377   -2.3345    5.4300   H         1 RES1   0.0000
    55 H24      -7.0932    0.0157    5.3463   H         1 RES1   0.0000
    56 H25      -6.3692    0.7085    3.8998   H         1 RES1   0.0000
    57 H26      -5.4999    0.7543    5.4223   H         1 RES1   0.0000
    58 H27      -3.8392   -0.2950    3.4755   H         1 RES1   0.0000
    59 C26      -3.3431   -3.1753   -2.0613   C.3       1 RES1   0.0000
    60 C27      -2.1841   -3.0198   -3.0413   C.3       1 RES1   0.0000
    61 N4       -0.9217   -3.5095   -2.4836   N.am      1 RES1   0.0000
    62 C28      -0.3262   -2.6948   -1.6011   C.2       1 RES1   0.0000
    63 O3       -0.8034   -1.5546   -1.4232   O.2       1 RES1   0.0000
    64 C29       0.7953   -3.1079   -0.6823   C.ar      1 RES1   0.0000
    65 C30       1.3367   -4.3816   -0.5301   C.ar      1 RES1   0.0000
    66 C31       2.2729   -4.5731    0.4801   C.ar      1 RES1   0.0000
    67 C32       2.6173   -3.5337    1.3375   C.ar      1 RES1   0.0000
    68 C33       2.0145   -2.2960    1.1330   C.ar      1 RES1   0.0000
    69 C34       2.2488   -1.0202    1.9037   C.2       1 RES1   0.0000
    70 O4        1.7966    0.0285    1.4011   O.2       1 RES1   0.0000
    71 N5        2.9785   -0.9453    3.0185   N.am      1 RES1   0.0000
    72 C35       3.2401    0.3881    3.5560   C.3       1 RES1   0.0000
    73 C36       2.1607    0.8474    4.5346   C.3       1 RES1   0.0000
    74 C37       3.2195   -1.9690    3.9723   C.ar      1 RES1   0.0000
    75 C38       4.4686   -2.1463    4.5519   C.ar      1 RES1   0.0000
    76 C39       4.6166   -3.0445    5.5957   C.ar      1 RES1   0.0000
    77 C40       3.5223   -3.7524    6.0627   C.ar      1 RES1   0.0000
    78 C41       2.2632   -3.5619    5.5067   C.ar      1 RES1   0.0000
    79 C42       1.0526   -4.2745    6.0142   C.3       1 RES1   0.0000
    80 C43       2.1266   -2.6618    4.4618   C.ar      1 RES1   0.0000
    81 N6        1.1572   -2.1127    0.1291   N.ar      1 RES1   0.0000
    82 C44      -0.3550   -4.5948   -3.1961   C.ar      1 RES1   0.0000
    83 C45      -1.1561   -5.6558   -3.6046   C.ar      1 RES1   0.0000
    84 C46      -0.6335   -6.6492   -4.4115   C.ar      1 RES1   0.0000
    85 C47       0.6900   -6.5854   -4.8071   C.ar      1 RES1   0.0000
    86 C48       1.4956   -5.5168   -4.4309   C.ar      1 RES1   0.0000
    87 C49       2.9200   -5.4236   -4.8705   C.3       1 RES1   0.0000
    88 C50       0.9571   -4.5146   -3.6360   C.ar      1 RES1   0.0000
    89 H28      -4.2563   -2.8154   -2.5312   H         1 RES1   0.0000
    90 H29      -3.1575   -2.5925   -1.1613   H         1 RES1   0.0000
    91 H30      -3.4929   -4.2134   -1.7695   H         1 RES1   0.0000
    92 H31      -2.0489   -1.9624   -3.2853   H         1 RES1   0.0000
    93 H32      -2.3872   -3.5687   -3.9599   H         1 RES1   0.0000
    94 H33       1.0293   -5.1968   -1.1670   H         1 RES1   0.0000
    95 H34       2.7261   -5.5441    0.6169   H         1 RES1   0.0000
    96 H35       3.3251   -3.6831    2.1382   H         1 RES1   0.0000
    97 H36       3.3058    1.0794    2.7148   H         1 RES1   0.0000
    98 H37       4.1983    0.3497    4.0739   H         1 RES1   0.0000
    99 H38       1.1839    0.8941    4.0533   H         1 RES1   0.0000
   100 H39       2.4216    1.8370    4.9032   H         1 RES1   0.0000
   101 H40       2.0901    0.1758    5.3889   H         1 RES1   0.0000
   102 H41       5.3192   -1.5850    4.2078   H         1 RES1   0.0000
   103 H42       5.5833   -3.1879    6.0572   H         1 RES1   0.0000
   104 H43       3.6418   -4.4511    6.8743   H         1 RES1   0.0000
   105 H44       1.2955   -4.9415    6.8342   H         1 RES1   0.0000
   106 H45       0.6032   -4.8541    5.2106   H         1 RES1   0.0000
   107 H46       0.3077   -3.5612    6.3621   H         1 RES1   0.0000
   108 H47       1.1554   -2.4494    4.0437   H         1 RES1   0.0000
   109 H48      -2.1888   -5.7091   -3.3128   H         1 RES1   0.0000
   110 H49      -1.2520   -7.4750   -4.7323   H         1 RES1   0.0000
   111 H50       1.1022   -7.3689   -5.4190   H         1 RES1   0.0000
   112 H51       3.2064   -6.2700   -5.4859   H         1 RES1   0.0000
   113 H52       3.5770   -5.3918   -4.0037   H         1 RES1   0.0000
   114 H53       3.0903   -4.5146   -5.4431   H         1 RES1   0.0000
   115 H54       1.5471   -3.6481   -3.3790   H         1 RES1   0.0000
   116 C51       4.0779   -1.1104   -2.6613   C.3       1 RES1   0.0000
   117 C52       3.1835   -0.2044   -3.5009   C.3       1 RES1   0.0000
   118 N7        2.9988    1.1303   -2.9185   N.am      1 RES1   0.0000
   119 C53       2.2259    1.1676   -1.8224   C.2       1 RES1   0.0000
   120 O5        1.7161    0.0984   -1.4275   O.2       1 RES1   0.0000
   121 C54       1.9680    2.3921   -0.9708   C.ar      1 RES1   0.0000
   122 C55       2.6406    3.6104   -1.0184   C.ar      1 RES1   0.0000
   123 C56       2.2472    4.6076   -0.1327   C.ar      1 RES1   0.0000
   124 C57       1.2306    4.3820    0.7900   C.ar      1 RES1   0.0000
   125 C58       0.6574    3.1134    0.8296   C.ar      1 RES1   0.0000
   126 C59      -0.4553    2.6060    1.7201   C.2       1 RES1   0.0000
   127 O6       -0.8554    1.4460    1.4772   O.2       1 RES1   0.0000
   128 N8       -1.1157    3.3204    2.6418   N.am      1 RES1   0.0000
   129 C60      -2.3953    2.7788    3.1051   C.3       1 RES1   0.0000
   130 C61      -2.3719    2.2404    4.5316   C.3       1 RES1   0.0000
   131 C62      -0.6507    4.4115    3.4137   C.ar      1 RES1   0.0000
   132 C63      -1.5270    5.3910    3.8690   C.ar      1 RES1   0.0000
   133 C64      -1.0910    6.3600    4.7523   C.ar      1 RES1   0.0000
   134 C65       0.2261    6.3574    5.1722   C.ar      1 RES1   0.0000
   135 C66       1.1142    5.3823    4.7327   C.ar      1 RES1   0.0000
   136 C67       2.5330    5.3619    5.1977   C.3       1 RES1   0.0000
   137 C68       0.6626    4.4044    3.8592   C.ar      1 RES1   0.0000
   138 N9        1.0315    2.1774   -0.0456   N.ar      1 RES1   0.0000
   139 C69       3.4247    2.1874   -3.7646   C.ar      1 RES1   0.0000
   140 C70       4.6308    2.0931   -4.4506   C.ar      1 RES1   0.0000
   141 C71       4.9964    3.0661   -5.3660   C.ar      1 RES1   0.0000
   142 C72       4.1645    4.1455   -5.5879   C.ar      1 RES1   0.0000
   143 C73       2.9460    4.2472   -4.9232   C.ar      1 RES1   0.0000
   144 C74       2.0562    5.4213   -5.1684   C.3       1 RES1   0.0000
   145 C75       2.5748    3.2514   -4.0336   C.ar      1 RES1   0.0000
   146 H55       4.1986   -2.0566   -3.1854   H         1 RES1   0.0000
   147 H56       3.6277   -1.2996   -1.6882   H         1 RES1   0.0000
   148 H57       5.0614   -0.6712   -2.5058   H         1 RES1   0.0000
   149 H58       2.1955   -0.6646   -3.6041   H         1 RES1   0.0000
   150 H59       3.6070   -0.0807   -4.4970   H         1 RES1   0.0000
   151 H60       3.4401    3.7765   -1.7231   H         1 RES1   0.0000
   152 H61       2.7405    5.5694   -0.1518   H         1 RES1   0.0000
   153 H62       0.9098    5.1617    1.4629   H         1 RES1   0.0000
   154 H63      -2.6931    1.9948    2.4084   H         1 RES1   0.0000
   155 H64      -3.1341    3.5787    3.0505   H         1 RES1   0.0000
   156 H65      -1.6747    1.4127    4.6456   H         1 RES1   0.0000
   157 H66      -3.3756    1.8930    4.7694   H         1 RES1   0.0000
   158 H67      -2.1029    3.0161    5.2463   H         1 RES1   0.0000
   159 H68      -2.5560    5.4091    3.5625   H         1 RES1   0.0000
   160 H69      -1.7788    7.1076    5.1226   H         1 RES1   0.0000
   161 H70       0.5689    7.1166    5.8525   H         1 RES1   0.0000
   162 H71       2.7381    6.1861    5.8731   H         1 RES1   0.0000
   163 H72       3.2028    5.4343    4.3436   H         1 RES1   0.0000
   164 H73       2.7606    4.4323    5.7160   H         1 RES1   0.0000
   165 H74       1.3148    3.6042    3.5441   H         1 RES1   0.0000
   166 H75       5.2950    1.2643   -4.2885   H         1 RES1   0.0000
   167 H76       5.9337    2.9898   -5.8983   H         1 RES1   0.0000
   168 H77       4.4543    4.9195   -6.2784   H         1 RES1   0.0000
   169 H78       2.5826    6.3460   -4.9402   H         1 RES1   0.0000
   170 H79       1.1662    5.3795   -4.5482   H         1 RES1   0.0000
   171 H80       1.7488    5.4678   -6.2112   H         1 RES1   0.0000
   172 H81       1.6095    3.2858   -3.5553   H         1 RES1   0.0000
@<TRIPOS>BOND
     1     1     6    1
     2     1    13    1
     3     1    24    1
     4     1    63    1
     5     1    70    1
     6     1    81    1
     7     1   120    1
     8     1   127    1
     9     1   138    1
    10     2     3    1
    11     2    32    1
    12     2    33    1
    13     2    34    1
    14     3     4    1
    15     3    35    1
    16     3    36    1
    17     4     5    1
    18     4    25    1
    19     5     6    2
    20     5     7    1
    21     7     8    1
    22     7    24    2
    23     8     9    2
    24     8    37    1
    25     9    10    1
    26     9    38    1
    27    10    11    2
    28    10    39    1
    29    11    12    1
    30    11    24    1
    31    12    13    2
    32    12    14    1
    33    14    15    1
    34    14    17    1
    35    15    16    1
    36    15    40    1
    37    15    41    1
    38    16    42    1
    39    16    43    1
    40    16    44    1
    41    17    18    1
    42    17    23    2
    43    18    19    2
    44    18    45    1
    45    19    20    1
    46    19    46    1
    47    20    21    2
    48    20    47    1
    49    21    22    1
    50    21    23    1
    51    22    48    1
    52    22    49    1
    53    22    50    1
    54    23    51    1
    55    25    26    1
    56    25    31    2
    57    26    27    2
    58    26    52    1
    59    27    28    1
    60    27    53    1
    61    28    29    2
    62    28    54    1
    63    29    30    1
    64    29    31    1
    65    30    55    1
    66    30    56    1
    67    30    57    1
    68    31    58    1
    69    59    60    1
    70    59    89    1
    71    59    90    1
    72    59    91    1
    73    60    61    1
    74    60    92    1
    75    60    93    1
    76    61    62    1
    77    61    82    1
    78    62    63    2
    79    62    64    1
    80    64    65    1
    81    64    81    2
    82    65    66    2
    83    65    94    1
    84    66    67    1
    85    66    95    1
    86    67    68    2
    87    67    96    1
    88    68    69    1
    89    68    81    1
    90    69    70    2
    91    69    71    1
    92    71    72    1
    93    71    74    1
    94    72    73    1
    95    72    97    1
    96    72    98    1
    97    73    99    1
    98    73   100    1
    99    73   101    1
   100    74    75    1
   101    74    80    2
   102    75    76    2
   103    75   102    1
   104    76    77    1
   105    76   103    1
   106    77    78    2
   107    77   104    1
   108    78    79    1
   109    78    80    1
   110    79   105    1
   111    79   106    1
   112    79   107    1
   113    80   108    1
   114    82    83    1
   115    82    88    2
   116    83    84    2
   117    83   109    1
   118    84    85    1
   119    84   110    1
   120    85    86    2
   121    85   111    1
   122    86    87    1
   123    86    88    1
   124    87   112    1
   125    87   113    1
   126    87   114    1
   127    88   115    1
   128   116   117    1
   129   116   146    1
   130   116   147    1
   131   116   148    1
   132   117   118    1
   133   117   149    1
   134   117   150    1
   135   118   119    1
   136   118   139    1
   137   119   120    2
   138   119   121    1
   139   121   122    1
   140   121   138    2
   141   122   123    2
   142   122   151    1
   143   123   124    1
   144   123   152    1
   145   124   125    2
   146   124   153    1
   147   125   126    1
   148   125   138    1
   149   126   127    2
   150   126   128    1
   151   128   129    1
   152   128   131    1
   153   129   130    1
   154   129   154    1
   155   129   155    1
   156   130   156    1
   157   130   157    1
   158   130   158    1
   159   131   132    1
   160   131   137    2
   161   132   133    2
   162   132   159    1
   163   133   134    1
   164   133   160    1
   165   134   135    2
   166   134   161    1
   167   135   136    1
   168   135   137    1
   169   136   162    1
   170   136   163    1
   171   136   164    1
   172   137   165    1
   173   139   140    1
   174   139   145    2
   175   140   141    2
   176   140   166    1
   177   141   142    1
   178   141   167    1
   179   142   143    2
   180   142   168    1
   181   143   144    1
   182   143   145    1
   183   144   169    1
   184   144   170    1
   185   144   171    1
   186   145   172    1
@<TRIPOS>SUBSTRUCTURE
     1 RES1      172 GROUP             0 ****  ****    0  
