@<TRIPOS>MOLECULE
capped_square_antiprismatic_0_nunpairedes_0_charge_2 Charge: 2 Unpaired_Electrons: 5 XTB_Unpaired_Electrons: 0 XTB_Charge: 2
   118   132     1     0     0
SMALL
NoCharges
****
Generated from Architector

@<TRIPOS>ATOM
     1 Sm1       0.8791   -0.1655    0.1410   Sm        1 RES1   0.0000
     2 C1        3.8101   -1.9292    1.8993   C.3       1 RES1   0.0000
     3 C2        4.1988   -1.3762    3.2721   C.3       1 RES1   0.0000
     4 C3        3.1699   -1.6999    4.3589   C.3       1 RES1   0.0000
     5 C4        1.9492   -0.7758    4.3306   C.3       1 RES1   0.0000
     6 C5        0.6763   -1.4901    4.7915   C.3       1 RES1   0.0000
     7 C6       -0.5971   -0.7712    4.3251   C.3       1 RES1   0.0000
     8 N1       -1.3432   -1.4898    3.2760   N.ar      1 RES1   0.0000
     9 C7       -2.7038   -1.7396    3.3730   C.ar      1 RES1   0.0000
    10 C8       -3.2922   -1.3013    4.6527   C.ar      1 RES1   0.0000
    11 C9       -3.1860   -2.0880    5.7944   C.ar      1 RES1   0.0000
    12 C10      -3.5200   -1.5515    7.0257   C.ar      1 RES1   0.0000
    13 C11      -3.9901   -0.2500    7.1146   C.ar      1 RES1   0.0000
    14 C12      -4.1345    0.5201    5.9711   C.ar      1 RES1   0.0000
    15 C13      -3.7689    0.0035    4.7420   C.ar      1 RES1   0.0000
    16 C14      -3.4561   -2.2957    2.3641   C.ar      1 RES1   0.0000
    17 C15      -4.9170   -2.4831    2.5584   C.ar      1 RES1   0.0000
    18 C16      -5.7107   -1.3453    2.6705   C.ar      1 RES1   0.0000
    19 C17      -7.0650   -1.4444    2.9228   C.ar      1 RES1   0.0000
    20 C18      -7.6586   -2.6885    3.0370   C.ar      1 RES1   0.0000
    21 C19      -6.8862   -3.8252    2.8828   C.ar      1 RES1   0.0000
    22 C20      -5.5229   -3.7323    2.6483   C.ar      1 RES1   0.0000
    23 C21      -2.8551   -2.5123    1.0843   C.ar      1 RES1   0.0000
    24 C22      -3.4970   -2.8830   -0.1137   C.ar      1 RES1   0.0000
    25 C23      -2.8561   -2.6813   -1.3350   C.ar      1 RES1   0.0000
    26 C24      -3.4882   -2.8090   -2.6232   C.ar      1 RES1   0.0000
    27 C25      -2.9687   -2.2242   -3.7288   C.ar      1 RES1   0.0000
    28 C26      -1.7882   -1.4063   -3.6549   C.ar      1 RES1   0.0000
    29 C27      -1.4877   -0.3936   -4.5646   C.ar      1 RES1   0.0000
    30 C28      -0.5714    0.6021   -4.1761   C.ar      1 RES1   0.0000
    31 C29      -0.6431    1.9591   -4.6126   C.ar      1 RES1   0.0000
    32 C30      -1.3098    2.4098   -5.8584   C.ar      1 RES1   0.0000
    33 C31      -2.6174    2.8728   -5.9043   C.ar      1 RES1   0.0000
    34 C32      -3.1192    3.4212   -7.0716   C.ar      1 RES1   0.0000
    35 C33      -2.3208    3.4962   -8.2012   C.ar      1 RES1   0.0000
    36 C34      -1.0228    3.0128   -8.1699   C.ar      1 RES1   0.0000
    37 C35      -0.5152    2.4765   -7.0011   C.ar      1 RES1   0.0000
    38 C36      -0.1340    2.9320   -3.7879   C.ar      1 RES1   0.0000
    39 C37      -0.8626    4.2246   -3.6816   C.ar      1 RES1   0.0000
    40 C38      -0.4347    5.4708   -4.1223   C.ar      1 RES1   0.0000
    41 C39      -1.1882    6.6003   -3.8429   C.ar      1 RES1   0.0000
    42 C40      -2.3734    6.4945   -3.1331   C.ar      1 RES1   0.0000
    43 C41      -2.8366    5.2518   -2.7315   C.ar      1 RES1   0.0000
    44 C42      -2.0867    4.1209   -3.0058   C.ar      1 RES1   0.0000
    45 N2        0.8309    2.6499   -2.8277   N.ar      1 RES1   0.0000
    46 C43       1.6009    3.7844   -2.3055   C.3       1 RES1   0.0000
    47 C44       1.9406    3.7615   -0.8148   C.3       1 RES1   0.0000
    48 C45       0.7614    3.3708    0.0795   C.3       1 RES1   0.0000
    49 C46      -0.4647    4.2911    0.0133   C.3       1 RES1   0.0000
    50 C47      -1.2083    4.3001    1.3510   C.3       1 RES1   0.0000
    51 C48      -2.5886    4.9315    1.2391   C.3       1 RES1   0.0000
    52 C49       1.0829    1.3783   -2.4486   C.ar      1 RES1   0.0000
    53 O1        1.9164    1.0729   -1.5505   O.2       1 RES1   0.0000
    54 C50       0.2113    0.3577   -3.0206   C.ar      1 RES1   0.0000
    55 N3        0.0490   -0.7116   -2.2394   N.ar      1 RES1   0.0000
    56 C51      -1.0099   -1.4896   -2.4683   C.ar      1 RES1   0.0000
    57 C52      -1.5344   -2.1601   -1.3048   C.ar      1 RES1   0.0000
    58 N4       -0.8463   -1.9985   -0.1768   N.ar      1 RES1   0.0000
    59 C53      -1.4923   -2.1620    0.9831   C.ar      1 RES1   0.0000
    60 C54      -0.7050   -1.7310    2.1168   C.ar      1 RES1   0.0000
    61 O2        0.5195   -1.4869    1.9404   O.2       1 RES1   0.0000
    62 H1        4.5656   -1.6761    1.1590   H         1 RES1   0.0000
    63 H2        2.8281   -1.5552    1.5520   H         1 RES1   0.0000
    64 H3        3.7445   -3.0126    1.9582   H         1 RES1   0.0000
    65 H4        4.3571   -0.2966    3.2237   H         1 RES1   0.0000
    66 H5        5.1541   -1.8171    3.5583   H         1 RES1   0.0000
    67 H6        3.6366   -1.6378    5.3415   H         1 RES1   0.0000
    68 H7        2.8539   -2.7358    4.2305   H         1 RES1   0.0000
    69 H8        1.7870   -0.3980    3.3170   H         1 RES1   0.0000
    70 H9        2.1210    0.0906    4.9701   H         1 RES1   0.0000
    71 H10       0.6789   -1.5459    5.8806   H         1 RES1   0.0000
    72 H11       0.6613   -2.5107    4.4108   H         1 RES1   0.0000
    73 H12      -0.3302    0.2079    3.9148   H         1 RES1   0.0000
    74 H13      -1.2620   -0.6126    5.1674   H         1 RES1   0.0000
    75 H14      -2.8181   -3.0999    5.7140   H         1 RES1   0.0000
    76 H15      -3.4009   -2.1467    7.9189   H         1 RES1   0.0000
    77 H16      -4.2357    0.1685    8.0793   H         1 RES1   0.0000
    78 H17      -4.5170    1.5278    6.0444   H         1 RES1   0.0000
    79 H18      -3.8129    0.6106    3.8506   H         1 RES1   0.0000
    80 H19      -5.2586   -0.3752    2.5507   H         1 RES1   0.0000
    81 H20      -7.6535   -0.5468    3.0265   H         1 RES1   0.0000
    82 H21      -8.7144   -2.7680    3.2400   H         1 RES1   0.0000
    83 H22      -7.3563   -4.7926    2.9531   H         1 RES1   0.0000
    84 H23      -4.9367   -4.6342    2.5564   H         1 RES1   0.0000
    85 H24      -4.5161   -3.2369   -0.0919   H         1 RES1   0.0000
    86 H25      -4.4361   -3.3261   -2.6609   H         1 RES1   0.0000
    87 H26      -3.4888   -2.2607   -4.6731   H         1 RES1   0.0000
    88 H27      -2.0639   -0.2671   -5.4718   H         1 RES1   0.0000
    89 H28      -3.2334    2.8242   -5.0198   H         1 RES1   0.0000
    90 H29      -4.1290    3.8041   -7.0904   H         1 RES1   0.0000
    91 H30      -2.6984    3.9444   -9.1046   H         1 RES1   0.0000
    92 H31      -0.3975    3.0744   -9.0488   H         1 RES1   0.0000
    93 H32       0.5074    2.1285   -6.9631   H         1 RES1   0.0000
    94 H33       0.4807    5.5608   -4.6876   H         1 RES1   0.0000
    95 H34      -0.8433    7.5684   -4.1735   H         1 RES1   0.0000
    96 H35      -2.9416    7.3803   -2.8978   H         1 RES1   0.0000
    97 H36      -3.7755    5.1776   -2.1964   H         1 RES1   0.0000
    98 H37      -2.4459    3.1534   -2.6746   H         1 RES1   0.0000
    99 H38       1.0158    4.6772   -2.5096   H         1 RES1   0.0000
   100 H39       2.5261    3.8558   -2.8856   H         1 RES1   0.0000
   101 H40       2.2784    4.7662   -0.5427   H         1 RES1   0.0000
   102 H41       2.7650    3.0673   -0.6322   H         1 RES1   0.0000
   103 H42       1.1168    3.3558    1.1138   H         1 RES1   0.0000
   104 H43       0.4429    2.3523   -0.1890   H         1 RES1   0.0000
   105 H44      -1.1497    3.9533   -0.7654   H         1 RES1   0.0000
   106 H45      -0.1713    5.3129   -0.2325   H         1 RES1   0.0000
   107 H46      -0.6185    4.8450    2.0877   H         1 RES1   0.0000
   108 H47      -1.3167    3.2784    1.7217   H         1 RES1   0.0000
   109 H48      -2.5253    5.9125    0.7784   H         1 RES1   0.0000
   110 H49      -3.0419    5.0468    2.2203   H         1 RES1   0.0000
   111 H50      -3.2395    4.3115    0.6282   H         1 RES1   0.0000
   112 N5       -1.2244    0.7749    0.9974   N.3       1 RES1   0.0000
   113 O3       -2.2819    0.6673    1.5388   O.2       1 RES1   0.0000
   114 O4       -1.1191    0.7235   -0.2351   O.co2     1 RES1   0.0000
   115 O5       -0.1830    0.9630    1.6383   O.co2     1 RES1   0.0000
   116 O6        2.7566    1.0315    1.2682   O.3       1 RES1   0.0000
   117 H51       3.5800    1.3367    0.8603   H         1 RES1   0.0000
   118 H52       2.8810    1.1503    2.2239   H         1 RES1   0.0000
@<TRIPOS>BOND
     1     1     8    1
     2     1    45    1
     3     1    53    1
     4     1    55    1
     5     1    58    1
     6     1    61    1
     7     1   114    1
     8     1   115    1
     9     1   116    1
    10     2     3    1
    11     2    62    1
    12     2    63    1
    13     2    64    1
    14     3     4    1
    15     3    65    1
    16     3    66    1
    17     4     5    1
    18     4    67    1
    19     4    68    1
    20     5     6    1
    21     5    69    1
    22     5    70    1
    23     6     7    1
    24     6    71    1
    25     6    72    1
    26     7     8    1
    27     7    73    1
    28     7    74    1
    29     8     9    1
    30     8    60    1
    31     9    10    1
    32     9    16    2
    33    10    11    1
    34    10    15    2
    35    11    12    2
    36    11    75    1
    37    12    13    1
    38    12    76    1
    39    13    14    2
    40    13    77    1
    41    14    15    1
    42    14    78    1
    43    15    79    1
    44    16    17    1
    45    16    23    1
    46    17    18    1
    47    17    22    2
    48    18    19    2
    49    18    80    1
    50    19    20    1
    51    19    81    1
    52    20    21    2
    53    20    82    1
    54    21    22    1
    55    21    83    1
    56    22    84    1
    57    23    24    1
    58    23    59    2
    59    24    25    2
    60    24    85    1
    61    25    26    1
    62    25    57    1
    63    26    27    2
    64    26    86    1
    65    27    28    1
    66    27    87    1
    67    28    29    1
    68    28    56    2
    69    29    30    2
    70    29    88    1
    71    30    31    1
    72    30    54    1
    73    31    32    1
    74    31    38    2
    75    32    33    1
    76    32    37    2
    77    33    34    2
    78    33    89    1
    79    34    35    1
    80    34    90    1
    81    35    36    2
    82    35    91    1
    83    36    37    1
    84    36    92    1
    85    37    93    1
    86    38    39    1
    87    38    45    1
    88    39    40    1
    89    39    44    2
    90    40    41    2
    91    40    94    1
    92    41    42    1
    93    41    95    1
    94    42    43    2
    95    42    96    1
    96    43    44    1
    97    43    97    1
    98    44    98    1
    99    45    46    1
   100    45    52    1
   101    46    47    1
   102    46    99    1
   103    46   100    1
   104    47    48    1
   105    47   101    1
   106    47   102    1
   107    48    49    1
   108    48   103    1
   109    48   104    1
   110    49    50    1
   111    49   105    1
   112    49   106    1
   113    50    51    1
   114    50   107    1
   115    50   108    1
   116    51   109    1
   117    51   110    1
   118    51   111    1
   119    52    53    2
   120    52    54    1
   121    54    55    2
   122    55    56    1
   123    56    57    1
   124    57    58    2
   125    58    59    1
   126    59    60    1
   127    60    61    2
   128   112   113    2
   129   112   114    1
   130   112   115    1
   131   116   117    1
   132   116   118    1
@<TRIPOS>SUBSTRUCTURE
     1 RES1      118 GROUP             0 ****  ****    0  
