@<TRIPOS>MOLECULE
am_c3_9H2O_c0_0_nunpairedes_0_charge_3 Charge: 3 Unpaired_Electrons: 5 XTB_Unpaired_Electrons: 0 XTB_Charge: 3
   232   237     1     0     0
SMALL
NoCharges
****
Generated from Architector

@<TRIPOS>ATOM
     1 Sm1      -0.1589   -0.0868    0.1768   Sm        1 RES1   0.0000
     2 C1       -1.3058    4.5952    4.9733   C.3       1 RES1   0.0000
     3 C2       -1.5532    6.0546    5.3360   C.3       1 RES1   0.0000
     4 C3       -1.6178    6.9701    4.1141   C.3       1 RES1   0.0000
     5 C4       -0.2398    7.2733    3.5289   C.3       1 RES1   0.0000
     6 C5       -0.2801    8.1705    2.2873   C.3       1 RES1   0.0000
     7 C6       -1.1869    7.6541    1.1689   C.3       1 RES1   0.0000
     8 C7       -0.7486    6.3003    0.5913   C.3       1 RES1   0.0000
     9 C8       -1.9850    5.5544    0.1051   C.3       1 RES1   0.0000
    10 N1       -1.7070    4.3182   -0.6097   N.am      1 RES1   0.0000
    11 C9       -1.6784    4.4636   -2.0597   C.3       1 RES1   0.0000
    12 C10      -3.0624    4.6263   -2.6705   C.3       1 RES1   0.0000
    13 C11      -1.4433    3.1466   -0.0470   C.2       1 RES1   0.0000
    14 O1       -1.3125    2.0753   -0.6789   O.2       1 RES1   0.0000
    15 C12      -1.2600    3.0870    1.4674   C.3       1 RES1   0.0000
    16 O2       -1.5073    1.7638    1.9247   O.3       1 RES1   0.0000
    17 C13      -2.8647    1.5285    2.2825   C.3       1 RES1   0.0000
    18 C14      -3.4512    0.4188    1.4016   C.2       1 RES1   0.0000
    19 O3       -2.6977   -0.1327    0.5766   O.2       1 RES1   0.0000
    20 N2       -4.7290    0.1133    1.5768   N.am      1 RES1   0.0000
    21 C15      -5.6025    0.8215    2.5116   C.3       1 RES1   0.0000
    22 C16      -6.4401    1.8808    1.7977   C.3       1 RES1   0.0000
    23 C17      -5.3636   -1.0453    0.9458   C.3       1 RES1   0.0000
    24 C18      -5.1491   -1.2631   -0.5503   C.3       1 RES1   0.0000
    25 C19      -5.8508   -0.2238   -1.4367   C.3       1 RES1   0.0000
    26 C20      -4.9526    0.9446   -1.8576   C.3       1 RES1   0.0000
    27 C21      -4.1190    0.6628   -3.1099   C.3       1 RES1   0.0000
    28 C22      -3.1814   -0.5383   -2.9752   C.3       1 RES1   0.0000
    29 C23      -2.0967   -0.5674   -4.0544   C.3       1 RES1   0.0000
    30 C24      -0.8337    0.1625   -3.6144   C.3       1 RES1   0.0000
    31 H1       -1.1852    4.0103    5.8797   H         1 RES1   0.0000
    32 H2       -2.1459    4.1894    4.4107   H         1 RES1   0.0000
    33 H3       -0.4062    4.4893    4.3732   H         1 RES1   0.0000
    34 H4       -2.4925    6.1237    5.8857   H         1 RES1   0.0000
    35 H5       -0.7621    6.4004    6.0005   H         1 RES1   0.0000
    36 H6       -2.2567    6.4982    3.3652   H         1 RES1   0.0000
    37 H7       -2.0868    7.9114    4.3983   H         1 RES1   0.0000
    38 H8        0.3547    7.7813    4.2884   H         1 RES1   0.0000
    39 H9        0.2815    6.3408    3.3003   H         1 RES1   0.0000
    40 H10      -0.6365    9.1615    2.5736   H         1 RES1   0.0000
    41 H11       0.7360    8.2905    1.9055   H         1 RES1   0.0000
    42 H12      -2.2018    7.5691    1.5582   H         1 RES1   0.0000
    43 H13      -1.2163    8.3988    0.3713   H         1 RES1   0.0000
    44 H14      -0.0574    6.4716   -0.2327   H         1 RES1   0.0000
    45 H15      -0.2284    5.7129    1.3458   H         1 RES1   0.0000
    46 H16      -2.6497    5.3754    0.9528   H         1 RES1   0.0000
    47 H17      -2.5217    6.2059   -0.5840   H         1 RES1   0.0000
    48 H18      -1.0613    5.3410   -2.2842   H         1 RES1   0.0000
    49 H19      -1.1957    3.5672   -2.4489   H         1 RES1   0.0000
    50 H20      -3.5169    5.5732   -2.3971   H         1 RES1   0.0000
    51 H21      -2.9731    4.5978   -3.7504   H         1 RES1   0.0000
    52 H22      -3.7305    3.8256   -2.3577   H         1 RES1   0.0000
    53 H23      -0.2094    3.2818    1.7025   H         1 RES1   0.0000
    54 H24      -1.8778    3.8154    2.0015   H         1 RES1   0.0000
    55 H25      -2.8791    1.2191    3.3375   H         1 RES1   0.0000
    56 H26      -3.4623    2.4349    2.1759   H         1 RES1   0.0000
    57 H27      -6.2640    0.0839    2.9758   H         1 RES1   0.0000
    58 H28      -5.0329    1.2780    3.3183   H         1 RES1   0.0000
    59 H29      -7.0583    1.4233    1.0326   H         1 RES1   0.0000
    60 H30      -7.0974    2.3710    2.5103   H         1 RES1   0.0000
    61 H31      -5.8102    2.6340    1.3293   H         1 RES1   0.0000
    62 H32      -5.0103   -1.9349    1.4757   H         1 RES1   0.0000
    63 H33      -6.4334   -0.9427    1.1298   H         1 RES1   0.0000
    64 H34      -4.0833   -1.2953   -0.7527   H         1 RES1   0.0000
    65 H35      -5.5691   -2.2484   -0.7687   H         1 RES1   0.0000
    66 H36      -6.2396   -0.7040   -2.3387   H         1 RES1   0.0000
    67 H37      -6.7183    0.1637   -0.8972   H         1 RES1   0.0000
    68 H38      -5.5948    1.8005   -2.0771   H         1 RES1   0.0000
    69 H39      -4.2865    1.2173   -1.0358   H         1 RES1   0.0000
    70 H40      -4.7895    0.4924   -3.9548   H         1 RES1   0.0000
    71 H41      -3.5218    1.5483   -3.3341   H         1 RES1   0.0000
    72 H42      -2.6751   -0.5017   -1.9978   H         1 RES1   0.0000
    73 H43      -3.7729   -1.4532   -3.0372   H         1 RES1   0.0000
    74 H44      -1.8618   -1.6039   -4.3063   H         1 RES1   0.0000
    75 H45      -2.4768   -0.1109   -4.9679   H         1 RES1   0.0000
    76 H46      -0.5186   -0.1561   -2.5987   H         1 RES1   0.0000
    77 H47      -0.0287   -0.0335   -4.3183   H         1 RES1   0.0000
    78 H48      -1.0137    1.2323   -3.5886   H         1 RES1   0.0000
    79 C25      -4.8528    4.1040   -5.8546   C.3       1 RES1   0.0000
    80 C26      -4.2143    3.0283   -6.7216   C.3       1 RES1   0.0000
    81 C27      -2.7883    2.6513   -6.3105   C.3       1 RES1   0.0000
    82 C28      -1.7416    3.6660   -6.7724   C.3       1 RES1   0.0000
    83 C29      -0.3023    3.1722   -6.5542   C.3       1 RES1   0.0000
    84 C30       0.3292    3.6112   -5.2269   C.3       1 RES1   0.0000
    85 C31       1.6505    2.8730   -5.0022   C.3       1 RES1   0.0000
    86 C32       2.5632    3.3961   -3.8864   C.3       1 RES1   0.0000
    87 N3        2.0209    3.3406   -2.5360   N.am      1 RES1   0.0000
    88 C33       1.8512    4.6128   -1.8422   C.3       1 RES1   0.0000
    89 C34       3.1717    5.0530   -1.2161   C.3       1 RES1   0.0000
    90 C35       1.8413    2.2083   -1.8630   C.2       1 RES1   0.0000
    91 O4        1.2612    2.1284   -0.7645   O.2       1 RES1   0.0000
    92 C36       2.4839    0.9223   -2.4002   C.3       1 RES1   0.0000
    93 O5        2.4171   -0.0451   -1.3707   O.3       1 RES1   0.0000
    94 C37       3.4574    0.0593   -0.4038   C.3       1 RES1   0.0000
    95 C38       3.0108   -0.5223    0.9396   C.2       1 RES1   0.0000
    96 O6        1.8754   -0.2073    1.3606   O.2       1 RES1   0.0000
    97 N4        3.8944   -1.2085    1.6638   N.am      1 RES1   0.0000
    98 C39       3.8494   -1.1113    3.1243   C.3       1 RES1   0.0000
    99 C40       5.1904   -0.6857    3.7227   C.3       1 RES1   0.0000
   100 C41       4.9721   -2.0134    1.1080   C.3       1 RES1   0.0000
   101 C42       5.1075   -3.3964    1.7637   C.3       1 RES1   0.0000
   102 C43       4.1080   -4.4507    1.2853   C.3       1 RES1   0.0000
   103 C44       2.6508   -4.3552    1.7496   C.3       1 RES1   0.0000
   104 C45       1.8532   -5.4484    1.0290   C.3       1 RES1   0.0000
   105 C46       0.3935   -5.6350    1.4669   C.3       1 RES1   0.0000
   106 C47       0.1575   -6.7448    2.5024   C.3       1 RES1   0.0000
   107 C48       0.2414   -6.2849    3.9511   C.3       1 RES1   0.0000
   108 H49      -5.8187    4.3707   -6.2672   H         1 RES1   0.0000
   109 H50      -4.2414    4.9981   -5.8300   H         1 RES1   0.0000
   110 H51      -5.0042    3.7483   -4.8397   H         1 RES1   0.0000
   111 H52      -4.1978    3.3657   -7.7591   H         1 RES1   0.0000
   112 H53      -4.8363    2.1312   -6.6819   H         1 RES1   0.0000
   113 H54      -2.5520    1.6931   -6.7804   H         1 RES1   0.0000
   114 H55      -2.7316    2.5176   -5.2263   H         1 RES1   0.0000
   115 H56      -1.8937    4.6256   -6.2753   H         1 RES1   0.0000
   116 H57      -1.8839    3.8344   -7.8413   H         1 RES1   0.0000
   117 H58       0.3274    3.5320   -7.3685   H         1 RES1   0.0000
   118 H59      -0.2912    2.0785   -6.6046   H         1 RES1   0.0000
   119 H60      -0.3648    3.4073   -4.4096   H         1 RES1   0.0000
   120 H61       0.4971    4.6902   -5.2546   H         1 RES1   0.0000
   121 H62       2.2405    2.9588   -5.9176   H         1 RES1   0.0000
   122 H63       1.4400    1.8152   -4.8548   H         1 RES1   0.0000
   123 H64       2.7865    4.4413   -4.0979   H         1 RES1   0.0000
   124 H65       3.5044    2.8432   -3.9424   H         1 RES1   0.0000
   125 H66       1.1083    4.4649   -1.0600   H         1 RES1   0.0000
   126 H67       1.5070    5.3572   -2.5613   H         1 RES1   0.0000
   127 H68       3.4662    4.3616   -0.4297   H         1 RES1   0.0000
   128 H69       3.0604    6.0443   -0.7843   H         1 RES1   0.0000
   129 H70       3.9644    5.0880   -1.9581   H         1 RES1   0.0000
   130 H71       3.5200    1.1103   -2.6992   H         1 RES1   0.0000
   131 H72       1.9478    0.5084   -3.2563   H         1 RES1   0.0000
   132 H73       3.6653    1.1216   -0.1863   H         1 RES1   0.0000
   133 H74       4.3772   -0.3946   -0.7848   H         1 RES1   0.0000
   134 H75       3.5323   -2.0531    3.5817   H         1 RES1   0.0000
   135 H76       3.1057   -0.3461    3.3385   H         1 RES1   0.0000
   136 H77       5.9218   -1.4882    3.7148   H         1 RES1   0.0000
   137 H78       5.0212   -0.4041    4.7603   H         1 RES1   0.0000
   138 H79       5.6075    0.1730    3.2016   H         1 RES1   0.0000
   139 H80       5.9150   -1.4772    1.2186   H         1 RES1   0.0000
   140 H81       4.7850   -2.1903    0.0509   H         1 RES1   0.0000
   141 H82       5.0858   -3.3309    2.8478   H         1 RES1   0.0000
   142 H83       6.1005   -3.7579    1.4854   H         1 RES1   0.0000
   143 H84       4.4889   -5.4242    1.6047   H         1 RES1   0.0000
   144 H85       4.1174   -4.4465    0.1946   H         1 RES1   0.0000
   145 H86       2.2180   -3.3778    1.5092   H         1 RES1   0.0000
   146 H87       2.5964   -4.4950    2.8290   H         1 RES1   0.0000
   147 H88       2.3742   -6.4005    1.1365   H         1 RES1   0.0000
   148 H89       1.8666   -5.2010   -0.0355   H         1 RES1   0.0000
   149 H90      -0.1772   -5.9084    0.5728   H         1 RES1   0.0000
   150 H91      -0.0061   -4.6881    1.8439   H         1 RES1   0.0000
   151 H92       0.8834   -7.5419    2.3343   H         1 RES1   0.0000
   152 H93      -0.8333   -7.1774    2.3328   H         1 RES1   0.0000
   153 H94       1.2276   -5.8943    4.1816   H         1 RES1   0.0000
   154 H95       0.0509   -7.1256    4.6112   H         1 RES1   0.0000
   155 H96      -0.4960   -5.5118    4.1603   H         1 RES1   0.0000
   156 C49      -3.8690   -3.8505   -5.6425   C.3       1 RES1   0.0000
   157 C50      -3.3092   -4.7721   -6.7207   C.3       1 RES1   0.0000
   158 C51      -1.7832   -4.7553   -6.8028   C.3       1 RES1   0.0000
   159 C52      -1.2156   -3.4190   -7.2794   C.3       1 RES1   0.0000
   160 C53       0.2854   -3.4786   -7.5764   C.3       1 RES1   0.0000
   161 C54       1.1258   -4.0255   -6.4220   C.3       1 RES1   0.0000
   162 C55       1.0583   -3.1664   -5.1555   C.3       1 RES1   0.0000
   163 C56       1.5788   -3.9770   -3.9653   C.3       1 RES1   0.0000
   164 N5        1.9632   -3.1979   -2.7941   N.am      1 RES1   0.0000
   165 C57       3.3506   -2.7359   -2.7669   C.3       1 RES1   0.0000
   166 C58       4.4030   -3.8355   -2.7636   C.3       1 RES1   0.0000
   167 C59       1.0988   -2.7974   -1.8675   C.2       1 RES1   0.0000
   168 O7        1.3822   -2.1658   -0.8380   O.2       1 RES1   0.0000
   169 C60      -0.3843   -3.0755   -2.1074   C.3       1 RES1   0.0000
   170 O8       -1.1125   -2.4081   -1.0774   O.3       1 RES1   0.0000
   171 C61      -1.8359   -3.3125   -0.2586   C.3       1 RES1   0.0000
   172 C62      -1.8554   -2.8566    1.2014   C.2       1 RES1   0.0000
   173 O9       -1.1254   -1.9029    1.5404   O.2       1 RES1   0.0000
   174 N6       -2.6529   -3.5666    2.0003   N.am      1 RES1   0.0000
   175 C63      -3.3604   -4.7473    1.4703   C.3       1 RES1   0.0000
   176 C64      -3.9018   -5.7501    2.4888   C.3       1 RES1   0.0000
   177 C65      -3.1634   -3.1989    3.3239   C.3       1 RES1   0.0000
   178 C66      -2.6383   -1.9893    4.0904   C.3       1 RES1   0.0000
   179 C67      -1.5638   -2.3513    5.1281   C.3       1 RES1   0.0000
   180 C68      -0.1572   -2.4620    4.5326   C.3       1 RES1   0.0000
   181 C69       0.6695   -1.1784    4.6768   C.3       1 RES1   0.0000
   182 C70      -0.0632    0.0984    4.2688   C.3       1 RES1   0.0000
   183 C71       0.6677    1.3863    4.6756   C.3       1 RES1   0.0000
   184 C72       1.5729    1.9849    3.5995   C.3       1 RES1   0.0000
   185 H97      -4.9484   -3.9589   -5.5872   H         1 RES1   0.0000
   186 H98      -3.4482   -4.1004   -4.6682   H         1 RES1   0.0000
   187 H99      -3.6479   -2.8090   -5.8600   H         1 RES1   0.0000
   188 H100     -3.6300   -5.7939   -6.5097   H         1 RES1   0.0000
   189 H101     -3.7249   -4.4866   -7.6868   H         1 RES1   0.0000
   190 H102     -1.3823   -5.0058   -5.8165   H         1 RES1   0.0000
   191 H103     -1.4672   -5.5324   -7.5007   H         1 RES1   0.0000
   192 H104     -1.7230   -3.1307   -8.1997   H         1 RES1   0.0000
   193 H105     -1.4261   -2.6378   -6.5449   H         1 RES1   0.0000
   194 H106      0.4520   -4.1212   -8.4425   H         1 RES1   0.0000
   195 H107      0.6368   -2.4805   -7.8460   H         1 RES1   0.0000
   196 H108      0.7892   -5.0345   -6.1877   H         1 RES1   0.0000
   197 H109      2.1656   -4.1001   -6.7444   H         1 RES1   0.0000
   198 H110      1.6581   -2.2684   -5.3075   H         1 RES1   0.0000
   199 H111      0.0293   -2.8611   -4.9818   H         1 RES1   0.0000
   200 H112      0.8446   -4.7347   -3.6860   H         1 RES1   0.0000
   201 H113      2.4668   -4.5063   -4.3045   H         1 RES1   0.0000
   202 H114      3.4993   -2.0984   -3.6428   H         1 RES1   0.0000
   203 H115      3.4378   -2.1292   -1.8716   H         1 RES1   0.0000
   204 H116      4.2121   -4.5915   -3.5145   H         1 RES1   0.0000
   205 H117      5.3686   -3.3911   -2.9890   H         1 RES1   0.0000
   206 H118      4.4586   -4.3229   -1.7951   H         1 RES1   0.0000
   207 H119     -0.6795   -2.6711   -3.0775   H         1 RES1   0.0000
   208 H120     -0.5896   -4.1459   -2.1018   H         1 RES1   0.0000
   209 H121     -2.8558   -3.3958   -0.6556   H         1 RES1   0.0000
   210 H122     -1.3478   -4.2909   -0.2874   H         1 RES1   0.0000
   211 H123     -4.1998   -4.3990    0.8550   H         1 RES1   0.0000
   212 H124     -2.6745   -5.3094    0.8399   H         1 RES1   0.0000
   213 H125     -4.6764   -5.3421    3.1255   H         1 RES1   0.0000
   214 H126     -4.3517   -6.5628    1.9246   H         1 RES1   0.0000
   215 H127     -3.1214   -6.1842    3.1055   H         1 RES1   0.0000
   216 H128     -4.2374   -3.0572    3.1649   H         1 RES1   0.0000
   217 H129     -3.0341   -4.0752    3.9579   H         1 RES1   0.0000
   218 H130     -2.2794   -1.2331    3.3947   H         1 RES1   0.0000
   219 H131     -3.4955   -1.5784    4.6286   H         1 RES1   0.0000
   220 H132     -1.5525   -1.5975    5.9170   H         1 RES1   0.0000
   221 H133     -1.8456   -3.2904    5.6148   H         1 RES1   0.0000
   222 H134      0.3926   -3.2612    5.0340   H         1 RES1   0.0000
   223 H135     -0.2267   -2.7225    3.4770   H         1 RES1   0.0000
   224 H136      0.9933   -1.0853    5.7134   H         1 RES1   0.0000
   225 H137      1.5488   -1.2933    4.0548   H         1 RES1   0.0000
   226 H138     -0.2241    0.0783    3.1739   H         1 RES1   0.0000
   227 H139     -1.0357    0.1115    4.7566   H         1 RES1   0.0000
   228 H140     -0.0835    2.1237    4.9571   H         1 RES1   0.0000
   229 H141      1.2577    1.1890    5.5717   H         1 RES1   0.0000
   230 H142      1.2037    1.7416    2.5994   H         1 RES1   0.0000
   231 H143      1.6185    3.0646    3.7063   H         1 RES1   0.0000
   232 H144      2.5888    1.6197    3.6896   H         1 RES1   0.0000
@<TRIPOS>BOND
     1     1    14    1
     2     1    16    1
     3     1    19    1
     4     1    91    1
     5     1    93    1
     6     1    96    1
     7     1   168    1
     8     1   170    1
     9     1   173    1
    10     2     3    1
    11     2    31    1
    12     2    32    1
    13     2    33    1
    14     3     4    1
    15     3    34    1
    16     3    35    1
    17     4     5    1
    18     4    36    1
    19     4    37    1
    20     5     6    1
    21     5    38    1
    22     5    39    1
    23     6     7    1
    24     6    40    1
    25     6    41    1
    26     7     8    1
    27     7    42    1
    28     7    43    1
    29     8     9    1
    30     8    44    1
    31     8    45    1
    32     9    10    1
    33     9    46    1
    34     9    47    1
    35    10    11    1
    36    10    13    1
    37    11    12    1
    38    11    48    1
    39    11    49    1
    40    12    50    1
    41    12    51    1
    42    12    52    1
    43    13    14    2
    44    13    15    1
    45    15    16    1
    46    15    53    1
    47    15    54    1
    48    16    17    1
    49    17    18    1
    50    17    55    1
    51    17    56    1
    52    18    19    2
    53    18    20    1
    54    20    21    1
    55    20    23    1
    56    21    22    1
    57    21    57    1
    58    21    58    1
    59    22    59    1
    60    22    60    1
    61    22    61    1
    62    23    24    1
    63    23    62    1
    64    23    63    1
    65    24    25    1
    66    24    64    1
    67    24    65    1
    68    25    26    1
    69    25    66    1
    70    25    67    1
    71    26    27    1
    72    26    68    1
    73    26    69    1
    74    27    28    1
    75    27    70    1
    76    27    71    1
    77    28    29    1
    78    28    72    1
    79    28    73    1
    80    29    30    1
    81    29    74    1
    82    29    75    1
    83    30    76    1
    84    30    77    1
    85    30    78    1
    86    79    80    1
    87    79   108    1
    88    79   109    1
    89    79   110    1
    90    80    81    1
    91    80   111    1
    92    80   112    1
    93    81    82    1
    94    81   113    1
    95    81   114    1
    96    82    83    1
    97    82   115    1
    98    82   116    1
    99    83    84    1
   100    83   117    1
   101    83   118    1
   102    84    85    1
   103    84   119    1
   104    84   120    1
   105    85    86    1
   106    85   121    1
   107    85   122    1
   108    86    87    1
   109    86   123    1
   110    86   124    1
   111    87    88    1
   112    87    90    1
   113    88    89    1
   114    88   125    1
   115    88   126    1
   116    89   127    1
   117    89   128    1
   118    89   129    1
   119    90    91    2
   120    90    92    1
   121    92    93    1
   122    92   130    1
   123    92   131    1
   124    93    94    1
   125    94    95    1
   126    94   132    1
   127    94   133    1
   128    95    96    2
   129    95    97    1
   130    97    98    1
   131    97   100    1
   132    98    99    1
   133    98   134    1
   134    98   135    1
   135    99   136    1
   136    99   137    1
   137    99   138    1
   138   100   101    1
   139   100   139    1
   140   100   140    1
   141   101   102    1
   142   101   141    1
   143   101   142    1
   144   102   103    1
   145   102   143    1
   146   102   144    1
   147   103   104    1
   148   103   145    1
   149   103   146    1
   150   104   105    1
   151   104   147    1
   152   104   148    1
   153   105   106    1
   154   105   149    1
   155   105   150    1
   156   106   107    1
   157   106   151    1
   158   106   152    1
   159   107   153    1
   160   107   154    1
   161   107   155    1
   162   156   157    1
   163   156   185    1
   164   156   186    1
   165   156   187    1
   166   157   158    1
   167   157   188    1
   168   157   189    1
   169   158   159    1
   170   158   190    1
   171   158   191    1
   172   159   160    1
   173   159   192    1
   174   159   193    1
   175   160   161    1
   176   160   194    1
   177   160   195    1
   178   161   162    1
   179   161   196    1
   180   161   197    1
   181   162   163    1
   182   162   198    1
   183   162   199    1
   184   163   164    1
   185   163   200    1
   186   163   201    1
   187   164   165    1
   188   164   167    1
   189   165   166    1
   190   165   202    1
   191   165   203    1
   192   166   204    1
   193   166   205    1
   194   166   206    1
   195   167   168    2
   196   167   169    1
   197   169   170    1
   198   169   207    1
   199   169   208    1
   200   170   171    1
   201   171   172    1
   202   171   209    1
   203   171   210    1
   204   172   173    2
   205   172   174    1
   206   174   175    1
   207   174   177    1
   208   175   176    1
   209   175   211    1
   210   175   212    1
   211   176   213    1
   212   176   214    1
   213   176   215    1
   214   177   178    1
   215   177   216    1
   216   177   217    1
   217   178   179    1
   218   178   218    1
   219   178   219    1
   220   179   180    1
   221   179   220    1
   222   179   221    1
   223   180   181    1
   224   180   222    1
   225   180   223    1
   226   181   182    1
   227   181   224    1
   228   181   225    1
   229   182   183    1
   230   182   226    1
   231   182   227    1
   232   183   184    1
   233   183   228    1
   234   183   229    1
   235   184   230    1
   236   184   231    1
   237   184   232    1
@<TRIPOS>SUBSTRUCTURE
     1 RES1      232 GROUP             0 ****  ****    0  
