@<TRIPOS>MOLECULE
tri_tri_mer_capped_0_nunpairedes_0_charge_3 Charge: 3 Unpaired_Electrons: 5 XTB_Unpaired_Electrons: 0 XTB_Charge: 3
   412   417     1     0     0
SMALL
NoCharges
****
Generated from Architector

@<TRIPOS>ATOM
     1 Sm1      -0.1883   -0.3602   -0.3532   Sm        1 RES1   0.0000
     2 C1       -3.8373    1.8278   -8.5922   C.3       1 RES1   0.0000
     3 C2       -3.0103    2.8155   -7.7783   C.3       1 RES1   0.0000
     4 C3       -2.6656    4.0567   -8.6101   C.3       1 RES1   0.0000
     5 C4       -1.5044    4.9116   -8.0874   C.3       1 RES1   0.0000
     6 C5       -1.8132    5.9334   -6.9873   C.3       1 RES1   0.0000
     7 C6       -2.4276    5.4172   -5.6849   C.3       1 RES1   0.0000
     8 C7       -1.4616    4.5800   -4.8364   C.3       1 RES1   0.0000
     9 C8       -2.2268    3.7253   -3.8208   C.3       1 RES1   0.0000
    10 N1       -1.4590    3.2134   -2.6887   N.am      1 RES1   0.0000
    11 C9       -0.8515    4.1960   -1.7829   C.3       1 RES1   0.0000
    12 C10      -1.8350    5.0556   -0.9929   C.3       1 RES1   0.0000
    13 C11      -2.5683    4.2461    0.0734   C.3       1 RES1   0.0000
    14 C12      -3.7197    5.0014    0.7383   C.3       1 RES1   0.0000
    15 C13      -5.0933    4.8308    0.0723   C.3       1 RES1   0.0000
    16 C14      -5.5457    3.3672    0.1203   C.3       1 RES1   0.0000
    17 C15      -5.1730    5.3419   -1.3703   C.3       1 RES1   0.0000
    18 C16      -4.9268    6.8442   -1.5256   C.3       1 RES1   0.0000
    19 C17      -4.7194    7.2298   -2.9886   C.3       1 RES1   0.0000
    20 C18      -4.6326    8.7402   -3.2371   C.3       1 RES1   0.0000
    21 C19      -3.3808    9.3536   -2.6126   C.3       1 RES1   0.0000
    22 C20      -4.6487    9.0236   -4.7389   C.3       1 RES1   0.0000
    23 C21      -1.3946    1.9335   -2.3481   C.2       1 RES1   0.0000
    24 O1       -1.0837    1.5672   -1.1966   O.2       1 RES1   0.0000
    25 C22      -1.5332    0.8213   -3.4058   C.3       1 RES1   0.0000
    26 O2       -0.6075   -0.1472   -2.9242   O.3       1 RES1   0.0000
    27 C23      -0.0436   -1.0553   -3.8657   C.3       1 RES1   0.0000
    28 C24       1.1061   -1.6402   -3.0212   C.2       1 RES1   0.0000
    29 O3        0.6368   -1.9992   -1.9071   O.2       1 RES1   0.0000
    30 N2        2.4012   -1.7619   -3.3497   N.am      1 RES1   0.0000
    31 C25       3.1201   -2.5027   -2.2170   C.3       1 RES1   0.0000
    32 C26       3.8181   -3.9055   -2.1136   C.3       1 RES1   0.0000
    33 C27       5.3573   -4.1919   -2.0538   C.3       1 RES1   0.0000
    34 C28       6.2620   -3.4066   -1.0627   C.3       1 RES1   0.0000
    35 C29       7.4389   -2.5261   -1.5667   C.3       1 RES1   0.0000
    36 C30       8.2254   -3.0052   -2.7922   C.3       1 RES1   0.0000
    37 C31       9.4355   -2.1182   -3.1507   C.3       1 RES1   0.0000
    38 C32       9.1596   -0.6410   -3.4378   C.3       1 RES1   0.0000
    39 C33       2.8122   -1.1599   -4.7117   C.3       1 RES1   0.0000
    40 C34       3.7402   -0.0039   -5.4111   C.3       1 RES1   0.0000
    41 C35       5.2705    0.3942   -5.5831   C.3       1 RES1   0.0000
    42 C36       5.5708    1.9247   -5.4877   C.3       1 RES1   0.0000
    43 C37       6.5375    2.6270   -4.4569   C.3       1 RES1   0.0000
    44 C38       6.1855    4.1129   -4.5789   C.3       1 RES1   0.0000
    45 C39       6.4964    2.2000   -2.9747   C.3       1 RES1   0.0000
    46 C40       7.2792    2.9999   -1.9170   C.3       1 RES1   0.0000
    47 C41       7.1272    2.2228   -0.5915   C.3       1 RES1   0.0000
    48 C42       7.6976    2.8385    0.7004   C.3       1 RES1   0.0000
    49 C43       6.7471    3.8606    1.3255   C.3       1 RES1   0.0000
    50 C44       7.9716    1.7329    1.7275   C.3       1 RES1   0.0000
    51 H1       -4.1256    0.9690   -7.9923   H         1 RES1   0.0000
    52 H2       -3.2728    1.4699   -9.4473   H         1 RES1   0.0000
    53 H3       -4.7411    2.3009   -8.9613   H         1 RES1   0.0000
    54 H4       -2.0868    2.3234   -7.4540   H         1 RES1   0.0000
    55 H5       -3.5751    3.0884   -6.8849   H         1 RES1   0.0000
    56 H6       -3.5523    4.6798   -8.7358   H         1 RES1   0.0000
    57 H7       -2.3811    3.7095   -9.6068   H         1 RES1   0.0000
    58 H8       -1.1194    5.4849   -8.9360   H         1 RES1   0.0000
    59 H9       -0.6955    4.2486   -7.7718   H         1 RES1   0.0000
    60 H10      -2.4894    6.6823   -7.3984   H         1 RES1   0.0000
    61 H11      -0.8845    6.4544   -6.7465   H         1 RES1   0.0000
    62 H12      -3.3236    4.8417   -5.9099   H         1 RES1   0.0000
    63 H13      -2.7416    6.2872   -5.1061   H         1 RES1   0.0000
    64 H14      -0.7714    5.2546   -4.3305   H         1 RES1   0.0000
    65 H15      -0.8855    3.9396   -5.4902   H         1 RES1   0.0000
    66 H16      -2.7141    2.8904   -4.3291   H         1 RES1   0.0000
    67 H17      -3.0219    4.3455   -3.4012   H         1 RES1   0.0000
    68 H18      -0.2228    4.8435   -2.4016   H         1 RES1   0.0000
    69 H19      -0.2170    3.6370   -1.0861   H         1 RES1   0.0000
    70 H20      -2.5203    5.5535   -1.6734   H         1 RES1   0.0000
    71 H21      -1.2590    5.8461   -0.5104   H         1 RES1   0.0000
    72 H22      -1.8359    3.9731    0.8356   H         1 RES1   0.0000
    73 H23      -2.9297    3.3166   -0.3669   H         1 RES1   0.0000
    74 H24      -3.4802    6.0616    0.8018   H         1 RES1   0.0000
    75 H25      -3.8213    4.6496    1.7651   H         1 RES1   0.0000
    76 H26      -5.8073    5.4115    0.6653   H         1 RES1   0.0000
    77 H27      -4.9443    2.7397   -0.5407   H         1 RES1   0.0000
    78 H28      -6.5826    3.2813   -0.1996   H         1 RES1   0.0000
    79 H29      -5.4650    2.9824    1.1361   H         1 RES1   0.0000
    80 H30      -6.1686    5.1171   -1.7616   H         1 RES1   0.0000
    81 H31      -4.4730    4.7788   -1.9916   H         1 RES1   0.0000
    82 H32      -4.0550    7.1518   -0.9490   H         1 RES1   0.0000
    83 H33      -5.7871    7.3822   -1.1289   H         1 RES1   0.0000
    84 H34      -5.5458    6.8305   -3.5786   H         1 RES1   0.0000
    85 H35      -3.8007    6.7626   -3.3535   H         1 RES1   0.0000
    86 H36      -5.5122    9.2132   -2.7897   H         1 RES1   0.0000
    87 H37      -2.4817    8.8920   -3.0185   H         1 RES1   0.0000
    88 H38      -3.3760    9.2370   -1.5322   H         1 RES1   0.0000
    89 H39      -3.3369   10.4170   -2.8319   H         1 RES1   0.0000
    90 H40      -3.7746    8.5888   -5.2207   H         1 RES1   0.0000
    91 H41      -4.6348   10.0949   -4.9196   H         1 RES1   0.0000
    92 H42      -5.5395    8.6099   -5.2056   H         1 RES1   0.0000
    93 H43      -1.2160    1.1892   -4.3901   H         1 RES1   0.0000
    94 H44      -2.5393    0.3862   -3.4746   H         1 RES1   0.0000
    95 H45       0.1547   -0.5592   -4.8171   H         1 RES1   0.0000
    96 H46      -0.7157   -1.9039   -4.0739   H         1 RES1   0.0000
    97 H47       2.2649   -2.6528   -1.5653   H         1 RES1   0.0000
    98 H48       3.7626   -1.7950   -1.7322   H         1 RES1   0.0000
    99 H49       3.4032   -4.6227   -2.8181   H         1 RES1   0.0000
   100 H50       3.4552   -4.2283   -1.1359   H         1 RES1   0.0000
   101 H51       5.8191   -4.2107   -3.0372   H         1 RES1   0.0000
   102 H52       5.3739   -5.2281   -1.7082   H         1 RES1   0.0000
   103 H53       6.7214   -4.1372   -0.4014   H         1 RES1   0.0000
   104 H54       5.6384   -2.7750   -0.4238   H         1 RES1   0.0000
   105 H55       8.1511   -2.4548   -0.7413   H         1 RES1   0.0000
   106 H56       7.0998   -1.5057   -1.7414   H         1 RES1   0.0000
   107 H57       7.5822   -3.0649   -3.6703   H         1 RES1   0.0000
   108 H58       8.6073   -4.0098   -2.6040   H         1 RES1   0.0000
   109 H59       9.8928   -2.5446   -4.0468   H         1 RES1   0.0000
   110 H60      10.1714   -2.1771   -2.3476   H         1 RES1   0.0000
   111 H61       8.4008   -0.5090   -4.2071   H         1 RES1   0.0000
   112 H62      10.0671   -0.1622   -3.8040   H         1 RES1   0.0000
   113 H63       8.8526   -0.1134   -2.5378   H         1 RES1   0.0000
   114 H64       1.8618   -0.7865   -5.0698   H         1 RES1   0.0000
   115 H65       2.9961   -2.0217   -5.3116   H         1 RES1   0.0000
   116 H66       3.2178    0.9211   -5.2278   H         1 RES1   0.0000
   117 H67       3.4729   -0.2832   -6.4314   H         1 RES1   0.0000
   118 H68       5.5252    0.1068   -6.6059   H         1 RES1   0.0000
   119 H69       5.9986   -0.1448   -4.9999   H         1 RES1   0.0000
   120 H70       4.6272    2.4717   -5.4480   H         1 RES1   0.0000
   121 H71       6.0091    2.1890   -6.4529   H         1 RES1   0.0000
   122 H72       7.5654    2.4750   -4.7988   H         1 RES1   0.0000
   123 H73       5.1764    4.2763   -4.1993   H         1 RES1   0.0000
   124 H74       6.2180    4.4316   -5.6178   H         1 RES1   0.0000
   125 H75       6.8700    4.7396   -4.0197   H         1 RES1   0.0000
   126 H76       6.8816    1.1829   -2.9016   H         1 RES1   0.0000
   127 H77       5.4771    2.2371   -2.5997   H         1 RES1   0.0000
   128 H78       6.8676    4.0044   -1.8248   H         1 RES1   0.0000
   129 H79       8.3309    3.0799   -2.1881   H         1 RES1   0.0000
   130 H80       7.6109    1.2523   -0.7342   H         1 RES1   0.0000
   131 H81       6.0601    2.0285   -0.4284   H         1 RES1   0.0000
   132 H82       8.6463    3.3323    0.4679   H         1 RES1   0.0000
   133 H83       5.8342    3.3763    1.6747   H         1 RES1   0.0000
   134 H84       6.4810    4.6393    0.6173   H         1 RES1   0.0000
   135 H85       7.2210    4.3328    2.1824   H         1 RES1   0.0000
   136 H86       7.0613    1.1786    1.9618   H         1 RES1   0.0000
   137 H87       8.3462    2.1726    2.6480   H         1 RES1   0.0000
   138 H88       8.7192    1.0331    1.3609   H         1 RES1   0.0000
   139 C45      -8.2807    2.3665    2.7515   C.3       1 RES1   0.0000
   140 C46      -7.4897    1.0671    2.8188   C.3       1 RES1   0.0000
   141 C47      -8.2895   -0.0325    3.5217   C.3       1 RES1   0.0000
   142 C48      -7.4634   -1.2843    3.8611   C.3       1 RES1   0.0000
   143 C49      -7.8999   -2.5434    3.1102   C.3       1 RES1   0.0000
   144 C50      -7.6454   -2.4715    1.6045   C.3       1 RES1   0.0000
   145 C51      -6.1544   -2.6424    1.2878   C.3       1 RES1   0.0000
   146 C52      -5.7280   -1.8817    0.0354   C.3       1 RES1   0.0000
   147 N3       -4.3336   -2.0650   -0.3440   N.am      1 RES1   0.0000
   148 C53      -3.9989   -3.3136   -1.0286   C.3       1 RES1   0.0000
   149 C54      -4.5127   -3.4395   -2.4586   C.3       1 RES1   0.0000
   150 C55      -3.9769   -2.3351   -3.3644   C.3       1 RES1   0.0000
   151 C56      -4.4950   -2.4464   -4.8029   C.3       1 RES1   0.0000
   152 C57      -5.7641   -1.6342   -5.1173   C.3       1 RES1   0.0000
   153 C58      -5.4552   -0.1342   -5.1321   C.3       1 RES1   0.0000
   154 C59      -6.9402   -1.9032   -4.1705   C.3       1 RES1   0.0000
   155 C60      -7.4940   -3.3297   -4.2394   C.3       1 RES1   0.0000
   156 C61      -8.3911   -3.6558   -3.0446   C.3       1 RES1   0.0000
   157 C62      -9.0379   -5.0447   -3.1222   C.3       1 RES1   0.0000
   158 C63      -8.0096   -6.1651   -2.9666   C.3       1 RES1   0.0000
   159 C64     -10.1125   -5.1857   -2.0455   C.3       1 RES1   0.0000
   160 C65      -3.3510   -1.2043   -0.1049   C.2       1 RES1   0.0000
   161 O4       -2.2721   -1.2500   -0.7270   O.2       1 RES1   0.0000
   162 C66      -3.4580   -0.2091    1.0564   C.3       1 RES1   0.0000
   163 O5       -2.1121    0.1626    1.3310   O.3       1 RES1   0.0000
   164 C67      -1.8515    0.5007    2.6837   C.3       1 RES1   0.0000
   165 C68      -0.3235    0.4667    2.8432   C.2       1 RES1   0.0000
   166 O6        0.3706    0.4285    1.8082   O.2       1 RES1   0.0000
   167 N4        0.2145    0.4843    4.0550   N.am      1 RES1   0.0000
   168 C69       1.6652    0.4545    4.1867   C.3       1 RES1   0.0000
   169 C70       2.3235    1.8369    4.1120   C.3       1 RES1   0.0000
   170 C71       3.6614    1.8654    4.8646   C.3       1 RES1   0.0000
   171 C72       4.6561    0.7823    4.4067   C.3       1 RES1   0.0000
   172 C73       4.8377   -0.3669    5.4057   C.3       1 RES1   0.0000
   173 C74       5.6664    0.0351    6.6257   C.3       1 RES1   0.0000
   174 C75       5.8043   -1.1015    7.6472   C.3       1 RES1   0.0000
   175 C76       4.6804   -1.1484    8.6796   C.3       1 RES1   0.0000
   176 C77      -0.5221    0.5941    5.3029   C.3       1 RES1   0.0000
   177 C78      -0.9617   -0.7371    5.9327   C.3       1 RES1   0.0000
   178 C79       0.1361   -1.6984    6.4217   C.3       1 RES1   0.0000
   179 C80       0.6477   -2.6578    5.3397   C.3       1 RES1   0.0000
   180 C81       1.3339   -3.9321    5.8800   C.3       1 RES1   0.0000
   181 C82       1.0716   -5.0659    4.8914   C.3       1 RES1   0.0000
   182 C83       2.8458   -3.7684    6.0933   C.3       1 RES1   0.0000
   183 C84       3.4714   -4.9755    6.8247   C.3       1 RES1   0.0000
   184 C85       4.5991   -5.6589    6.0439   C.3       1 RES1   0.0000
   185 C86       4.9799   -7.0394    6.6072   C.3       1 RES1   0.0000
   186 C87       4.0453   -8.1315    6.0841   C.3       1 RES1   0.0000
   187 C88       6.4195   -7.4075    6.2511   C.3       1 RES1   0.0000
   188 H89      -7.7122    3.1484    2.2549   H         1 RES1   0.0000
   189 H90      -8.5210    2.6930    3.7592   H         1 RES1   0.0000
   190 H91      -9.2092    2.2228    2.2075   H         1 RES1   0.0000
   191 H92      -6.5591    1.2457    3.3678   H         1 RES1   0.0000
   192 H93      -7.2174    0.7440    1.8089   H         1 RES1   0.0000
   193 H94      -9.1383   -0.3119    2.8983   H         1 RES1   0.0000
   194 H95      -8.7046    0.3820    4.4402   H         1 RES1   0.0000
   195 H96      -7.5530   -1.4928    4.9269   H         1 RES1   0.0000
   196 H97      -6.4076   -1.0799    3.6657   H         1 RES1   0.0000
   197 H98      -8.9619   -2.7037    3.2903   H         1 RES1   0.0000
   198 H99      -7.3698   -3.4069    3.5169   H         1 RES1   0.0000
   199 H100     -8.0058   -1.5162    1.2251   H         1 RES1   0.0000
   200 H101     -8.2151   -3.2547    1.1056   H         1 RES1   0.0000
   201 H102     -5.9383   -3.7047    1.1735   H         1 RES1   0.0000
   202 H103     -5.5738   -2.2708    2.1303   H         1 RES1   0.0000
   203 H104     -5.9264   -0.8174    0.1685   H         1 RES1   0.0000
   204 H105     -6.3339   -2.2311   -0.8031   H         1 RES1   0.0000
   205 H106     -4.4074   -4.1237   -0.4152   H         1 RES1   0.0000
   206 H107     -2.9080   -3.3805   -1.0357   H         1 RES1   0.0000
   207 H108     -4.1836   -4.4104   -2.8343   H         1 RES1   0.0000
   208 H109     -5.5983   -3.4427   -2.4680   H         1 RES1   0.0000
   209 H110     -2.8858   -2.3952   -3.3589   H         1 RES1   0.0000
   210 H111     -4.2415   -1.3647   -2.9402   H         1 RES1   0.0000
   211 H112     -4.6692   -3.4956   -5.0442   H         1 RES1   0.0000
   212 H113     -3.7220   -2.0927   -5.4878   H         1 RES1   0.0000
   213 H114     -6.0773   -1.9122   -6.1293   H         1 RES1   0.0000
   214 H115     -5.2321    0.2375   -4.1318   H         1 RES1   0.0000
   215 H116     -6.3083    0.4232   -5.5091   H         1 RES1   0.0000
   216 H117     -4.6078    0.0788   -5.7811   H         1 RES1   0.0000
   217 H118     -7.7445   -1.2093   -4.4227   H         1 RES1   0.0000
   218 H119     -6.6384   -1.6620   -3.1482   H         1 RES1   0.0000
   219 H120     -6.6757   -4.0479   -4.2874   H         1 RES1   0.0000
   220 H121     -8.0722   -3.4402   -5.1568   H         1 RES1   0.0000
   221 H122     -9.1815   -2.9054   -2.9846   H         1 RES1   0.0000
   222 H123     -7.8118   -3.5918   -2.1170   H         1 RES1   0.0000
   223 H124     -9.5169   -5.1439   -4.1014   H         1 RES1   0.0000
   224 H125     -7.5111   -6.0958   -2.0001   H         1 RES1   0.0000
   225 H126     -7.2583   -6.1301   -3.7518   H         1 RES1   0.0000
   226 H127     -8.5025   -7.1322   -3.0195   H         1 RES1   0.0000
   227 H128     -9.6718   -5.1206   -1.0522   H         1 RES1   0.0000
   228 H129    -10.6060   -6.1493   -2.1328   H         1 RES1   0.0000
   229 H130    -10.8656   -4.4073   -2.1394   H         1 RES1   0.0000
   230 H131     -3.8957   -0.7236    1.9198   H         1 RES1   0.0000
   231 H132     -4.0571    0.6784    0.8133   H         1 RES1   0.0000
   232 H133     -2.3445   -0.2137    3.3559   H         1 RES1   0.0000
   233 H134     -2.2220    1.5152    2.8999   H         1 RES1   0.0000
   234 H135      2.0582   -0.1898    3.3997   H         1 RES1   0.0000
   235 H136      1.8905    0.0228    5.1583   H         1 RES1   0.0000
   236 H137      1.6542    2.5792    4.5539   H         1 RES1   0.0000
   237 H138      2.4820    2.1160    3.0687   H         1 RES1   0.0000
   238 H139      3.4720    1.7476    5.9335   H         1 RES1   0.0000
   239 H140      4.1065    2.8525    4.7210   H         1 RES1   0.0000
   240 H141      5.6364    1.2348    4.2492   H         1 RES1   0.0000
   241 H142      4.3321    0.3710    3.4453   H         1 RES1   0.0000
   242 H143      5.3503   -1.1884    4.8959   H         1 RES1   0.0000
   243 H144      3.8676   -0.7432    5.7340   H         1 RES1   0.0000
   244 H145      5.2265    0.9084    7.1132   H         1 RES1   0.0000
   245 H146      6.6607    0.3180    6.2780   H         1 RES1   0.0000
   246 H147      6.7431   -0.9783    8.1882   H         1 RES1   0.0000
   247 H148      5.8521   -2.0601    7.1230   H         1 RES1   0.0000
   248 H149      4.7064   -0.2696    9.3223   H         1 RES1   0.0000
   249 H150      4.7930   -2.0258    9.3137   H         1 RES1   0.0000
   250 H151      3.6977   -1.1985    8.2118   H         1 RES1   0.0000
   251 H152     -1.4118    1.2011    5.1453   H         1 RES1   0.0000
   252 H153      0.1118    1.1292    6.0122   H         1 RES1   0.0000
   253 H154     -1.6043   -1.2826    5.2375   H         1 RES1   0.0000
   254 H155     -1.5696   -0.4621    6.7971   H         1 RES1   0.0000
   255 H156     -0.3069   -2.3022    7.2184   H         1 RES1   0.0000
   256 H157      0.9614   -1.1395    6.8681   H         1 RES1   0.0000
   257 H158      1.3438   -2.1465    4.6712   H         1 RES1   0.0000
   258 H159     -0.2155   -2.9587    4.7342   H         1 RES1   0.0000
   259 H160      0.8972   -4.1776    6.8505   H         1 RES1   0.0000
   260 H161      1.1887   -4.6811    3.8823   H         1 RES1   0.0000
   261 H162      0.0646   -5.4556    5.0037   H         1 RES1   0.0000
   262 H163      1.7688   -5.8841    5.0360   H         1 RES1   0.0000
   263 H164      3.0276   -2.8597    6.6661   H         1 RES1   0.0000
   264 H165      3.3255   -3.6488    5.1183   H         1 RES1   0.0000
   265 H166      2.6904   -5.7074    7.0340   H         1 RES1   0.0000
   266 H167      3.8620   -4.6527    7.7894   H         1 RES1   0.0000
   267 H168      5.4766   -5.0092    6.0406   H         1 RES1   0.0000
   268 H169      4.2940   -5.7837    5.0036   H         1 RES1   0.0000
   269 H170      4.9046   -7.0023    7.6986   H         1 RES1   0.0000
   270 H171      4.1393   -8.2191    5.0010   H         1 RES1   0.0000
   271 H172      3.0080   -7.9141    6.3297   H         1 RES1   0.0000
   272 H173      4.3033   -9.0926    6.5254   H         1 RES1   0.0000
   273 H174      6.6482   -8.4011    6.6312   H         1 RES1   0.0000
   274 H175      6.5616   -7.4097    5.1709   H         1 RES1   0.0000
   275 H176      7.1252   -6.7071    6.6927   H         1 RES1   0.0000
   276 C89       7.9172   -3.7823    3.6360   C.3       1 RES1   0.0000
   277 C90       6.5171   -3.9179    3.0488   C.3       1 RES1   0.0000
   278 C91       6.2676   -5.2960    2.4319   C.3       1 RES1   0.0000
   279 C92       4.7940   -5.5353    2.1025   C.3       1 RES1   0.0000
   280 C93       4.5793   -6.8691    1.3836   C.3       1 RES1   0.0000
   281 C94       3.1285   -7.3225    1.2149   C.3       1 RES1   0.0000
   282 C95       2.2299   -6.3419    0.4657   C.3       1 RES1   0.0000
   283 C96       1.6267   -5.3560    1.4632   C.3       1 RES1   0.0000
   284 N5        0.6634   -4.4018    0.9344   N.am      1 RES1   0.0000
   285 C97      -0.5855   -4.9602    0.4038   C.3       1 RES1   0.0000
   286 C98      -1.4838   -5.7061    1.3907   C.3       1 RES1   0.0000
   287 C99      -2.1318   -4.8344    2.4693   C.3       1 RES1   0.0000
   288 C100     -3.4490   -5.4659    2.9461   C.3       1 RES1   0.0000
   289 C101     -3.9384   -5.0455    4.3396   C.3       1 RES1   0.0000
   290 C102     -4.1593   -3.5358    4.4288   C.3       1 RES1   0.0000
   291 C103     -3.0078   -5.4668    5.4786   C.3       1 RES1   0.0000
   292 C104     -2.6349   -6.9445    5.5074   C.3       1 RES1   0.0000
   293 C105     -1.7403   -7.2362    6.7081   C.3       1 RES1   0.0000
   294 C106     -1.2099   -8.6722    6.8131   C.3       1 RES1   0.0000
   295 C107     -0.5731   -9.1628    5.5123   C.3       1 RES1   0.0000
   296 C108     -0.1925   -8.7134    7.9539   C.3       1 RES1   0.0000
   297 C109      0.8094   -3.0834    0.9815   C.2       1 RES1   0.0000
   298 O7       -0.1492   -2.3009    0.8347   O.2       1 RES1   0.0000
   299 C110      2.2033   -2.4320    1.1583   C.3       1 RES1   0.0000
   300 O8        2.0876   -1.2360    0.3963   O.3       1 RES1   0.0000
   301 C111      3.2484   -0.4734    0.0595   C.3       1 RES1   0.0000
   302 C112      2.8061    0.2612   -1.2393   C.2       1 RES1   0.0000
   303 O9        1.6976    0.8195   -1.0935   O.2       1 RES1   0.0000
   304 N6        3.4727    0.4222   -2.3933   N.am      1 RES1   0.0000
   305 C113      3.1213    1.7406   -3.0184   C.3       1 RES1   0.0000
   306 C114      1.7659    1.8764   -3.7424   C.3       1 RES1   0.0000
   307 C115      1.7562    2.7625   -5.0117   C.3       1 RES1   0.0000
   308 C116      0.7903    2.2871   -6.1073   C.3       1 RES1   0.0000
   309 C117      1.2544    1.2761   -7.1628   C.3       1 RES1   0.0000
   310 C118      2.3896    1.7768   -8.0596   C.3       1 RES1   0.0000
   311 C119      2.5383    0.9659   -9.3492   C.3       1 RES1   0.0000
   312 C120      3.1184   -0.4302   -9.1455   C.3       1 RES1   0.0000
   313 C121      4.7437   -0.2515   -2.8488   C.3       1 RES1   0.0000
   314 C122      5.2122   -1.6398   -3.5755   C.3       1 RES1   0.0000
   315 C123      5.0718   -2.4692   -4.9401   C.3       1 RES1   0.0000
   316 C124      4.1082   -3.6932   -5.1573   C.3       1 RES1   0.0000
   317 C125      3.5002   -3.9411   -6.5873   C.3       1 RES1   0.0000
   318 C126      3.7323   -5.4082   -6.9670   C.3       1 RES1   0.0000
   319 C127      1.9842   -3.5884   -6.6516   C.3       1 RES1   0.0000
   320 C128      1.0834   -4.1979   -7.7418   C.3       1 RES1   0.0000
   321 C129     -0.2427   -3.4130   -7.7321   C.3       1 RES1   0.0000
   322 C130     -1.3979   -3.9182   -8.6154   C.3       1 RES1   0.0000
   323 C131     -2.1380   -5.0724   -7.9447   C.3       1 RES1   0.0000
   324 C132     -2.3928   -2.7800   -8.8784   C.3       1 RES1   0.0000
   325 H177      8.0180   -2.8309    4.1533   H         1 RES1   0.0000
   326 H178      8.6860   -3.8462    2.8691   H         1 RES1   0.0000
   327 H179      8.0919   -4.5736    4.3579   H         1 RES1   0.0000
   328 H180      6.3694   -3.1433    2.2906   H         1 RES1   0.0000
   329 H181      5.7864   -3.7521    3.8448   H         1 RES1   0.0000
   330 H182      6.6089   -6.0651    3.1254   H         1 RES1   0.0000
   331 H183      6.8408   -5.4008    1.5112   H         1 RES1   0.0000
   332 H184      4.4481   -4.7039    1.4768   H         1 RES1   0.0000
   333 H185      4.2265   -5.5284    3.0355   H         1 RES1   0.0000
   334 H186      5.0920   -7.6434    1.9561   H         1 RES1   0.0000
   335 H187      5.0569   -6.8179    0.4016   H         1 RES1   0.0000
   336 H188      2.6810   -7.5221    2.1877   H         1 RES1   0.0000
   337 H189      3.1505   -8.2647    0.6758   H         1 RES1   0.0000
   338 H190      1.4309   -6.8967   -0.0186   H         1 RES1   0.0000
   339 H191      2.7970   -5.8256   -0.3033   H         1 RES1   0.0000
   340 H192      2.4126   -4.8094    1.9784   H         1 RES1   0.0000
   341 H193      1.0997   -5.9507    2.2137   H         1 RES1   0.0000
   342 H194     -0.3159   -5.6638   -0.3910   H         1 RES1   0.0000
   343 H195     -1.1302   -4.1237   -0.0417   H         1 RES1   0.0000
   344 H196     -0.9422   -6.5357    1.8468   H         1 RES1   0.0000
   345 H197     -2.2772   -6.1444    0.7860   H         1 RES1   0.0000
   346 H198     -2.3337   -3.8442    2.0516   H         1 RES1   0.0000
   347 H199     -1.4539   -4.7121    3.3133   H         1 RES1   0.0000
   348 H200     -3.3496   -6.5514    2.9431   H         1 RES1   0.0000
   349 H201     -4.2365   -5.2215    2.2270   H         1 RES1   0.0000
   350 H202     -4.9032   -5.5404    4.4785   H         1 RES1   0.0000
   351 H203     -3.2161   -3.0228    4.6153   H         1 RES1   0.0000
   352 H204     -4.8364   -3.2904    5.2431   H         1 RES1   0.0000
   353 H205     -4.5897   -3.1632    3.5053   H         1 RES1   0.0000
   354 H206     -3.4862   -5.2088    6.4258   H         1 RES1   0.0000
   355 H207     -2.0904   -4.8740    5.4195   H         1 RES1   0.0000
   356 H208     -2.1006   -7.2038    4.5950   H         1 RES1   0.0000
   357 H209     -3.5403   -7.5470    5.5556   H         1 RES1   0.0000
   358 H210     -2.2928   -7.0138    7.6226   H         1 RES1   0.0000
   359 H211     -0.8825   -6.5576    6.6739   H         1 RES1   0.0000
   360 H212     -2.0389   -9.3432    7.0626   H         1 RES1   0.0000
   361 H213      0.1431   -8.4334    5.1356   H         1 RES1   0.0000
   362 H214     -1.3319   -9.3397    4.7536   H         1 RES1   0.0000
   363 H215     -0.0510  -10.1000    5.6870   H         1 RES1   0.0000
   364 H216      0.6604   -8.0794    7.7157   H         1 RES1   0.0000
   365 H217      0.1673   -9.7247    8.1185   H         1 RES1   0.0000
   366 H218     -0.6373   -8.3527    8.8797   H         1 RES1   0.0000
   367 H219      3.0119   -3.0618    0.7778   H         1 RES1   0.0000
   368 H220      2.3864   -2.2190    2.2223   H         1 RES1   0.0000
   369 H221      4.1659   -1.0691    0.0431   H         1 RES1   0.0000
   370 H222      3.3720    0.3303    0.8072   H         1 RES1   0.0000
   371 H223      3.9092    2.0018   -3.7131   H         1 RES1   0.0000
   372 H224      3.1481    2.4759   -2.2065   H         1 RES1   0.0000
   373 H225      1.0554    2.3099   -3.0405   H         1 RES1   0.0000
   374 H226      1.4173    0.8881   -4.0018   H         1 RES1   0.0000
   375 H227      2.7340    2.8621   -5.4688   H         1 RES1   0.0000
   376 H228      1.4683    3.7754   -4.7255   H         1 RES1   0.0000
   377 H229      0.4874    3.1618   -6.6857   H         1 RES1   0.0000
   378 H230     -0.1024    1.8790   -5.6292   H         1 RES1   0.0000
   379 H231      0.3771    1.1026   -7.7951   H         1 RES1   0.0000
   380 H232      1.5091    0.3156   -6.7218   H         1 RES1   0.0000
   381 H233      3.3477    1.7655   -7.5371   H         1 RES1   0.0000
   382 H234      2.1614    2.8084   -8.3331   H         1 RES1   0.0000
   383 H235      3.1979    1.5197  -10.0139   H         1 RES1   0.0000
   384 H236      1.5695    0.8878   -9.8439   H         1 RES1   0.0000
   385 H237      4.0850   -0.3783   -8.6438   H         1 RES1   0.0000
   386 H238      3.2747   -0.9218  -10.1031   H         1 RES1   0.0000
   387 H239      2.4458   -1.0544   -8.5596   H         1 RES1   0.0000
   388 H240      5.3523   -0.2976   -1.9442   H         1 RES1   0.0000
   389 H241      5.1627    0.5134   -3.4684   H         1 RES1   0.0000
   390 H242      5.1797   -2.3965   -2.8270   H         1 RES1   0.0000
   391 H243      6.2686   -1.3788   -3.6231   H         1 RES1   0.0000
   392 H244      6.0732   -2.9041   -4.9923   H         1 RES1   0.0000
   393 H245      5.0264   -1.8448   -5.8222   H         1 RES1   0.0000
   394 H246      3.2678   -3.7015   -4.4739   H         1 RES1   0.0000
   395 H247      4.6924   -4.5847   -4.9372   H         1 RES1   0.0000
   396 H248      4.0391   -3.3277   -7.3149   H         1 RES1   0.0000
   397 H249      3.1769   -6.0673   -6.3022   H         1 RES1   0.0000
   398 H250      4.7862   -5.6734   -6.8965   H         1 RES1   0.0000
   399 H251      3.4121   -5.5906   -7.9892   H         1 RES1   0.0000
   400 H252      1.8813   -2.5092   -6.7879   H         1 RES1   0.0000
   401 H253      1.5269   -3.8538   -5.6917   H         1 RES1   0.0000
   402 H254      0.9103   -5.2545   -7.5432   H         1 RES1   0.0000
   403 H255      1.5546   -4.1057   -8.7207   H         1 RES1   0.0000
   404 H256     -0.0133   -2.3896   -8.0405   H         1 RES1   0.0000
   405 H257     -0.6156   -3.3656   -6.7020   H         1 RES1   0.0000
   406 H258     -1.0026   -4.2556   -9.5782   H         1 RES1   0.0000
   407 H259     -2.5338   -4.7495   -6.9820   H         1 RES1   0.0000
   408 H260     -1.4781   -5.9200   -7.7930   H         1 RES1   0.0000
   409 H261     -2.9756   -5.4026   -8.5533   H         1 RES1   0.0000
   410 H262     -2.8282   -2.4266   -7.9415   H         1 RES1   0.0000
   411 H263     -3.2046   -3.1288   -9.5152   H         1 RES1   0.0000
   412 H264     -1.9115   -1.9406   -9.3794   H         1 RES1   0.0000
@<TRIPOS>BOND
     1     1    24    1
     2     1    26    1
     3     1    29    1
     4     1   161    1
     5     1   163    1
     6     1   166    1
     7     1   298    1
     8     1   300    1
     9     1   303    1
    10     2     3    1
    11     2    51    1
    12     2    52    1
    13     2    53    1
    14     3     4    1
    15     3    54    1
    16     3    55    1
    17     4     5    1
    18     4    56    1
    19     4    57    1
    20     5     6    1
    21     5    58    1
    22     5    59    1
    23     6     7    1
    24     6    60    1
    25     6    61    1
    26     7     8    1
    27     7    62    1
    28     7    63    1
    29     8     9    1
    30     8    64    1
    31     8    65    1
    32     9    10    1
    33     9    66    1
    34     9    67    1
    35    10    11    1
    36    10    23    1
    37    11    12    1
    38    11    68    1
    39    11    69    1
    40    12    13    1
    41    12    70    1
    42    12    71    1
    43    13    14    1
    44    13    72    1
    45    13    73    1
    46    14    15    1
    47    14    74    1
    48    14    75    1
    49    15    16    1
    50    15    17    1
    51    15    76    1
    52    16    77    1
    53    16    78    1
    54    16    79    1
    55    17    18    1
    56    17    80    1
    57    17    81    1
    58    18    19    1
    59    18    82    1
    60    18    83    1
    61    19    20    1
    62    19    84    1
    63    19    85    1
    64    20    21    1
    65    20    22    1
    66    20    86    1
    67    21    87    1
    68    21    88    1
    69    21    89    1
    70    22    90    1
    71    22    91    1
    72    22    92    1
    73    23    24    2
    74    23    25    1
    75    25    26    1
    76    25    93    1
    77    25    94    1
    78    26    27    1
    79    27    28    1
    80    27    95    1
    81    27    96    1
    82    28    29    2
    83    28    30    1
    84    30    31    1
    85    30    39    1
    86    31    32    1
    87    31    97    1
    88    31    98    1
    89    32    33    1
    90    32    99    1
    91    32   100    1
    92    33    34    1
    93    33   101    1
    94    33   102    1
    95    34    35    1
    96    34   103    1
    97    34   104    1
    98    35    36    1
    99    35   105    1
   100    35   106    1
   101    36    37    1
   102    36   107    1
   103    36   108    1
   104    37    38    1
   105    37   109    1
   106    37   110    1
   107    38   111    1
   108    38   112    1
   109    38   113    1
   110    39    40    1
   111    39   114    1
   112    39   115    1
   113    40    41    1
   114    40   116    1
   115    40   117    1
   116    41    42    1
   117    41   118    1
   118    41   119    1
   119    42    43    1
   120    42   120    1
   121    42   121    1
   122    43    44    1
   123    43    45    1
   124    43   122    1
   125    44   123    1
   126    44   124    1
   127    44   125    1
   128    45    46    1
   129    45   126    1
   130    45   127    1
   131    46    47    1
   132    46   128    1
   133    46   129    1
   134    47    48    1
   135    47   130    1
   136    47   131    1
   137    48    49    1
   138    48    50    1
   139    48   132    1
   140    49   133    1
   141    49   134    1
   142    49   135    1
   143    50   136    1
   144    50   137    1
   145    50   138    1
   146   139   140    1
   147   139   188    1
   148   139   189    1
   149   139   190    1
   150   140   141    1
   151   140   191    1
   152   140   192    1
   153   141   142    1
   154   141   193    1
   155   141   194    1
   156   142   143    1
   157   142   195    1
   158   142   196    1
   159   143   144    1
   160   143   197    1
   161   143   198    1
   162   144   145    1
   163   144   199    1
   164   144   200    1
   165   145   146    1
   166   145   201    1
   167   145   202    1
   168   146   147    1
   169   146   203    1
   170   146   204    1
   171   147   148    1
   172   147   160    1
   173   148   149    1
   174   148   205    1
   175   148   206    1
   176   149   150    1
   177   149   207    1
   178   149   208    1
   179   150   151    1
   180   150   209    1
   181   150   210    1
   182   151   152    1
   183   151   211    1
   184   151   212    1
   185   152   153    1
   186   152   154    1
   187   152   213    1
   188   153   214    1
   189   153   215    1
   190   153   216    1
   191   154   155    1
   192   154   217    1
   193   154   218    1
   194   155   156    1
   195   155   219    1
   196   155   220    1
   197   156   157    1
   198   156   221    1
   199   156   222    1
   200   157   158    1
   201   157   159    1
   202   157   223    1
   203   158   224    1
   204   158   225    1
   205   158   226    1
   206   159   227    1
   207   159   228    1
   208   159   229    1
   209   160   161    2
   210   160   162    1
   211   162   163    1
   212   162   230    1
   213   162   231    1
   214   163   164    1
   215   164   165    1
   216   164   232    1
   217   164   233    1
   218   165   166    2
   219   165   167    1
   220   167   168    1
   221   167   176    1
   222   168   169    1
   223   168   234    1
   224   168   235    1
   225   169   170    1
   226   169   236    1
   227   169   237    1
   228   170   171    1
   229   170   238    1
   230   170   239    1
   231   171   172    1
   232   171   240    1
   233   171   241    1
   234   172   173    1
   235   172   242    1
   236   172   243    1
   237   173   174    1
   238   173   244    1
   239   173   245    1
   240   174   175    1
   241   174   246    1
   242   174   247    1
   243   175   248    1
   244   175   249    1
   245   175   250    1
   246   176   177    1
   247   176   251    1
   248   176   252    1
   249   177   178    1
   250   177   253    1
   251   177   254    1
   252   178   179    1
   253   178   255    1
   254   178   256    1
   255   179   180    1
   256   179   257    1
   257   179   258    1
   258   180   181    1
   259   180   182    1
   260   180   259    1
   261   181   260    1
   262   181   261    1
   263   181   262    1
   264   182   183    1
   265   182   263    1
   266   182   264    1
   267   183   184    1
   268   183   265    1
   269   183   266    1
   270   184   185    1
   271   184   267    1
   272   184   268    1
   273   185   186    1
   274   185   187    1
   275   185   269    1
   276   186   270    1
   277   186   271    1
   278   186   272    1
   279   187   273    1
   280   187   274    1
   281   187   275    1
   282   276   277    1
   283   276   325    1
   284   276   326    1
   285   276   327    1
   286   277   278    1
   287   277   328    1
   288   277   329    1
   289   278   279    1
   290   278   330    1
   291   278   331    1
   292   279   280    1
   293   279   332    1
   294   279   333    1
   295   280   281    1
   296   280   334    1
   297   280   335    1
   298   281   282    1
   299   281   336    1
   300   281   337    1
   301   282   283    1
   302   282   338    1
   303   282   339    1
   304   283   284    1
   305   283   340    1
   306   283   341    1
   307   284   285    1
   308   284   297    1
   309   285   286    1
   310   285   342    1
   311   285   343    1
   312   286   287    1
   313   286   344    1
   314   286   345    1
   315   287   288    1
   316   287   346    1
   317   287   347    1
   318   288   289    1
   319   288   348    1
   320   288   349    1
   321   289   290    1
   322   289   291    1
   323   289   350    1
   324   290   351    1
   325   290   352    1
   326   290   353    1
   327   291   292    1
   328   291   354    1
   329   291   355    1
   330   292   293    1
   331   292   356    1
   332   292   357    1
   333   293   294    1
   334   293   358    1
   335   293   359    1
   336   294   295    1
   337   294   296    1
   338   294   360    1
   339   295   361    1
   340   295   362    1
   341   295   363    1
   342   296   364    1
   343   296   365    1
   344   296   366    1
   345   297   298    2
   346   297   299    1
   347   299   300    1
   348   299   367    1
   349   299   368    1
   350   300   301    1
   351   301   302    1
   352   301   369    1
   353   301   370    1
   354   302   303    2
   355   302   304    1
   356   304   305    1
   357   304   313    1
   358   305   306    1
   359   305   371    1
   360   305   372    1
   361   306   307    1
   362   306   373    1
   363   306   374    1
   364   307   308    1
   365   307   375    1
   366   307   376    1
   367   308   309    1
   368   308   377    1
   369   308   378    1
   370   309   310    1
   371   309   379    1
   372   309   380    1
   373   310   311    1
   374   310   381    1
   375   310   382    1
   376   311   312    1
   377   311   383    1
   378   311   384    1
   379   312   385    1
   380   312   386    1
   381   312   387    1
   382   313   314    1
   383   313   388    1
   384   313   389    1
   385   314   315    1
   386   314   390    1
   387   314   391    1
   388   315   316    1
   389   315   392    1
   390   315   393    1
   391   316   317    1
   392   316   394    1
   393   316   395    1
   394   317   318    1
   395   317   319    1
   396   317   396    1
   397   318   397    1
   398   318   398    1
   399   318   399    1
   400   319   320    1
   401   319   400    1
   402   319   401    1
   403   320   321    1
   404   320   402    1
   405   320   403    1
   406   321   322    1
   407   321   404    1
   408   321   405    1
   409   322   323    1
   410   322   324    1
   411   322   406    1
   412   323   407    1
   413   323   408    1
   414   323   409    1
   415   324   410    1
   416   324   411    1
   417   324   412    1
@<TRIPOS>SUBSTRUCTURE
     1 RES1      412 GROUP             0 ****  ****    0  
