@<TRIPOS>MOLECULE
tri_tri_mer_capped_0_nunpairedes_0_charge_3 Charge: 3 Unpaired_Electrons: 5 XTB_Unpaired_Electrons: 0 XTB_Charge: 3
   367   372     1     0     0
SMALL
NoCharges
****
Generated from Architector

@<TRIPOS>ATOM
     1 Sm1       0.2492    0.1624    0.3086   Sm        1 RES1   0.0000
     2 C1        4.9066    2.8998    7.9783   C.3       1 RES1   0.0000
     3 C2        4.5861    1.4090    8.0362   C.3       1 RES1   0.0000
     4 C3        3.0812    1.1606    7.9728   C.3       1 RES1   0.0000
     5 C4        2.6971   -0.3211    7.9479   C.3       1 RES1   0.0000
     6 C5        1.2469   -0.4525    7.4942   C.3       1 RES1   0.0000
     7 C6        0.7235   -1.8769    7.3538   C.3       1 RES1   0.0000
     8 C7       -0.6814   -1.9575    6.7422   C.3       1 RES1   0.0000
     9 C8       -0.9155   -1.5212    5.2838   C.3       1 RES1   0.0000
    10 N1       -0.7379   -0.1026    4.9555   N.am      1 RES1   0.0000
    11 C9       -1.2826    0.8417    5.9328   C.3       1 RES1   0.0000
    12 C10      -2.7816    0.6645    6.2088   C.3       1 RES1   0.0000
    13 C11      -3.2347    1.6018    7.3332   C.3       1 RES1   0.0000
    14 C12      -3.4287    3.0613    6.9173   C.3       1 RES1   0.0000
    15 C13      -4.4204    3.2791    5.7695   C.3       1 RES1   0.0000
    16 C14      -5.7655    2.5971    6.0228   C.3       1 RES1   0.0000
    17 C15      -6.8345    2.9366    4.9837   C.3       1 RES1   0.0000
    18 C16      -7.3973    4.3419    5.1389   C.3       1 RES1   0.0000
    19 C17      -0.2817    0.2306    3.7483   C.2       1 RES1   0.0000
    20 O1       -0.1181   -0.5827    2.8109   O.2       1 RES1   0.0000
    21 C18       0.1899    1.6848    3.4870   C.3       1 RES1   0.0000
    22 C19      -0.9696    2.5615    3.0250   C.3       1 RES1   0.0000
    23 O2        1.1300    1.6389    2.4031   O.3       1 RES1   0.0000
    24 C20       2.5243    1.8150    2.7292   C.3       1 RES1   0.0000
    25 C21       2.8726    3.3093    2.5740   C.3       1 RES1   0.0000
    26 C22       2.8765    3.7651    1.1175   C.3       1 RES1   0.0000
    27 C23       3.2863    0.8751    1.7693   C.2       1 RES1   0.0000
    28 O3        2.5980    0.1875    0.9916   O.2       1 RES1   0.0000
    29 N2        4.6204    0.8503    1.7397   N.am      1 RES1   0.0000
    30 C24       5.5060    1.4987    2.7153   C.3       1 RES1   0.0000
    31 C25       6.8710    0.8342    3.0370   C.3       1 RES1   0.0000
    32 C26       6.9391   -0.2705    4.1269   C.3       1 RES1   0.0000
    33 C27       7.4456   -1.6296    3.6144   C.3       1 RES1   0.0000
    34 C28       7.0768   -2.8400    4.4796   C.3       1 RES1   0.0000
    35 C29       7.5558   -2.8425    5.9272   C.3       1 RES1   0.0000
    36 C30       6.9673   -4.0399    6.6896   C.3       1 RES1   0.0000
    37 C31       5.5535   -3.8047    7.2185   C.3       1 RES1   0.0000
    38 C32       5.2332    0.4371    0.4737   C.3       1 RES1   0.0000
    39 C33       5.7108   -1.0132    0.4341   C.3       1 RES1   0.0000
    40 C34       5.7451   -1.6618   -0.9520   C.3       1 RES1   0.0000
    41 C35       6.8562   -1.1911   -1.8947   C.3       1 RES1   0.0000
    42 C36       6.4473   -0.0046   -2.7566   C.3       1 RES1   0.0000
    43 C37       7.4845    0.3660   -3.8189   C.3       1 RES1   0.0000
    44 C38       8.8356    0.8335   -3.2733   C.3       1 RES1   0.0000
    45 C39       8.7399    2.0722   -2.3897   C.3       1 RES1   0.0000
    46 H1        5.9802    3.0618    8.0198   H         1 RES1   0.0000
    47 H2        4.5257    3.3389    7.0563   H         1 RES1   0.0000
    48 H3        4.4548    3.4278    8.8144   H         1 RES1   0.0000
    49 H4        5.0649    0.9012    7.1936   H         1 RES1   0.0000
    50 H5        4.9964    0.9857    8.9539   H         1 RES1   0.0000
    51 H6        2.6027    1.6559    8.8197   H         1 RES1   0.0000
    52 H7        2.6928    1.6351    7.0627   H         1 RES1   0.0000
    53 H8        3.3471   -0.8572    7.2552   H         1 RES1   0.0000
    54 H9        2.8285   -0.7622    8.9336   H         1 RES1   0.0000
    55 H10       0.6294    0.0897    8.2120   H         1 RES1   0.0000
    56 H11       1.1646    0.0383    6.5235   H         1 RES1   0.0000
    57 H12       1.4332   -2.4694    6.7785   H         1 RES1   0.0000
    58 H13       0.6619   -2.3389    8.3405   H         1 RES1   0.0000
    59 H14      -0.9772   -3.0091    6.7588   H         1 RES1   0.0000
    60 H15      -1.3734   -1.4346    7.4005   H         1 RES1   0.0000
    61 H16      -0.2653   -2.0866    4.6176   H         1 RES1   0.0000
    62 H17      -1.9449   -1.7800    5.0339   H         1 RES1   0.0000
    63 H18      -0.7740    0.6964    6.8841   H         1 RES1   0.0000
    64 H19      -1.1083    1.8643    5.6088   H         1 RES1   0.0000
    65 H20      -3.3667    0.8642    5.3148   H         1 RES1   0.0000
    66 H21      -2.9852   -0.3582    6.5249   H         1 RES1   0.0000
    67 H22      -4.1728    1.2279    7.7413   H         1 RES1   0.0000
    68 H23      -2.4978    1.5690    8.1364   H         1 RES1   0.0000
    69 H24      -3.7968    3.6044    7.7889   H         1 RES1   0.0000
    70 H25      -2.4669    3.5039    6.6482   H         1 RES1   0.0000
    71 H26      -4.5723    4.3553    5.6633   H         1 RES1   0.0000
    72 H27      -4.0040    2.9194    4.8208   H         1 RES1   0.0000
    73 H28      -5.6238    1.5142    6.0261   H         1 RES1   0.0000
    74 H29      -6.1241    2.8883    7.0101   H         1 RES1   0.0000
    75 H30      -6.4170    2.8162    3.9802   H         1 RES1   0.0000
    76 H31      -7.6537    2.2219    5.0894   H         1 RES1   0.0000
    77 H32      -6.6316    5.0957    4.9782   H         1 RES1   0.0000
    78 H33      -8.1968    4.5010    4.4209   H         1 RES1   0.0000
    79 H34      -7.8098    4.4758    6.1346   H         1 RES1   0.0000
    80 H35       0.6822    2.1035    4.3726   H         1 RES1   0.0000
    81 H36      -0.6702    3.6051    2.9679   H         1 RES1   0.0000
    82 H37      -1.8202    2.4705    3.6907   H         1 RES1   0.0000
    83 H38      -1.2650    2.2125    2.0329   H         1 RES1   0.0000
    84 H39       2.7138    1.5141    3.7647   H         1 RES1   0.0000
    85 H40       2.1229    3.8686    3.1390   H         1 RES1   0.0000
    86 H41       3.8334    3.5308    3.0352   H         1 RES1   0.0000
    87 H42       2.1099    3.2341    0.5531   H         1 RES1   0.0000
    88 H43       2.6882    4.8320    1.0579   H         1 RES1   0.0000
    89 H44       3.8473    3.5767    0.6668   H         1 RES1   0.0000
    90 H45       5.7439    2.4895    2.3067   H         1 RES1   0.0000
    91 H46       4.9750    1.6390    3.6586   H         1 RES1   0.0000
    92 H47       7.3451    0.4834    2.1230   H         1 RES1   0.0000
    93 H48       7.4805    1.6674    3.3903   H         1 RES1   0.0000
    94 H49       7.6266    0.0665    4.9039   H         1 RES1   0.0000
    95 H50       5.9732   -0.3942    4.6162   H         1 RES1   0.0000
    96 H51       7.0139   -1.8263    2.6336   H         1 RES1   0.0000
    97 H52       8.5294   -1.5794    3.4984   H         1 RES1   0.0000
    98 H53       5.9957   -2.9581    4.4771   H         1 RES1   0.0000
    99 H54       7.4964   -3.7230    3.9951   H         1 RES1   0.0000
   100 H55       8.6433   -2.9039    5.9442   H         1 RES1   0.0000
   101 H56       7.2671   -1.9187    6.4252   H         1 RES1   0.0000
   102 H57       6.9595   -4.9125    6.0315   H         1 RES1   0.0000
   103 H58       7.6104   -4.2813    7.5366   H         1 RES1   0.0000
   104 H59       4.8420   -3.6351    6.4122   H         1 RES1   0.0000
   105 H60       5.2166   -4.6773    7.7734   H         1 RES1   0.0000
   106 H61       5.5312   -2.9454    7.8850   H         1 RES1   0.0000
   107 H62       4.4730    0.5728   -0.2999   H         1 RES1   0.0000
   108 H63       6.0596    1.1260    0.2993   H         1 RES1   0.0000
   109 H64       6.7066   -1.0897    0.8656   H         1 RES1   0.0000
   110 H65       5.0253   -1.5909    1.0518   H         1 RES1   0.0000
   111 H66       5.8876   -2.7289   -0.7750   H         1 RES1   0.0000
   112 H67       4.7752   -1.5241   -1.4371   H         1 RES1   0.0000
   113 H68       7.7424   -0.9366   -1.3175   H         1 RES1   0.0000
   114 H69       7.1215   -2.0167   -2.5550   H         1 RES1   0.0000
   115 H70       5.5134   -0.2498   -3.2703   H         1 RES1   0.0000
   116 H71       6.2534    0.8528   -2.1183   H         1 RES1   0.0000
   117 H72       7.6540   -0.4976   -4.4651   H         1 RES1   0.0000
   118 H73       7.0793    1.1648   -4.4478   H         1 RES1   0.0000
   119 H74       9.3140    0.0250   -2.7192   H         1 RES1   0.0000
   120 H75       9.4783    1.0617   -4.1257   H         1 RES1   0.0000
   121 H76       8.2303    1.8500   -1.4549   H         1 RES1   0.0000
   122 H77       9.7335    2.4387   -2.1493   H         1 RES1   0.0000
   123 H78       8.2023    2.8662   -2.9019   H         1 RES1   0.0000
   124 C40       2.4238   -1.1496    4.2995   C.3       1 RES1   0.0000
   125 C41       3.7290   -1.8109    3.9252   C.3       1 RES1   0.0000
   126 C42       3.5746   -2.7923    2.7730   C.3       1 RES1   0.0000
   127 C43       2.6906   -4.0069    3.0538   C.3       1 RES1   0.0000
   128 C44       3.1653   -5.2161    2.2439   C.3       1 RES1   0.0000
   129 C45       3.3760   -4.9589    0.7517   C.3       1 RES1   0.0000
   130 C46       2.1677   -4.3752    0.0173   C.3       1 RES1   0.0000
   131 C47       2.6498   -3.9102   -1.3517   C.3       1 RES1   0.0000
   132 N3        1.6371   -3.3974   -2.2801   N.am      1 RES1   0.0000
   133 C48       1.5453   -4.1282   -3.5431   C.3       1 RES1   0.0000
   134 C49       1.0481   -5.5827   -3.3925   C.3       1 RES1   0.0000
   135 C50      -0.4656   -5.8194   -3.4946   C.3       1 RES1   0.0000
   136 C51      -1.1890   -5.8351   -2.1462   C.3       1 RES1   0.0000
   137 C52      -2.7060   -5.7083   -2.3067   C.3       1 RES1   0.0000
   138 C53      -3.4392   -6.0283   -1.0063   C.3       1 RES1   0.0000
   139 C54      -4.9632   -5.9573   -1.1033   C.3       1 RES1   0.0000
   140 C55      -5.5173   -4.5500   -1.2968   C.3       1 RES1   0.0000
   141 C56       1.0694   -2.2257   -2.0205   C.2       1 RES1   0.0000
   142 O4        1.1486   -1.6813   -0.8958   O.2       1 RES1   0.0000
   143 C57       0.3117   -1.4729   -3.1304   C.3       1 RES1   0.0000
   144 C58      -1.0534   -2.0988   -3.4384   C.3       1 RES1   0.0000
   145 O5        0.1165   -0.1283   -2.6855   O.3       1 RES1   0.0000
   146 C59       0.7793    0.9221   -3.3923   C.3       1 RES1   0.0000
   147 C60      -0.2080    2.1011   -3.5161   C.3       1 RES1   0.0000
   148 C61      -1.1807    2.0814   -4.6939   C.3       1 RES1   0.0000
   149 C62       1.9114    1.5090   -2.5376   C.2       1 RES1   0.0000
   150 O6        1.8073    1.3993   -1.2954   O.2       1 RES1   0.0000
   151 N4        2.8664    2.2226   -3.1369   N.am      1 RES1   0.0000
   152 C63       3.7156    3.0681   -2.2828   C.3       1 RES1   0.0000
   153 C64       5.1738    3.2765   -2.7171   C.3       1 RES1   0.0000
   154 C65       5.5253    4.6352   -3.3323   C.3       1 RES1   0.0000
   155 C66       5.4426    5.7994   -2.3475   C.3       1 RES1   0.0000
   156 C67       5.7322    7.1541   -3.0027   C.3       1 RES1   0.0000
   157 C68       4.5956    7.6451   -3.9017   C.3       1 RES1   0.0000
   158 C69       4.9502    8.8924   -4.7155   C.3       1 RES1   0.0000
   159 C70       5.9351    8.6031   -5.8429   C.3       1 RES1   0.0000
   160 C71       2.8477    2.5435   -4.5639   C.3       1 RES1   0.0000
   161 C72       3.4824    1.5506   -5.5432   C.3       1 RES1   0.0000
   162 C73       3.4824    2.1410   -6.9658   C.3       1 RES1   0.0000
   163 C74       2.1177    2.5487   -7.5328   C.3       1 RES1   0.0000
   164 C75       1.0574    1.4503   -7.5094   C.3       1 RES1   0.0000
   165 C76       1.4209    0.2434   -8.3714   C.3       1 RES1   0.0000
   166 C77       0.3072   -0.8052   -8.4361   C.3       1 RES1   0.0000
   167 C78       0.0462   -1.4922   -7.0981   C.3       1 RES1   0.0000
   168 H79       2.5827   -0.3752    5.0441   H         1 RES1   0.0000
   169 H80       1.9719   -0.7177    3.4142   H         1 RES1   0.0000
   170 H81       1.7400   -1.8815    4.7065   H         1 RES1   0.0000
   171 H82       4.4337   -1.0428    3.6130   H         1 RES1   0.0000
   172 H83       4.1457   -2.3149    4.7963   H         1 RES1   0.0000
   173 H84       3.1715   -2.2403    1.9178   H         1 RES1   0.0000
   174 H85       4.5735   -3.1557    2.5259   H         1 RES1   0.0000
   175 H86       2.7342   -4.2693    4.1128   H         1 RES1   0.0000
   176 H87       1.6462   -3.7819    2.8261   H         1 RES1   0.0000
   177 H88       4.1162   -5.5540    2.6618   H         1 RES1   0.0000
   178 H89       2.4511   -6.0255    2.3644   H         1 RES1   0.0000
   179 H90       4.2209   -4.2804    0.6253   H         1 RES1   0.0000
   180 H91       3.6410   -5.9081    0.2840   H         1 RES1   0.0000
   181 H92       1.3858   -5.1271   -0.0808   H         1 RES1   0.0000
   182 H93       1.7767   -3.5161    0.5630   H         1 RES1   0.0000
   183 H94       3.3708   -3.1093   -1.1861   H         1 RES1   0.0000
   184 H95       3.1655   -4.7293   -1.8511   H         1 RES1   0.0000
   185 H96       0.9147   -3.5984   -4.2558   H         1 RES1   0.0000
   186 H97       2.5565   -4.1607   -3.9681   H         1 RES1   0.0000
   187 H98       1.5313   -6.1458   -4.1889   H         1 RES1   0.0000
   188 H99       1.4039   -5.9951   -2.4502   H         1 RES1   0.0000
   189 H100     -0.9293   -5.0898   -4.1609   H         1 RES1   0.0000
   190 H101     -0.6194   -6.7908   -3.9630   H         1 RES1   0.0000
   191 H102     -0.9721   -6.7788   -1.6447   H         1 RES1   0.0000
   192 H103     -0.8118   -5.0341   -1.5055   H         1 RES1   0.0000
   193 H104     -2.9534   -4.6964   -2.6358   H         1 RES1   0.0000
   194 H105     -3.0406   -6.4022   -3.0784   H         1 RES1   0.0000
   195 H106     -3.1701   -7.0403   -0.7030   H         1 RES1   0.0000
   196 H107     -3.0844   -5.3527   -0.2248   H         1 RES1   0.0000
   197 H108     -5.2999   -6.5835   -1.9276   H         1 RES1   0.0000
   198 H109     -5.3905   -6.3729   -0.1890   H         1 RES1   0.0000
   199 H110     -5.1628   -4.1057   -2.2251   H         1 RES1   0.0000
   200 H111     -6.6033   -4.5842   -1.3355   H         1 RES1   0.0000
   201 H112     -5.2398   -3.9031   -0.4632   H         1 RES1   0.0000
   202 H113      0.9263   -1.4676   -4.0382   H         1 RES1   0.0000
   203 H114     -0.9889   -3.1789   -3.4488   H         1 RES1   0.0000
   204 H115     -1.7767   -1.8033   -2.6851   H         1 RES1   0.0000
   205 H116     -1.3980   -1.7682   -4.4140   H         1 RES1   0.0000
   206 H117      1.1427    0.5594   -4.3545   H         1 RES1   0.0000
   207 H118     -0.7395    2.0843   -2.5677   H         1 RES1   0.0000
   208 H119      0.3612    3.0272   -3.5343   H         1 RES1   0.0000
   209 H120     -2.1905    2.2385   -4.3343   H         1 RES1   0.0000
   210 H121     -0.9459    2.8670   -5.4037   H         1 RES1   0.0000
   211 H122     -1.1727    1.1339   -5.2125   H         1 RES1   0.0000
   212 H123      3.2132    4.0375   -2.2057   H         1 RES1   0.0000
   213 H124      3.6928    2.5874   -1.3051   H         1 RES1   0.0000
   214 H125      5.8026    3.1613   -1.8313   H         1 RES1   0.0000
   215 H126      5.4470    2.4906   -3.4160   H         1 RES1   0.0000
   216 H127      6.5539    4.5699   -3.6891   H         1 RES1   0.0000
   217 H128      4.9060    4.8338   -4.2041   H         1 RES1   0.0000
   218 H129      4.4528    5.8404   -1.8857   H         1 RES1   0.0000
   219 H130      6.1764    5.6272   -1.5563   H         1 RES1   0.0000
   220 H131      5.8884    7.8913   -2.2136   H         1 RES1   0.0000
   221 H132      6.6565    7.0863   -3.5771   H         1 RES1   0.0000
   222 H133      4.3094    6.8577   -4.6023   H         1 RES1   0.0000
   223 H134      3.7258    7.8683   -3.2784   H         1 RES1   0.0000
   224 H135      4.0332    9.2944   -5.1539   H         1 RES1   0.0000
   225 H136      5.3628    9.6576   -4.0559   H         1 RES1   0.0000
   226 H137      5.5385    7.8409   -6.5122   H         1 RES1   0.0000
   227 H138      6.1176    9.5040   -6.4224   H         1 RES1   0.0000
   228 H139      6.8898    8.2573   -5.4555   H         1 RES1   0.0000
   229 H140      1.8200    2.6895   -4.8823   H         1 RES1   0.0000
   230 H141      3.3686    3.4929   -4.6786   H         1 RES1   0.0000
   231 H142      4.5146    1.3458   -5.2570   H         1 RES1   0.0000
   232 H143      2.9444    0.6003   -5.5455   H         1 RES1   0.0000
   233 H144      4.1323    3.0183   -6.9753   H         1 RES1   0.0000
   234 H145      3.9282    1.4078   -7.6378   H         1 RES1   0.0000
   235 H146      1.7368    3.4172   -6.9930   H         1 RES1   0.0000
   236 H147      2.2716    2.8595   -8.5666   H         1 RES1   0.0000
   237 H148      0.8884    1.1312   -6.4804   H         1 RES1   0.0000
   238 H149      0.1194    1.8701   -7.8779   H         1 RES1   0.0000
   239 H150      1.6287    0.5932   -9.3846   H         1 RES1   0.0000
   240 H151      2.3278   -0.2307   -7.9879   H         1 RES1   0.0000
   241 H152     -0.6157   -0.3387   -8.7875   H         1 RES1   0.0000
   242 H153      0.5928   -1.5637   -9.1668   H         1 RES1   0.0000
   243 H154     -0.3574   -0.7868   -6.3736   H         1 RES1   0.0000
   244 H155     -0.6745   -2.2955   -7.2258   H         1 RES1   0.0000
   245 H156      0.9703   -1.9145   -6.7051   H         1 RES1   0.0000
   246 C79      -8.4165    0.3452   -3.2571   C.3       1 RES1   0.0000
   247 C80      -8.1579    0.9179   -1.8691   C.3       1 RES1   0.0000
   248 C81      -7.8152   -0.1776   -0.8573   C.3       1 RES1   0.0000
   249 C82      -7.2898    0.3929    0.4599   C.3       1 RES1   0.0000
   250 C83      -6.6832   -0.6645    1.3829   C.3       1 RES1   0.0000
   251 C84      -6.3656   -0.0602    2.7478   C.3       1 RES1   0.0000
   252 C85      -5.7298   -1.0321    3.7379   C.3       1 RES1   0.0000
   253 C86      -4.2085   -1.1427    3.6283   C.3       1 RES1   0.0000
   254 N5       -3.7222   -1.8523    2.4535   N.am      1 RES1   0.0000
   255 C87      -3.9758   -3.2862    2.4385   C.3       1 RES1   0.0000
   256 C88      -3.0458   -4.0359    3.4096   C.3       1 RES1   0.0000
   257 C89      -3.5295   -5.4540    3.7218   C.3       1 RES1   0.0000
   258 C90      -3.3259   -6.4862    2.6144   C.3       1 RES1   0.0000
   259 C91      -1.8708   -6.7914    2.2470   C.3       1 RES1   0.0000
   260 C92      -1.0993   -7.5206    3.3457   C.3       1 RES1   0.0000
   261 C93       0.3825   -7.6603    3.0037   C.3       1 RES1   0.0000
   262 C94       0.6735   -8.5708    1.8143   C.3       1 RES1   0.0000
   263 C95      -2.9370   -1.2101    1.5876   C.2       1 RES1   0.0000
   264 O7       -2.4149   -0.1046    1.7917   O.2       1 RES1   0.0000
   265 C96      -2.7002   -1.8039    0.1863   C.3       1 RES1   0.0000
   266 C97      -1.5266   -2.7730    0.2012   C.3       1 RES1   0.0000
   267 O8       -2.3336   -0.7172   -0.6598   O.3       1 RES1   0.0000
   268 C98      -3.3651    0.2786   -0.8652   C.3       1 RES1   0.0000
   269 C99      -4.2797   -0.1727   -2.0221   C.3       1 RES1   0.0000
   270 C100     -3.7628    0.0210   -3.4449   C.3       1 RES1   0.0000
   271 C101     -2.5903    1.6119   -0.8879   C.2       1 RES1   0.0000
   272 O9       -1.4019    1.5650   -0.4918   O.2       1 RES1   0.0000
   273 N6       -3.1526    2.7592   -1.2368   N.am      1 RES1   0.0000
   274 C102     -4.5204    2.8634   -1.7590   C.3       1 RES1   0.0000
   275 C103     -5.2516    4.2151   -1.7037   C.3       1 RES1   0.0000
   276 C104     -5.8166    4.6446   -0.3474   C.3       1 RES1   0.0000
   277 C105     -4.7802    5.1017    0.6765   C.3       1 RES1   0.0000
   278 C106     -5.4224    5.7426    1.9100   C.3       1 RES1   0.0000
   279 C107     -5.8698    7.1800    1.6393   C.3       1 RES1   0.0000
   280 C108     -6.5651    7.8302    2.8377   C.3       1 RES1   0.0000
   281 C109     -8.0318    7.4302    2.9709   C.3       1 RES1   0.0000
   282 C110     -2.3612    3.9808   -1.4092   C.3       1 RES1   0.0000
   283 C111     -1.1466    4.2140   -0.5176   C.3       1 RES1   0.0000
   284 C112     -0.7912    5.7036   -0.4830   C.3       1 RES1   0.0000
   285 C113     -0.6703    6.4040   -1.8341   C.3       1 RES1   0.0000
   286 C114      0.3880    5.8091   -2.7616   C.3       1 RES1   0.0000
   287 C115      0.8623    6.8247   -3.8034   C.3       1 RES1   0.0000
   288 C116     -0.2246    7.2681   -4.7860   C.3       1 RES1   0.0000
   289 C117     -0.5671    6.2214   -5.8408   C.3       1 RES1   0.0000
   290 H157     -8.6825    1.1379   -3.9505   H         1 RES1   0.0000
   291 H158     -7.5307   -0.1618   -3.6375   H         1 RES1   0.0000
   292 H159     -9.2315   -0.3711   -3.2268   H         1 RES1   0.0000
   293 H160     -7.3350    1.6378   -1.9285   H         1 RES1   0.0000
   294 H161     -9.0376    1.4650   -1.5268   H         1 RES1   0.0000
   295 H162     -8.7075   -0.7739   -0.6650   H         1 RES1   0.0000
   296 H163     -7.0682   -0.8494   -1.2881   H         1 RES1   0.0000
   297 H164     -6.5282    1.1545    0.2540   H         1 RES1   0.0000
   298 H165     -8.1076    0.8910    0.9822   H         1 RES1   0.0000
   299 H166     -7.3878   -1.4889    1.4984   H         1 RES1   0.0000
   300 H167     -5.7728   -1.0713    0.9326   H         1 RES1   0.0000
   301 H168     -5.7061    0.8017    2.6173   H         1 RES1   0.0000
   302 H169     -7.2926    0.3085    3.1832   H         1 RES1   0.0000
   303 H170     -5.9232   -0.6737    4.7482   H         1 RES1   0.0000
   304 H171     -6.1961   -2.0139    3.6642   H         1 RES1   0.0000
   305 H172     -3.7751   -0.1421    3.5925   H         1 RES1   0.0000
   306 H173     -3.8424   -1.6551    4.5183   H         1 RES1   0.0000
   307 H174     -5.0075   -3.4550    2.7555   H         1 RES1   0.0000
   308 H175     -3.8628   -3.6820    1.4323   H         1 RES1   0.0000
   309 H176     -2.0261   -4.0605    3.0241   H         1 RES1   0.0000
   310 H177     -3.0161   -3.4954    4.3555   H         1 RES1   0.0000
   311 H178     -3.0201   -5.7993    4.6197   H         1 RES1   0.0000
   312 H179     -4.5938   -5.4112    3.9523   H         1 RES1   0.0000
   313 H180     -3.7914   -7.4160    2.9437   H         1 RES1   0.0000
   314 H181     -3.8556   -6.1655    1.7172   H         1 RES1   0.0000
   315 H182     -1.8816   -7.4208    1.3556   H         1 RES1   0.0000
   316 H183     -1.3345   -5.8717    1.9860   H         1 RES1   0.0000
   317 H184     -1.1750   -6.9601    4.2789   H         1 RES1   0.0000
   318 H185     -1.5335   -8.5069    3.5072   H         1 RES1   0.0000
   319 H186      0.7671   -6.6591    2.7940   H         1 RES1   0.0000
   320 H187      0.9167   -8.0437    3.8748   H         1 RES1   0.0000
   321 H188      0.2640   -8.1660    0.8899   H         1 RES1   0.0000
   322 H189      1.7492   -8.6827    1.6855   H         1 RES1   0.0000
   323 H190      0.2460   -9.5572    1.9765   H         1 RES1   0.0000
   324 H191     -3.6003   -2.2872   -0.2143   H         1 RES1   0.0000
   325 H192     -1.2906   -3.0857   -0.8139   H         1 RES1   0.0000
   326 H193     -0.6530   -2.2692    0.6517   H         1 RES1   0.0000
   327 H194     -1.7586   -3.6531    0.7923   H         1 RES1   0.0000
   328 H195     -3.9867    0.3396    0.0381   H         1 RES1   0.0000
   329 H196     -4.4419   -1.2408   -1.8597   H         1 RES1   0.0000
   330 H197     -5.2607    0.2818   -1.9252   H         1 RES1   0.0000
   331 H198     -4.0901   -0.8082   -4.0652   H         1 RES1   0.0000
   332 H199     -4.1630    0.9210   -3.8996   H         1 RES1   0.0000
   333 H200     -2.6822    0.0783   -3.4579   H         1 RES1   0.0000
   334 H201     -4.4887    2.5868   -2.8171   H         1 RES1   0.0000
   335 H202     -5.1382    2.1451   -1.2243   H         1 RES1   0.0000
   336 H203     -4.6542    5.0182   -2.1339   H         1 RES1   0.0000
   337 H204     -6.1018    4.0921   -2.3796   H         1 RES1   0.0000
   338 H205     -6.4950    5.4741   -0.5455   H         1 RES1   0.0000
   339 H206     -6.4166    3.8324    0.0696   H         1 RES1   0.0000
   340 H207     -4.1637    4.2487    0.9744   H         1 RES1   0.0000
   341 H208     -4.1338    5.8553    0.2210   H         1 RES1   0.0000
   342 H209     -6.2655    5.1374    2.2448   H         1 RES1   0.0000
   343 H210     -4.6865    5.7637    2.7169   H         1 RES1   0.0000
   344 H211     -4.9883    7.7711    1.3808   H         1 RES1   0.0000
   345 H212     -6.5488    7.2105    0.7870   H         1 RES1   0.0000
   346 H213     -6.0270    7.5705    3.7522   H         1 RES1   0.0000
   347 H214     -6.5180    8.9152    2.7316   H         1 RES1   0.0000
   348 H215     -8.4400    7.8052    3.9076   H         1 RES1   0.0000
   349 H216     -8.1496    6.3486    2.9570   H         1 RES1   0.0000
   350 H217     -8.6194    7.8501    2.1558   H         1 RES1   0.0000
   351 H218     -2.0602    4.0258   -2.4594   H         1 RES1   0.0000
   352 H219     -3.0476    4.7938   -1.2015   H         1 RES1   0.0000
   353 H220     -1.3889    3.9162    0.5011   H         1 RES1   0.0000
   354 H221     -0.2855    3.6390   -0.8544   H         1 RES1   0.0000
   355 H222     -1.5531    6.2170    0.0980   H         1 RES1   0.0000
   356 H223      0.1526    5.8070    0.0493   H         1 RES1   0.0000
   357 H224     -1.6350    6.4022   -2.3386   H         1 RES1   0.0000
   358 H225     -0.4069    7.4441   -1.6380   H         1 RES1   0.0000
   359 H226      1.2491    5.4833   -2.1698   H         1 RES1   0.0000
   360 H227     -0.0172    4.9360   -3.2739   H         1 RES1   0.0000
   361 H228      1.2324    7.7067   -3.2773   H         1 RES1   0.0000
   362 H229      1.6999    6.4106   -4.3712   H         1 RES1   0.0000
   363 H230     -1.1286    7.5387   -4.2384   H         1 RES1   0.0000
   364 H231      0.1259    8.1667   -5.2946   H         1 RES1   0.0000
   365 H232     -1.0373    5.3462   -5.3956   H         1 RES1   0.0000
   366 H233     -1.2601    6.6442   -6.5629   H         1 RES1   0.0000
   367 H234      0.3257    5.9064   -6.3771   H         1 RES1   0.0000
@<TRIPOS>BOND
     1     1    20    1
     2     1    23    1
     3     1    28    1
     4     1   142    1
     5     1   145    1
     6     1   150    1
     7     1   264    1
     8     1   267    1
     9     1   272    1
    10     2     3    1
    11     2    46    1
    12     2    47    1
    13     2    48    1
    14     3     4    1
    15     3    49    1
    16     3    50    1
    17     4     5    1
    18     4    51    1
    19     4    52    1
    20     5     6    1
    21     5    53    1
    22     5    54    1
    23     6     7    1
    24     6    55    1
    25     6    56    1
    26     7     8    1
    27     7    57    1
    28     7    58    1
    29     8     9    1
    30     8    59    1
    31     8    60    1
    32     9    10    1
    33     9    61    1
    34     9    62    1
    35    10    11    1
    36    10    19    1
    37    11    12    1
    38    11    63    1
    39    11    64    1
    40    12    13    1
    41    12    65    1
    42    12    66    1
    43    13    14    1
    44    13    67    1
    45    13    68    1
    46    14    15    1
    47    14    69    1
    48    14    70    1
    49    15    16    1
    50    15    71    1
    51    15    72    1
    52    16    17    1
    53    16    73    1
    54    16    74    1
    55    17    18    1
    56    17    75    1
    57    17    76    1
    58    18    77    1
    59    18    78    1
    60    18    79    1
    61    19    20    2
    62    19    21    1
    63    21    22    1
    64    21    23    1
    65    21    80    1
    66    22    81    1
    67    22    82    1
    68    22    83    1
    69    23    24    1
    70    24    25    1
    71    24    27    1
    72    24    84    1
    73    25    26    1
    74    25    85    1
    75    25    86    1
    76    26    87    1
    77    26    88    1
    78    26    89    1
    79    27    28    2
    80    27    29    1
    81    29    30    1
    82    29    38    1
    83    30    31    1
    84    30    90    1
    85    30    91    1
    86    31    32    1
    87    31    92    1
    88    31    93    1
    89    32    33    1
    90    32    94    1
    91    32    95    1
    92    33    34    1
    93    33    96    1
    94    33    97    1
    95    34    35    1
    96    34    98    1
    97    34    99    1
    98    35    36    1
    99    35   100    1
   100    35   101    1
   101    36    37    1
   102    36   102    1
   103    36   103    1
   104    37   104    1
   105    37   105    1
   106    37   106    1
   107    38    39    1
   108    38   107    1
   109    38   108    1
   110    39    40    1
   111    39   109    1
   112    39   110    1
   113    40    41    1
   114    40   111    1
   115    40   112    1
   116    41    42    1
   117    41   113    1
   118    41   114    1
   119    42    43    1
   120    42   115    1
   121    42   116    1
   122    43    44    1
   123    43   117    1
   124    43   118    1
   125    44    45    1
   126    44   119    1
   127    44   120    1
   128    45   121    1
   129    45   122    1
   130    45   123    1
   131   124   125    1
   132   124   168    1
   133   124   169    1
   134   124   170    1
   135   125   126    1
   136   125   171    1
   137   125   172    1
   138   126   127    1
   139   126   173    1
   140   126   174    1
   141   127   128    1
   142   127   175    1
   143   127   176    1
   144   128   129    1
   145   128   177    1
   146   128   178    1
   147   129   130    1
   148   129   179    1
   149   129   180    1
   150   130   131    1
   151   130   181    1
   152   130   182    1
   153   131   132    1
   154   131   183    1
   155   131   184    1
   156   132   133    1
   157   132   141    1
   158   133   134    1
   159   133   185    1
   160   133   186    1
   161   134   135    1
   162   134   187    1
   163   134   188    1
   164   135   136    1
   165   135   189    1
   166   135   190    1
   167   136   137    1
   168   136   191    1
   169   136   192    1
   170   137   138    1
   171   137   193    1
   172   137   194    1
   173   138   139    1
   174   138   195    1
   175   138   196    1
   176   139   140    1
   177   139   197    1
   178   139   198    1
   179   140   199    1
   180   140   200    1
   181   140   201    1
   182   141   142    2
   183   141   143    1
   184   143   144    1
   185   143   145    1
   186   143   202    1
   187   144   203    1
   188   144   204    1
   189   144   205    1
   190   145   146    1
   191   146   147    1
   192   146   149    1
   193   146   206    1
   194   147   148    1
   195   147   207    1
   196   147   208    1
   197   148   209    1
   198   148   210    1
   199   148   211    1
   200   149   150    2
   201   149   151    1
   202   151   152    1
   203   151   160    1
   204   152   153    1
   205   152   212    1
   206   152   213    1
   207   153   154    1
   208   153   214    1
   209   153   215    1
   210   154   155    1
   211   154   216    1
   212   154   217    1
   213   155   156    1
   214   155   218    1
   215   155   219    1
   216   156   157    1
   217   156   220    1
   218   156   221    1
   219   157   158    1
   220   157   222    1
   221   157   223    1
   222   158   159    1
   223   158   224    1
   224   158   225    1
   225   159   226    1
   226   159   227    1
   227   159   228    1
   228   160   161    1
   229   160   229    1
   230   160   230    1
   231   161   162    1
   232   161   231    1
   233   161   232    1
   234   162   163    1
   235   162   233    1
   236   162   234    1
   237   163   164    1
   238   163   235    1
   239   163   236    1
   240   164   165    1
   241   164   237    1
   242   164   238    1
   243   165   166    1
   244   165   239    1
   245   165   240    1
   246   166   167    1
   247   166   241    1
   248   166   242    1
   249   167   243    1
   250   167   244    1
   251   167   245    1
   252   246   247    1
   253   246   290    1
   254   246   291    1
   255   246   292    1
   256   247   248    1
   257   247   293    1
   258   247   294    1
   259   248   249    1
   260   248   295    1
   261   248   296    1
   262   249   250    1
   263   249   297    1
   264   249   298    1
   265   250   251    1
   266   250   299    1
   267   250   300    1
   268   251   252    1
   269   251   301    1
   270   251   302    1
   271   252   253    1
   272   252   303    1
   273   252   304    1
   274   253   254    1
   275   253   305    1
   276   253   306    1
   277   254   255    1
   278   254   263    1
   279   255   256    1
   280   255   307    1
   281   255   308    1
   282   256   257    1
   283   256   309    1
   284   256   310    1
   285   257   258    1
   286   257   311    1
   287   257   312    1
   288   258   259    1
   289   258   313    1
   290   258   314    1
   291   259   260    1
   292   259   315    1
   293   259   316    1
   294   260   261    1
   295   260   317    1
   296   260   318    1
   297   261   262    1
   298   261   319    1
   299   261   320    1
   300   262   321    1
   301   262   322    1
   302   262   323    1
   303   263   264    2
   304   263   265    1
   305   265   266    1
   306   265   267    1
   307   265   324    1
   308   266   325    1
   309   266   326    1
   310   266   327    1
   311   267   268    1
   312   268   269    1
   313   268   271    1
   314   268   328    1
   315   269   270    1
   316   269   329    1
   317   269   330    1
   318   270   331    1
   319   270   332    1
   320   270   333    1
   321   271   272    2
   322   271   273    1
   323   273   274    1
   324   273   282    1
   325   274   275    1
   326   274   334    1
   327   274   335    1
   328   275   276    1
   329   275   336    1
   330   275   337    1
   331   276   277    1
   332   276   338    1
   333   276   339    1
   334   277   278    1
   335   277   340    1
   336   277   341    1
   337   278   279    1
   338   278   342    1
   339   278   343    1
   340   279   280    1
   341   279   344    1
   342   279   345    1
   343   280   281    1
   344   280   346    1
   345   280   347    1
   346   281   348    1
   347   281   349    1
   348   281   350    1
   349   282   283    1
   350   282   351    1
   351   282   352    1
   352   283   284    1
   353   283   353    1
   354   283   354    1
   355   284   285    1
   356   284   355    1
   357   284   356    1
   358   285   286    1
   359   285   357    1
   360   285   358    1
   361   286   287    1
   362   286   359    1
   363   286   360    1
   364   287   288    1
   365   287   361    1
   366   287   362    1
   367   288   289    1
   368   288   363    1
   369   288   364    1
   370   289   365    1
   371   289   366    1
   372   289   367    1
@<TRIPOS>SUBSTRUCTURE
     1 RES1      367 GROUP             0 ****  ****    0  
