@<TRIPOS>MOLECULE
am_c3_9H2O_c0_0_nunpairedes_0_charge_3 Charge: 3 Unpaired_Electrons: 5 XTB_Unpaired_Electrons: 0 XTB_Charge: 3
   148   161     1     0     0
SMALL
NoCharges
****
Generated from Architector

@<TRIPOS>ATOM
     1 Sm1      -0.0771    0.0352   -0.0252   Sm        1 RES1   0.0000
     2 C1        6.1514   -2.2829    0.9131   C.3       1 RES1   0.0000
     3 C2        4.7329   -2.7109    1.2684   C.3       1 RES1   0.0000
     4 N1        3.7784   -2.3724    0.2111   N.am      1 RES1   0.0000
     5 C3        2.7962   -1.4747    0.3749   C.2       1 RES1   0.0000
     6 O1        1.8719   -1.3172   -0.4571   O.2       1 RES1   0.0000
     7 C4        2.7250   -0.5524    1.5857   C.ar      1 RES1   0.0000
     8 C5        3.8021   -0.0799    2.3376   C.ar      1 RES1   0.0000
     9 C6        3.5213    0.6433    3.4881   C.ar      1 RES1   0.0000
    10 C7        2.2179    1.0086    3.7856   C.ar      1 RES1   0.0000
    11 C8        1.2223    0.7427    2.8392   C.ar      1 RES1   0.0000
    12 C9       -0.0922    1.4617    2.8017   C.ar      1 RES1   0.0000
    13 C10      -0.2832    2.6516    3.5104   C.ar      1 RES1   0.0000
    14 C11      -1.3862    3.4334    3.2127   C.ar      1 RES1   0.0000
    15 C12      -2.3137    3.0086    2.2704   C.ar      1 RES1   0.0000
    16 C13      -2.1284    1.7628    1.6724   C.ar      1 RES1   0.0000
    17 C14      -2.9269    1.1366    0.5320   C.2       1 RES1   0.0000
    18 O2       -2.2859    0.2904   -0.1289   O.2       1 RES1   0.0000
    19 N2       -4.1777    1.4772    0.1958   N.am      1 RES1   0.0000
    20 C15      -5.0576    2.2099    1.1017   C.3       1 RES1   0.0000
    21 C16      -5.3990    3.5975    0.5674   C.3       1 RES1   0.0000
    22 C17      -4.7481    1.0874   -1.0704   C.ar      1 RES1   0.0000
    23 C18      -3.9403    0.7963   -2.1747   C.ar      1 RES1   0.0000
    24 C19      -4.4891    0.4405   -3.3968   C.ar      1 RES1   0.0000
    25 C20      -3.5993    0.0538   -4.5389   C.3       1 RES1   0.0000
    26 C21      -5.8702    0.4278   -3.5495   C.ar      1 RES1   0.0000
    27 C22      -6.6977    0.7466   -2.4840   C.ar      1 RES1   0.0000
    28 C23      -8.1837    0.7748   -2.6252   C.3       1 RES1   0.0000
    29 C24      -6.1272    1.0504   -1.2505   C.ar      1 RES1   0.0000
    30 N3       -1.0157    1.0486    1.9290   N.ar      1 RES1   0.0000
    31 N4        1.4929   -0.0752    1.8129   N.ar      1 RES1   0.0000
    32 C25       3.9694   -3.0918   -1.0222   C.ar      1 RES1   0.0000
    33 C26       4.6396   -4.3176   -1.0308   C.ar      1 RES1   0.0000
    34 C27       4.9470   -4.9845   -2.2088   C.ar      1 RES1   0.0000
    35 C28       5.7421   -6.2497   -2.2043   C.3       1 RES1   0.0000
    36 C29       4.5162   -4.4398   -3.4124   C.ar      1 RES1   0.0000
    37 C30       3.8417   -3.2331   -3.4377   C.ar      1 RES1   0.0000
    38 C31       3.3779   -2.6740   -4.7484   C.3       1 RES1   0.0000
    39 C32       3.5924   -2.5499   -2.2498   C.ar      1 RES1   0.0000
    40 H1        6.8269   -2.5739    1.7107   H         1 RES1   0.0000
    41 H2        6.2296   -1.2085    0.7737   H         1 RES1   0.0000
    42 H3        6.4710   -2.7532   -0.0117   H         1 RES1   0.0000
    43 H4        4.4001   -2.2671    2.2009   H         1 RES1   0.0000
    44 H5        4.7039   -3.7892    1.4256   H         1 RES1   0.0000
    45 H6        4.8275   -0.2496    2.0538   H         1 RES1   0.0000
    46 H7        4.3352    0.9296    4.1393   H         1 RES1   0.0000
    47 H8        2.0241    1.5289    4.7072   H         1 RES1   0.0000
    48 H9        0.4463    3.0104    4.2123   H         1 RES1   0.0000
    49 H10      -1.5160    4.3952    3.6853   H         1 RES1   0.0000
    50 H11      -3.1128    3.6763    1.9928   H         1 RES1   0.0000
    51 H12      -4.5814    2.2552    2.0780   H         1 RES1   0.0000
    52 H13      -5.9706    1.6272    1.2372   H         1 RES1   0.0000
    53 H14      -4.5060    4.1998    0.4151   H         1 RES1   0.0000
    54 H15      -6.0502    4.1073    1.2711   H         1 RES1   0.0000
    55 H16      -5.9142    3.5279   -0.3868   H         1 RES1   0.0000
    56 H17      -2.8636    0.8120   -2.0954   H         1 RES1   0.0000
    57 H18      -2.5499    0.0556   -4.2459   H         1 RES1   0.0000
    58 H19      -3.7371    0.7337   -5.3774   H         1 RES1   0.0000
    59 H20      -3.8616   -0.9442   -4.8843   H         1 RES1   0.0000
    60 H21      -6.3058    0.1569   -4.4970   H         1 RES1   0.0000
    61 H22      -8.4976    0.4777   -3.6205   H         1 RES1   0.0000
    62 H23      -8.5552    1.7808   -2.4358   H         1 RES1   0.0000
    63 H24      -8.6465    0.1081   -1.9004   H         1 RES1   0.0000
    64 H25      -6.8162    1.2545   -0.4489   H         1 RES1   0.0000
    65 H26       4.9681   -4.7889   -0.1215   H         1 RES1   0.0000
    66 H27       6.1318   -6.4765   -1.2152   H         1 RES1   0.0000
    67 H28       6.5769   -6.1608   -2.8989   H         1 RES1   0.0000
    68 H29       5.1270   -7.0843   -2.5396   H         1 RES1   0.0000
    69 H30       4.7148   -4.9553   -4.3390   H         1 RES1   0.0000
    70 H31       3.8300   -3.2050   -5.5836   H         1 RES1   0.0000
    71 H32       3.6263   -1.6179   -4.8247   H         1 RES1   0.0000
    72 H33       2.2979   -2.7892   -4.8262   H         1 RES1   0.0000
    73 H34       3.1189   -1.5828   -2.3029   H         1 RES1   0.0000
    74 C33       4.1501    4.4270   -2.7732   C.3       1 RES1   0.0000
    75 C34       2.6544    4.1958   -2.5916   C.3       1 RES1   0.0000
    76 N5        2.3254    3.5869   -1.3001   N.am      1 RES1   0.0000
    77 C35       1.7690    2.3691   -1.1878   C.2       1 RES1   0.0000
    78 O3        1.2840    1.9518   -0.1095   O.2       1 RES1   0.0000
    79 C36       1.6715    1.4048   -2.3682   C.ar      1 RES1   0.0000
    80 C37       2.5219    1.3524   -3.4756   C.ar      1 RES1   0.0000
    81 C38       2.1491    0.5431   -4.5411   C.ar      1 RES1   0.0000
    82 C39       1.0811   -0.3298   -4.4154   C.ar      1 RES1   0.0000
    83 C40       0.4734   -0.4567   -3.1609   C.ar      1 RES1   0.0000
    84 C41      -0.2907   -1.6764   -2.7440   C.ar      1 RES1   0.0000
    85 C42      -0.3173   -2.8401   -3.5162   C.ar      1 RES1   0.0000
    86 C43      -0.8023   -4.0065   -2.9451   C.ar      1 RES1   0.0000
    87 C44      -1.2667   -4.0059   -1.6355   C.ar      1 RES1   0.0000
    88 C45      -1.2799   -2.7984   -0.9344   C.ar      1 RES1   0.0000
    89 C46      -1.5425   -2.5736    0.5641   C.2       1 RES1   0.0000
    90 O4       -0.6961   -1.8105    1.0796   O.2       1 RES1   0.0000
    91 N6       -2.5509   -3.1258    1.2460   N.am      1 RES1   0.0000
    92 C47      -3.4660   -4.0401    0.5702   C.3       1 RES1   0.0000
    93 C48      -3.1892   -5.4844    0.9761   C.3       1 RES1   0.0000
    94 C49      -2.7765   -2.9405    2.6617   C.ar      1 RES1   0.0000
    95 C50      -1.8534   -2.3044    3.4964   C.ar      1 RES1   0.0000
    96 C51      -2.1079   -2.1095    4.8481   C.ar      1 RES1   0.0000
    97 C52      -1.1229   -1.3654    5.6984   C.3       1 RES1   0.0000
    98 C53      -3.2832   -2.5968    5.4050   C.ar      1 RES1   0.0000
    99 C54      -4.1997   -3.2741    4.6169   C.ar      1 RES1   0.0000
   100 C55      -5.4525   -3.8523    5.1961   C.3       1 RES1   0.0000
   101 C56      -3.9467   -3.4198    3.2552   C.ar      1 RES1   0.0000
   102 N7       -0.7906   -1.6853   -1.5039   N.ar      1 RES1   0.0000
   103 N8        0.7171    0.4718   -2.2223   N.ar      1 RES1   0.0000
   104 C57       2.6007    4.4192   -0.1530   C.ar      1 RES1   0.0000
   105 C58       2.6715    5.8089   -0.2936   C.ar      1 RES1   0.0000
   106 C59       3.0384    6.6408    0.7567   C.ar      1 RES1   0.0000
   107 C60       3.1888    8.1150    0.5590   C.3       1 RES1   0.0000
   108 C61       3.2873    6.0712    1.9978   C.ar      1 RES1   0.0000
   109 C62       3.2210    4.6992    2.1735   C.ar      1 RES1   0.0000
   110 C63       3.4920    4.1213    3.5293   C.3       1 RES1   0.0000
   111 C64       2.9003    3.8764    1.0945   C.ar      1 RES1   0.0000
   112 H35       4.3170    4.9081   -3.7323   H         1 RES1   0.0000
   113 H36       4.7163    3.4996   -2.7478   H         1 RES1   0.0000
   114 H37       4.5393    5.0690   -1.9890   H         1 RES1   0.0000
   115 H38       2.2547    3.5714   -3.3842   H         1 RES1   0.0000
   116 H39       2.1285    5.1499   -2.6636   H         1 RES1   0.0000
   117 H40       3.4436    1.9077   -3.5274   H         1 RES1   0.0000
   118 H41       2.7130    0.5882   -5.4627   H         1 RES1   0.0000
   119 H42       0.7801   -0.9182   -5.2642   H         1 RES1   0.0000
   120 H43       0.0795   -2.8644   -4.5147   H         1 RES1   0.0000
   121 H44      -0.7901   -4.9293   -3.5068   H         1 RES1   0.0000
   122 H45      -1.5768   -4.9406   -1.1946   H         1 RES1   0.0000
   123 H46      -3.3483   -3.9020   -0.5017   H         1 RES1   0.0000
   124 H47      -4.4938   -3.7634    0.8074   H         1 RES1   0.0000
   125 H48      -2.1689   -5.7692    0.7308   H         1 RES1   0.0000
   126 H49      -3.8810   -6.1404    0.4586   H         1 RES1   0.0000
   127 H50      -3.3176   -5.6272    2.0454   H         1 RES1   0.0000
   128 H51      -0.9097   -1.9591    3.1118   H         1 RES1   0.0000
   129 H52      -0.2661   -1.0339    5.1141   H         1 RES1   0.0000
   130 H53      -0.7698   -1.9968    6.5113   H         1 RES1   0.0000
   131 H54      -1.6029   -0.4962    6.1458   H         1 RES1   0.0000
   132 H55      -3.4888   -2.4502    6.4536   H         1 RES1   0.0000
   133 H56      -5.5464   -3.6214    6.2531   H         1 RES1   0.0000
   134 H57      -5.4515   -4.9360    5.0858   H         1 RES1   0.0000
   135 H58      -6.3281   -3.4660    4.6774   H         1 RES1   0.0000
   136 H59      -4.7079   -3.9374    2.6995   H         1 RES1   0.0000
   137 H60       2.4685    6.2949   -1.2304   H         1 RES1   0.0000
   138 H61       3.0185    8.4009   -0.4760   H         1 RES1   0.0000
   139 H62       4.1947    8.4236    0.8443   H         1 RES1   0.0000
   140 H63       2.4904    8.6579    1.1950   H         1 RES1   0.0000
   141 H64       3.5441    6.6996    2.8365   H         1 RES1   0.0000
   142 H65       3.9632    4.8540    4.1804   H         1 RES1   0.0000
   143 H66       4.1383    3.2510    3.4543   H         1 RES1   0.0000
   144 H67       2.5534    3.8254    3.9962   H         1 RES1   0.0000
   145 H68       2.9090    2.8073    1.2403   H         1 RES1   0.0000
   146 O5       -1.0357    2.5957   -1.5442   O.3       1 RES1   0.0000
   147 H69      -0.9965    3.5201   -1.2720   H         1 RES1   0.0000
   148 H70      -1.6255    2.5819   -2.3145   H         1 RES1   0.0000
@<TRIPOS>BOND
     1     1     6    1
     2     1    18    1
     3     1    30    1
     4     1    31    1
     5     1    78    1
     6     1    90    1
     7     1   102    1
     8     1   103    1
     9     1   146    1
    10     2     3    1
    11     2    40    1
    12     2    41    1
    13     2    42    1
    14     3     4    1
    15     3    43    1
    16     3    44    1
    17     4     5    1
    18     4    32    1
    19     5     6    2
    20     5     7    1
    21     7     8    1
    22     7    31    2
    23     8     9    2
    24     8    45    1
    25     9    10    1
    26     9    46    1
    27    10    11    2
    28    10    47    1
    29    11    12    1
    30    11    31    1
    31    12    13    1
    32    12    30    2
    33    13    14    2
    34    13    48    1
    35    14    15    1
    36    14    49    1
    37    15    16    2
    38    15    50    1
    39    16    17    1
    40    16    30    1
    41    17    18    2
    42    17    19    1
    43    19    20    1
    44    19    22    1
    45    20    21    1
    46    20    51    1
    47    20    52    1
    48    21    53    1
    49    21    54    1
    50    21    55    1
    51    22    23    1
    52    22    29    2
    53    23    24    2
    54    23    56    1
    55    24    25    1
    56    24    26    1
    57    25    57    1
    58    25    58    1
    59    25    59    1
    60    26    27    2
    61    26    60    1
    62    27    28    1
    63    27    29    1
    64    28    61    1
    65    28    62    1
    66    28    63    1
    67    29    64    1
    68    32    33    1
    69    32    39    2
    70    33    34    2
    71    33    65    1
    72    34    35    1
    73    34    36    1
    74    35    66    1
    75    35    67    1
    76    35    68    1
    77    36    37    2
    78    36    69    1
    79    37    38    1
    80    37    39    1
    81    38    70    1
    82    38    71    1
    83    38    72    1
    84    39    73    1
    85    74    75    1
    86    74   112    1
    87    74   113    1
    88    74   114    1
    89    75    76    1
    90    75   115    1
    91    75   116    1
    92    76    77    1
    93    76   104    1
    94    77    78    2
    95    77    79    1
    96    79    80    1
    97    79   103    2
    98    80    81    2
    99    80   117    1
   100    81    82    1
   101    81   118    1
   102    82    83    2
   103    82   119    1
   104    83    84    1
   105    83   103    1
   106    84    85    1
   107    84   102    2
   108    85    86    2
   109    85   120    1
   110    86    87    1
   111    86   121    1
   112    87    88    2
   113    87   122    1
   114    88    89    1
   115    88   102    1
   116    89    90    2
   117    89    91    1
   118    91    92    1
   119    91    94    1
   120    92    93    1
   121    92   123    1
   122    92   124    1
   123    93   125    1
   124    93   126    1
   125    93   127    1
   126    94    95    1
   127    94   101    2
   128    95    96    2
   129    95   128    1
   130    96    97    1
   131    96    98    1
   132    97   129    1
   133    97   130    1
   134    97   131    1
   135    98    99    2
   136    98   132    1
   137    99   100    1
   138    99   101    1
   139   100   133    1
   140   100   134    1
   141   100   135    1
   142   101   136    1
   143   104   105    1
   144   104   111    2
   145   105   106    2
   146   105   137    1
   147   106   107    1
   148   106   108    1
   149   107   138    1
   150   107   139    1
   151   107   140    1
   152   108   109    2
   153   108   141    1
   154   109   110    1
   155   109   111    1
   156   110   142    1
   157   110   143    1
   158   110   144    1
   159   111   145    1
   160   146   147    1
   161   146   148    1
@<TRIPOS>SUBSTRUCTURE
     1 RES1      148 GROUP             0 ****  ****    0  
