@<TRIPOS>MOLECULE
am_c3_9H2O_c0_0_nunpairedes_0_charge_3 Charge: 3 Unpaired_Electrons: 5 XTB_Unpaired_Electrons: 0 XTB_Charge: 3
   394   399     1     0     0
SMALL
NoCharges
****
Generated from Architector

@<TRIPOS>ATOM
     1 Sm1      -0.2870   -0.2078   -0.0304   Sm        1 RES1   0.0000
     2 C1       -5.0305   -9.7522   -3.0158   C.3       1 RES1   0.0000
     3 C2       -4.5112   -8.7013   -2.0463   C.3       1 RES1   0.0000
     4 C3       -3.1850   -9.0843   -1.3741   C.3       1 RES1   0.0000
     5 C4       -2.2681   -7.8901   -1.0520   C.3       1 RES1   0.0000
     6 C5       -2.3387   -7.1883    0.3191   C.3       1 RES1   0.0000
     7 C6       -1.5263   -5.8792    0.2553   C.3       1 RES1   0.0000
     8 C7       -1.2292   -5.0940    1.5421   C.3       1 RES1   0.0000
     9 C8       -2.3640   -4.5238    2.3966   C.3       1 RES1   0.0000
    10 N1       -3.1139   -3.2988    2.0378   N.am      1 RES1   0.0000
    11 C9       -4.4407   -3.3544    2.6412   C.3       1 RES1   0.0000
    12 C10      -4.4906   -3.5321    4.1761   C.3       1 RES1   0.0000
    13 C11      -4.6264   -2.2586    5.0197   C.3       1 RES1   0.0000
    14 C12      -3.3332   -1.4614    5.2726   C.3       1 RES1   0.0000
    15 C13      -2.9683   -1.3441    6.7588   C.3       1 RES1   0.0000
    16 C14      -3.7260   -0.2604    7.5327   C.3       1 RES1   0.0000
    17 C15      -5.2466   -0.4041    7.5619   C.3       1 RES1   0.0000
    18 C16      -5.8942    0.7043    8.3849   C.3       1 RES1   0.0000
    19 C17      -2.6245   -2.2168    1.4219   C.2       1 RES1   0.0000
    20 O1       -1.4146   -2.0766    1.1829   O.2       1 RES1   0.0000
    21 C18      -3.6111   -1.1346    0.8431   C.3       1 RES1   0.0000
    22 C19      -4.3836   -0.2929    1.8878   C.3       1 RES1   0.0000
    23 C20      -5.8688   -0.0403    1.5540   C.3       1 RES1   0.0000
    24 C21      -6.8416   -1.2106    1.6892   C.3       1 RES1   0.0000
    25 O2       -2.8074   -0.2728    0.0055   O.3       1 RES1   0.0000
    26 C22      -3.4805    0.3966   -1.0751   C.3       1 RES1   0.0000
    27 C23      -4.0973    1.7721   -0.7000   C.3       1 RES1   0.0000
    28 C24      -3.1438    2.9573   -0.8845   C.3       1 RES1   0.0000
    29 C25      -3.8312    4.2688   -0.5143   C.3       1 RES1   0.0000
    30 C26      -2.4237    0.6977   -2.1588   C.2       1 RES1   0.0000
    31 O3       -1.2391    0.8192   -1.7895   O.2       1 RES1   0.0000
    32 N2       -2.7830    0.9317   -3.4235   N.am      1 RES1   0.0000
    33 C27      -1.6779    1.2573   -4.3428   C.3       1 RES1   0.0000
    34 C28      -1.9435    2.2591   -5.4656   C.3       1 RES1   0.0000
    35 C29      -2.1081    3.7260   -5.0635   C.3       1 RES1   0.0000
    36 C30      -0.8084    4.3812   -4.5830   C.3       1 RES1   0.0000
    37 C31      -0.7869    5.9018   -4.8308   C.3       1 RES1   0.0000
    38 C32      -1.0037    6.7537   -3.5815   C.3       1 RES1   0.0000
    39 C33      -1.0032    8.2433   -3.9205   C.3       1 RES1   0.0000
    40 C34      -0.8961    9.1020   -2.6680   C.3       1 RES1   0.0000
    41 C35      -4.1699    1.0737   -3.8672   C.3       1 RES1   0.0000
    42 C36      -4.5440    0.4826   -5.2399   C.3       1 RES1   0.0000
    43 C37      -5.7325   -0.4829   -5.1605   C.3       1 RES1   0.0000
    44 C38      -5.2859   -1.8913   -4.7496   C.3       1 RES1   0.0000
    45 C39      -5.1709   -2.8910   -5.9070   C.3       1 RES1   0.0000
    46 C40      -4.1601   -2.5512   -7.0129   C.3       1 RES1   0.0000
    47 C41      -4.7750   -1.8695   -8.2332   C.3       1 RES1   0.0000
    48 C42      -3.7720   -1.7578   -9.3752   C.3       1 RES1   0.0000
    49 H1       -5.9879   -9.4357   -3.4153   H         1 RES1   0.0000
    50 H2       -5.1652  -10.7131   -2.5309   H         1 RES1   0.0000
    51 H3       -4.3406   -9.8726   -3.8443   H         1 RES1   0.0000
    52 H4       -5.2896   -8.5110   -1.3091   H         1 RES1   0.0000
    53 H5       -4.3578   -7.7934   -2.6365   H         1 RES1   0.0000
    54 H6       -2.6438   -9.7059   -2.0886   H         1 RES1   0.0000
    55 H7       -3.3650   -9.6957   -0.4923   H         1 RES1   0.0000
    56 H8       -2.5066   -7.1523   -1.8155   H         1 RES1   0.0000
    57 H9       -1.2385   -8.2040   -1.2248   H         1 RES1   0.0000
    58 H10      -1.9442   -7.8504    1.0927   H         1 RES1   0.0000
    59 H11      -3.3713   -6.9572    0.5670   H         1 RES1   0.0000
    60 H12      -2.0154   -5.1993   -0.4341   H         1 RES1   0.0000
    61 H13      -0.5442   -6.1277   -0.1615   H         1 RES1   0.0000
    62 H14      -0.5462   -4.2780    1.3019   H         1 RES1   0.0000
    63 H15      -0.7092   -5.7783    2.2103   H         1 RES1   0.0000
    64 H16      -1.9417   -4.3493    3.3907   H         1 RES1   0.0000
    65 H17      -3.1180   -5.3070    2.4865   H         1 RES1   0.0000
    66 H18      -4.9606   -4.2007    2.1995   H         1 RES1   0.0000
    67 H19      -4.9868   -2.4673    2.3711   H         1 RES1   0.0000
    68 H20      -3.6311   -4.0896    4.5401   H         1 RES1   0.0000
    69 H21      -5.3762   -4.1424    4.3728   H         1 RES1   0.0000
    70 H22      -5.0189   -2.5792    5.9841   H         1 RES1   0.0000
    71 H23      -5.3884   -1.6159    4.5755   H         1 RES1   0.0000
    72 H24      -3.4393   -0.4523    4.8736   H         1 RES1   0.0000
    73 H25      -2.5028   -1.9324    4.7400   H         1 RES1   0.0000
    74 H26      -1.9033   -1.1090    6.8407   H         1 RES1   0.0000
    75 H27      -3.1224   -2.3055    7.2480   H         1 RES1   0.0000
    76 H28      -3.4776    0.7210    7.1198   H         1 RES1   0.0000
    77 H29      -3.3588   -0.2718    8.5611   H         1 RES1   0.0000
    78 H30      -5.5134   -1.3727    7.9902   H         1 RES1   0.0000
    79 H31      -5.6422   -0.3549    6.5459   H         1 RES1   0.0000
    80 H32      -5.5255    0.6956    9.4073   H         1 RES1   0.0000
    81 H33      -6.9724    0.5691    8.4136   H         1 RES1   0.0000
    82 H34      -5.6742    1.6765    7.9460   H         1 RES1   0.0000
    83 H35      -4.3199   -1.6891    0.2064   H         1 RES1   0.0000
    84 H36      -4.2874   -0.7201    2.8829   H         1 RES1   0.0000
    85 H37      -3.8690    0.6711    1.9357   H         1 RES1   0.0000
    86 H38      -5.9529    0.3441    0.5367   H         1 RES1   0.0000
    87 H39      -6.2174    0.7480    2.2230   H         1 RES1   0.0000
    88 H40      -6.6059   -2.0296    1.0115   H         1 RES1   0.0000
    89 H41      -7.8367   -0.8577    1.4303   H         1 RES1   0.0000
    90 H42      -6.8935   -1.5888    2.7084   H         1 RES1   0.0000
    91 H43      -4.2569   -0.2810   -1.4531   H         1 RES1   0.0000
    92 H44      -5.0005    1.9371   -1.2952   H         1 RES1   0.0000
    93 H45      -4.3914    1.7694    0.3456   H         1 RES1   0.0000
    94 H46      -2.8103    3.0355   -1.9203   H         1 RES1   0.0000
    95 H47      -2.2577    2.7821   -0.2617   H         1 RES1   0.0000
    96 H48      -4.7348    4.4099   -1.1067   H         1 RES1   0.0000
    97 H49      -3.1702    5.1097   -0.7023   H         1 RES1   0.0000
    98 H50      -4.1200    4.2816    0.5354   H         1 RES1   0.0000
    99 H51      -1.3305    0.3195   -4.7909   H         1 RES1   0.0000
   100 H52      -0.8597    1.6388   -3.7248   H         1 RES1   0.0000
   101 H53      -2.8001    1.9617   -6.0611   H         1 RES1   0.0000
   102 H54      -1.0707    2.1988   -6.1222   H         1 RES1   0.0000
   103 H55      -2.8885    3.8461   -4.3106   H         1 RES1   0.0000
   104 H56      -2.4430    4.2505   -5.9610   H         1 RES1   0.0000
   105 H57       0.0233    3.9241   -5.1253   H         1 RES1   0.0000
   106 H58      -0.6523    4.1765   -3.5212   H         1 RES1   0.0000
   107 H59      -1.5578    6.1629   -5.5589   H         1 RES1   0.0000
   108 H60       0.1739    6.1793   -5.2707   H         1 RES1   0.0000
   109 H61      -0.1983    6.5652   -2.8658   H         1 RES1   0.0000
   110 H62      -1.9522    6.4903   -3.1069   H         1 RES1   0.0000
   111 H63      -1.9192    8.5038   -4.4555   H         1 RES1   0.0000
   112 H64      -0.1562    8.4601   -4.5749   H         1 RES1   0.0000
   113 H65      -1.6763    8.8377   -1.9559   H         1 RES1   0.0000
   114 H66      -1.0085   10.1513   -2.9208   H         1 RES1   0.0000
   115 H67       0.0716    8.9771   -2.1904   H         1 RES1   0.0000
   116 H68      -4.3989    2.1423   -3.8725   H         1 RES1   0.0000
   117 H69      -4.8059    0.6085   -3.1206   H         1 RES1   0.0000
   118 H70      -3.7021   -0.0530   -5.6646   H         1 RES1   0.0000
   119 H71      -4.8014    1.2923   -5.9197   H         1 RES1   0.0000
   120 H72      -6.2280   -0.5317   -6.1284   H         1 RES1   0.0000
   121 H73      -6.4736   -0.0942   -4.4607   H         1 RES1   0.0000
   122 H74      -5.9865   -2.3122   -4.0240   H         1 RES1   0.0000
   123 H75      -4.3199   -1.8039   -4.2493   H         1 RES1   0.0000
   124 H76      -6.1549   -3.0090   -6.3602   H         1 RES1   0.0000
   125 H77      -4.9017   -3.8595   -5.4762   H         1 RES1   0.0000
   126 H78      -3.6996   -3.4767   -7.3639   H         1 RES1   0.0000
   127 H79      -3.3554   -1.9247   -6.6229   H         1 RES1   0.0000
   128 H80      -5.1287   -0.8718   -7.9731   H         1 RES1   0.0000
   129 H81      -5.6326   -2.4524   -8.5700   H         1 RES1   0.0000
   130 H82      -2.9128   -1.1596   -9.0763   H         1 RES1   0.0000
   131 H83      -4.2324   -1.2885  -10.2405   H         1 RES1   0.0000
   132 H84      -3.4191   -2.7421   -9.6757   H         1 RES1   0.0000
   133 C43      -6.1503   -9.1534    2.5989   C.3       1 RES1   0.0000
   134 C44      -5.5516   -8.1347    1.6325   C.3       1 RES1   0.0000
   135 C45      -6.6068   -7.1886    1.0307   C.3       1 RES1   0.0000
   136 C46      -6.0295   -5.8189    0.6319   C.3       1 RES1   0.0000
   137 C47      -5.5714   -5.6484   -0.8235   C.3       1 RES1   0.0000
   138 C48      -4.6077   -4.4637   -1.0179   C.3       1 RES1   0.0000
   139 C49      -3.8759   -4.5249   -2.3688   C.3       1 RES1   0.0000
   140 C50      -2.8122   -3.4311   -2.5997   C.3       1 RES1   0.0000
   141 N3       -1.4132   -3.8287   -2.3316   N.am      1 RES1   0.0000
   142 C51      -0.9706   -5.0936   -2.9101   C.3       1 RES1   0.0000
   143 C52      -1.2583   -5.2713   -4.4047   C.3       1 RES1   0.0000
   144 C53      -0.3465   -4.4907   -5.3471   C.3       1 RES1   0.0000
   145 C54      -0.6843   -3.0054   -5.4183   C.3       1 RES1   0.0000
   146 C55      -0.0075   -2.2551   -6.5658   C.3       1 RES1   0.0000
   147 C56       1.4398   -1.8273   -6.3223   C.3       1 RES1   0.0000
   148 C57       2.4715   -2.9526   -6.4036   C.3       1 RES1   0.0000
   149 C58       3.8809   -2.4046   -6.5994   C.3       1 RES1   0.0000
   150 C59      -0.6301   -2.9569   -1.6944   C.2       1 RES1   0.0000
   151 O4       -1.0220   -1.7914   -1.4861   O.2       1 RES1   0.0000
   152 C60       0.7778   -3.3275   -1.1618   C.3       1 RES1   0.0000
   153 C61       1.8081   -3.2953   -2.3101   C.3       1 RES1   0.0000
   154 C62       2.9397   -4.3240   -2.1798   C.3       1 RES1   0.0000
   155 C63       2.4995   -5.7555   -2.4667   C.3       1 RES1   0.0000
   156 O5        1.0885   -2.3187   -0.1753   O.3       1 RES1   0.0000
   157 C64       1.9492   -2.6768    0.9133   C.3       1 RES1   0.0000
   158 C65       3.4491   -2.3800    0.6233   C.3       1 RES1   0.0000
   159 C66       3.8868   -1.0054    1.1390   C.3       1 RES1   0.0000
   160 C67       5.3733   -0.7078    0.9718   C.3       1 RES1   0.0000
   161 C68       1.5367   -1.7759    2.1010   C.2       1 RES1   0.0000
   162 O6        0.9127   -0.7315    1.8291   O.2       1 RES1   0.0000
   163 N4        1.9285   -2.0474    3.3479   N.am      1 RES1   0.0000
   164 C69       1.5669   -1.0652    4.3744   C.3       1 RES1   0.0000
   165 C70       2.6902   -0.5616    5.2801   C.3       1 RES1   0.0000
   166 C71       3.8353    0.2280    4.6429   C.3       1 RES1   0.0000
   167 C72       3.4089    1.3832    3.7316   C.3       1 RES1   0.0000
   168 C73       4.3703    2.5840    3.7901   C.3       1 RES1   0.0000
   169 C74       4.7773    3.0710    2.3977   C.3       1 RES1   0.0000
   170 C75       5.3378    4.4929    2.3911   C.3       1 RES1   0.0000
   171 C76       4.2583    5.5637    2.4789   C.3       1 RES1   0.0000
   172 C77       2.8590   -3.1115    3.7240   C.3       1 RES1   0.0000
   173 C78       2.5854   -3.8148    5.0671   C.3       1 RES1   0.0000
   174 C79       2.0777   -5.2423    4.8810   C.3       1 RES1   0.0000
   175 C80       0.6256   -5.3054    4.4001   C.3       1 RES1   0.0000
   176 C81      -0.4095   -5.6179    5.4852   C.3       1 RES1   0.0000
   177 C82      -0.6140   -4.5482    6.5658   C.3       1 RES1   0.0000
   178 C83       0.2785   -4.7404    7.7926   C.3       1 RES1   0.0000
   179 C84      -0.0816   -3.7792    8.9197   C.3       1 RES1   0.0000
   180 H85      -5.3751   -9.8308    2.9529   H         1 RES1   0.0000
   181 H86      -6.9275   -9.7407    2.1161   H         1 RES1   0.0000
   182 H87      -6.5787   -8.6463    3.4622   H         1 RES1   0.0000
   183 H88      -5.0125   -8.6655    0.8418   H         1 RES1   0.0000
   184 H89      -4.8136   -7.5547    2.2022   H         1 RES1   0.0000
   185 H90      -7.3665   -7.0167    1.7962   H         1 RES1   0.0000
   186 H91      -7.1021   -7.6642    0.1822   H         1 RES1   0.0000
   187 H92      -5.1638   -5.6688    1.2832   H         1 RES1   0.0000
   188 H93      -6.7667   -5.0440    0.8513   H         1 RES1   0.0000
   189 H94      -6.4474   -5.5228   -1.4574   H         1 RES1   0.0000
   190 H95      -5.0555   -6.5430   -1.1435   H         1 RES1   0.0000
   191 H96      -3.8773   -4.4838   -0.2054   H         1 RES1   0.0000
   192 H97      -5.1590   -3.5237   -0.9437   H         1 RES1   0.0000
   193 H98      -4.6154   -4.4564   -3.1687   H         1 RES1   0.0000
   194 H99      -3.4235   -5.5087   -2.4689   H         1 RES1   0.0000
   195 H100     -3.0130   -2.5705   -1.9615   H         1 RES1   0.0000
   196 H101     -2.8569   -3.0919   -3.6381   H         1 RES1   0.0000
   197 H102     -1.4771   -5.8966   -2.3832   H         1 RES1   0.0000
   198 H103      0.0889   -5.2206   -2.7255   H         1 RES1   0.0000
   199 H104     -2.2948   -5.0256   -4.6262   H         1 RES1   0.0000
   200 H105     -1.1346   -6.3358   -4.6094   H         1 RES1   0.0000
   201 H106     -0.4619   -4.9088   -6.3469   H         1 RES1   0.0000
   202 H107      0.6909   -4.6479   -5.0621   H         1 RES1   0.0000
   203 H108     -0.4532   -2.5051   -4.4743   H         1 RES1   0.0000
   204 H109     -1.7603   -2.9392   -5.5818   H         1 RES1   0.0000
   205 H110     -0.5852   -1.3482   -6.7594   H         1 RES1   0.0000
   206 H111     -0.0573   -2.8647   -7.4674   H         1 RES1   0.0000
   207 H112      1.5141   -1.3234   -5.3526   H         1 RES1   0.0000
   208 H113      1.6980   -1.0933   -7.0882   H         1 RES1   0.0000
   209 H114      2.2286   -3.6007   -7.2459   H         1 RES1   0.0000
   210 H115      2.4482   -3.5573   -5.4953   H         1 RES1   0.0000
   211 H116      3.9568   -1.8911   -7.5546   H         1 RES1   0.0000
   212 H117      4.6126   -3.2089   -6.5865   H         1 RES1   0.0000
   213 H118      4.1280   -1.6983   -5.8093   H         1 RES1   0.0000
   214 H119      0.7560   -4.3104   -0.6732   H         1 RES1   0.0000
   215 H120      1.3075   -3.4513   -3.2650   H         1 RES1   0.0000
   216 H121      2.2028   -2.2767   -2.3203   H         1 RES1   0.0000
   217 H122      3.3710   -4.2938   -1.1799   H         1 RES1   0.0000
   218 H123      3.7275   -4.0586   -2.8872   H         1 RES1   0.0000
   219 H124      1.7931   -6.1144   -1.7192   H         1 RES1   0.0000
   220 H125      3.3619   -6.4156   -2.4465   H         1 RES1   0.0000
   221 H126      2.0471   -5.8367   -3.4523   H         1 RES1   0.0000
   222 H127      1.7902   -3.7380    1.1507   H         1 RES1   0.0000
   223 H128      4.0691   -3.1500    1.0870   H         1 RES1   0.0000
   224 H129      3.6091   -2.4150   -0.4518   H         1 RES1   0.0000
   225 H130      3.6782   -0.9629    2.2024   H         1 RES1   0.0000
   226 H131      3.2849   -0.2366    0.6394   H         1 RES1   0.0000
   227 H132      5.9836   -1.5891    1.1609   H         1 RES1   0.0000
   228 H133      5.6747    0.0635    1.6767   H         1 RES1   0.0000
   229 H134      5.5913   -0.3374   -0.0215   H         1 RES1   0.0000
   230 H135      0.7919   -1.5145    5.0024   H         1 RES1   0.0000
   231 H136      1.1229   -0.2206    3.8447   H         1 RES1   0.0000
   232 H137      3.1263   -1.3878    5.8352   H         1 RES1   0.0000
   233 H138      2.2001    0.0781    6.0155   H         1 RES1   0.0000
   234 H139      4.4943   -0.4432    4.0922   H         1 RES1   0.0000
   235 H140      4.4176    0.6205    5.4767   H         1 RES1   0.0000
   236 H141      2.4022    1.6951    3.9954   H         1 RES1   0.0000
   237 H142      3.3510    1.0308    2.7022   H         1 RES1   0.0000
   238 H143      5.2765    2.3058    4.3240   H         1 RES1   0.0000
   239 H144      3.9185    3.4065    4.3473   H         1 RES1   0.0000
   240 H145      3.9097    3.0300    1.7312   H         1 RES1   0.0000
   241 H146      5.5276    2.3880    1.9929   H         1 RES1   0.0000
   242 H147      5.9024    4.6514    1.4723   H         1 RES1   0.0000
   243 H148      6.0266    4.6150    3.2250   H         1 RES1   0.0000
   244 H149      3.5846    5.5022    1.6251   H         1 RES1   0.0000
   245 H150      4.7104    6.5519    2.4806   H         1 RES1   0.0000
   246 H151      3.6664    5.4712    3.3871   H         1 RES1   0.0000
   247 H152      3.8619   -2.6763    3.7651   H         1 RES1   0.0000
   248 H153      2.8633   -3.8629    2.9369   H         1 RES1   0.0000
   249 H154      1.8595   -3.2607    5.6526   H         1 RES1   0.0000
   250 H155      3.5140   -3.8519    5.6399   H         1 RES1   0.0000
   251 H156      2.1660   -5.7841    5.8196   H         1 RES1   0.0000
   252 H157      2.7219   -5.7507    4.1626   H         1 RES1   0.0000
   253 H158      0.5523   -6.1077    3.6636   H         1 RES1   0.0000
   254 H159      0.3653   -4.3678    3.9002   H         1 RES1   0.0000
   255 H160     -0.1300   -6.5555    5.9663   H         1 RES1   0.0000
   256 H161     -1.3671   -5.7978    4.9880   H         1 RES1   0.0000
   257 H162     -1.6503   -4.5949    6.9093   H         1 RES1   0.0000
   258 H163     -0.4677   -3.5482    6.1458   H         1 RES1   0.0000
   259 H164      1.3278   -4.6009    7.5320   H         1 RES1   0.0000
   260 H165      0.1608   -5.7639    8.1519   H         1 RES1   0.0000
   261 H166      0.0417   -2.7451    8.6004   H         1 RES1   0.0000
   262 H167      0.5595   -3.9533    9.7805   H         1 RES1   0.0000
   263 H168     -1.1135   -3.9228    9.2324   H         1 RES1   0.0000
   264 C85      10.2715    3.5870   -1.1192   C.3       1 RES1   0.0000
   265 C86       9.1363    2.5754   -1.2142   C.3       1 RES1   0.0000
   266 C87       9.6577    1.1394   -1.2535   C.3       1 RES1   0.0000
   267 C88       8.5395    0.0943   -1.2385   C.3       1 RES1   0.0000
   268 C89       7.5198    0.3247   -2.3519   C.3       1 RES1   0.0000
   269 C90       6.5057   -0.8114   -2.4962   C.3       1 RES1   0.0000
   270 C91       5.2793   -0.4294   -3.3407   C.3       1 RES1   0.0000
   271 C92       3.9554   -0.1345   -2.6215   C.3       1 RES1   0.0000
   272 N5        3.5915    1.2158   -2.1460   N.am      1 RES1   0.0000
   273 C93       4.5017    2.3405   -2.2798   C.3       1 RES1   0.0000
   274 C94       4.9590    2.8154   -3.6780   C.3       1 RES1   0.0000
   275 C95       3.9563    2.9160   -4.8345   C.3       1 RES1   0.0000
   276 C96       3.5733    1.6076   -5.5293   C.3       1 RES1   0.0000
   277 C97       3.2377    1.7764   -7.0161   C.3       1 RES1   0.0000
   278 C98       2.0243    2.6592   -7.3362   C.3       1 RES1   0.0000
   279 C99       2.3721    4.1230   -7.6133   C.3       1 RES1   0.0000
   280 C100      1.1762    4.9152   -8.1265   C.3       1 RES1   0.0000
   281 C101      2.4614    1.2614   -1.4360   C.2       1 RES1   0.0000
   282 O7        1.7552    0.2425   -1.2768   O.2       1 RES1   0.0000
   283 C102      1.9975    2.5717   -0.7532   C.3       1 RES1   0.0000
   284 C103      1.6567    3.6438   -1.8212   C.3       1 RES1   0.0000
   285 C104      2.2368    5.0505   -1.5529   C.3       1 RES1   0.0000
   286 C105      2.7429    5.7381   -2.8156   C.3       1 RES1   0.0000
   287 O8        0.8654    2.2180    0.0696   O.3       1 RES1   0.0000
   288 C106      0.7185    2.9736    1.2919   C.3       1 RES1   0.0000
   289 C107      0.3509    4.4558    1.0155   C.3       1 RES1   0.0000
   290 C108     -0.9731    5.0062    1.5397   C.3       1 RES1   0.0000
   291 C109     -1.1698    6.4319    1.0355   C.3       1 RES1   0.0000
   292 C110     -0.3509    2.2251    2.1184   C.2       1 RES1   0.0000
   293 O9       -1.0399    1.3711    1.5238   O.2       1 RES1   0.0000
   294 N6       -0.5518    2.5010    3.4074   N.am      1 RES1   0.0000
   295 C111     -1.6272    1.7926    4.1147   C.3       1 RES1   0.0000
   296 C112     -2.5757    2.7077    4.8921   C.3       1 RES1   0.0000
   297 C113     -3.7292    3.3562    4.1152   C.3       1 RES1   0.0000
   298 C114     -5.0499    2.6234    4.3647   C.3       1 RES1   0.0000
   299 C115     -6.2812    3.4219    3.9341   C.3       1 RES1   0.0000
   300 C116     -6.2863    3.8016    2.4528   C.3       1 RES1   0.0000
   301 C117     -7.6872    4.1818    1.9744   C.3       1 RES1   0.0000
   302 C118     -7.6955    4.7990    0.5808   C.3       1 RES1   0.0000
   303 C119      0.2378    3.4323    4.2173   C.3       1 RES1   0.0000
   304 C120      0.7598    2.8224    5.5406   C.3       1 RES1   0.0000
   305 C121      0.2730    3.4564    6.8575   C.3       1 RES1   0.0000
   306 C122      1.1379    4.6195    7.3533   C.3       1 RES1   0.0000
   307 C123      2.6316    4.3113    7.5025   C.3       1 RES1   0.0000
   308 C124      2.9544    3.0148    8.2546   C.3       1 RES1   0.0000
   309 C125      2.7265    3.1059    9.7631   C.3       1 RES1   0.0000
   310 C126      2.9922    1.7748   10.4589   C.3       1 RES1   0.0000
   311 H169      9.8822    4.6019   -1.1621   H         1 RES1   0.0000
   312 H170     10.9677    3.4455   -1.9430   H         1 RES1   0.0000
   313 H171     10.8152    3.4652   -0.1859   H         1 RES1   0.0000
   314 H172      8.5583    2.7842   -2.1169   H         1 RES1   0.0000
   315 H173      8.4708    2.6901   -0.3530   H         1 RES1   0.0000
   316 H174     10.2927    0.9731   -0.3818   H         1 RES1   0.0000
   317 H175     10.2782    1.0089   -2.1420   H         1 RES1   0.0000
   318 H176      8.0267    0.1331   -0.2729   H         1 RES1   0.0000
   319 H177      8.9803   -0.8984   -1.3389   H         1 RES1   0.0000
   320 H178      8.0448    0.4638   -3.2999   H         1 RES1   0.0000
   321 H179      7.0014    1.2563   -2.1341   H         1 RES1   0.0000
   322 H180      6.1972   -1.1712   -1.5190   H         1 RES1   0.0000
   323 H181      7.0185   -1.6475   -2.9692   H         1 RES1   0.0000
   324 H182      5.0461   -1.2818   -3.9795   H         1 RES1   0.0000
   325 H183      5.5591    0.3811   -4.0019   H         1 RES1   0.0000
   326 H184      3.8842   -0.7943   -1.7527   H         1 RES1   0.0000
   327 H185      3.1495   -0.4178   -3.3079   H         1 RES1   0.0000
   328 H186      5.4059    2.0902   -1.7152   H         1 RES1   0.0000
   329 H187      4.0443    3.1934   -1.7911   H         1 RES1   0.0000
   330 H188      5.8252    2.2501   -4.0257   H         1 RES1   0.0000
   331 H189      5.3355    3.8256   -3.4910   H         1 RES1   0.0000
   332 H190      4.4397    3.5484   -5.5809   H         1 RES1   0.0000
   333 H191      3.0504    3.4291   -4.5155   H         1 RES1   0.0000
   334 H192      2.7320    1.1350   -5.0149   H         1 RES1   0.0000
   335 H193      4.4138    0.9163   -5.4974   H         1 RES1   0.0000
   336 H194      3.0633    0.7763   -7.4197   H         1 RES1   0.0000
   337 H195      4.1151    2.1713   -7.5313   H         1 RES1   0.0000
   338 H196      1.3043    2.5989   -6.5154   H         1 RES1   0.0000
   339 H197      1.5290    2.2624   -8.2254   H         1 RES1   0.0000
   340 H198      3.1642    4.1615   -8.3618   H         1 RES1   0.0000
   341 H199      2.7494    4.6032   -6.7099   H         1 RES1   0.0000
   342 H200      0.8228    4.5114   -9.0709   H         1 RES1   0.0000
   343 H201      1.4570    5.9528   -8.2861   H         1 RES1   0.0000
   344 H202      0.3561    4.8851   -7.4139   H         1 RES1   0.0000
   345 H203      2.8039    2.9300   -0.0940   H         1 RES1   0.0000
   346 H204      2.0068    3.2994   -2.7938   H         1 RES1   0.0000
   347 H205      0.5679    3.6769   -1.8896   H         1 RES1   0.0000
   348 H206      3.0538    4.9842   -0.8272   H         1 RES1   0.0000
   349 H207      1.4792    5.6991   -1.1123   H         1 RES1   0.0000
   350 H208      3.0577    6.7517   -2.5807   H         1 RES1   0.0000
   351 H209      1.9594    5.7876   -3.5652   H         1 RES1   0.0000
   352 H210      3.5974    5.2187   -3.2337   H         1 RES1   0.0000
   353 H211      1.6822    2.9211    1.8185   H         1 RES1   0.0000
   354 H212      1.1619    5.0919    1.3698   H         1 RES1   0.0000
   355 H213      0.2979    4.5631   -0.0604   H         1 RES1   0.0000
   356 H214     -1.7877    4.3730    1.1991   H         1 RES1   0.0000
   357 H215     -0.9872    5.0359    2.6239   H         1 RES1   0.0000
   358 H216     -1.1066    6.4891   -0.0489   H         1 RES1   0.0000
   359 H217     -0.4012    7.0789    1.4499   H         1 RES1   0.0000
   360 H218     -2.1405    6.8129    1.3380   H         1 RES1   0.0000
   361 H219     -1.1660    1.1047    4.8288   H         1 RES1   0.0000
   362 H220     -2.1610    1.1885    3.3822   H         1 RES1   0.0000
   363 H221     -2.0001    3.4833    5.3862   H         1 RES1   0.0000
   364 H222     -3.0058    2.1032    5.6902   H         1 RES1   0.0000
   365 H223     -3.4996    3.3849    3.0485   H         1 RES1   0.0000
   366 H224     -3.8432    4.3893    4.4532   H         1 RES1   0.0000
   367 H225     -5.1371    2.4296    5.4373   H         1 RES1   0.0000
   368 H226     -5.0261    1.6556    3.8561   H         1 RES1   0.0000
   369 H227     -6.3419    4.3263    4.5433   H         1 RES1   0.0000
   370 H228     -7.1698    2.8259    4.1513   H         1 RES1   0.0000
   371 H229     -5.9278    2.9566    1.8574   H         1 RES1   0.0000
   372 H230     -5.6074    4.6404    2.2948   H         1 RES1   0.0000
   373 H231     -8.1242    4.8985    2.6716   H         1 RES1   0.0000
   374 H232     -8.3145    3.2864    1.9696   H         1 RES1   0.0000
   375 H233     -7.1408    5.7352    0.5654   H         1 RES1   0.0000
   376 H234     -8.7209    5.0059    0.2836   H         1 RES1   0.0000
   377 H235     -7.2568    4.1240   -0.1539   H         1 RES1   0.0000
   378 H236     -0.3725    4.3074    4.4537   H         1 RES1   0.0000
   379 H237      1.0746    3.7768    3.6123   H         1 RES1   0.0000
   380 H238      1.8418    2.9046    5.5498   H         1 RES1   0.0000
   381 H239      0.5277    1.7557    5.5675   H         1 RES1   0.0000
   382 H240      0.2675    2.6819    7.6241   H         1 RES1   0.0000
   383 H241     -0.7537    3.8111    6.7832   H         1 RES1   0.0000
   384 H242      1.0261    5.4831    6.6916   H         1 RES1   0.0000
   385 H243      0.7529    4.9099    8.3288   H         1 RES1   0.0000
   386 H244      3.0844    5.1488    8.0345   H         1 RES1   0.0000
   387 H245      3.1082    4.2776    6.5185   H         1 RES1   0.0000
   388 H246      4.0045    2.7651    8.0763   H         1 RES1   0.0000
   389 H247      2.3575    2.1894    7.8607   H         1 RES1   0.0000
   390 H248      1.7004    3.4167    9.9652   H         1 RES1   0.0000
   391 H249      3.3871    3.8666   10.1807   H         1 RES1   0.0000
   392 H250      2.2939    1.0105   10.1217   H         1 RES1   0.0000
   393 H251      2.8837    1.8861   11.5342   H         1 RES1   0.0000
   394 H252      4.0015    1.4252   10.2535   H         1 RES1   0.0000
@<TRIPOS>BOND
     1     1    20    1
     2     1    25    1
     3     1    31    1
     4     1   151    1
     5     1   156    1
     6     1   162    1
     7     1   282    1
     8     1   287    1
     9     1   293    1
    10     2     3    1
    11     2    49    1
    12     2    50    1
    13     2    51    1
    14     3     4    1
    15     3    52    1
    16     3    53    1
    17     4     5    1
    18     4    54    1
    19     4    55    1
    20     5     6    1
    21     5    56    1
    22     5    57    1
    23     6     7    1
    24     6    58    1
    25     6    59    1
    26     7     8    1
    27     7    60    1
    28     7    61    1
    29     8     9    1
    30     8    62    1
    31     8    63    1
    32     9    10    1
    33     9    64    1
    34     9    65    1
    35    10    11    1
    36    10    19    1
    37    11    12    1
    38    11    66    1
    39    11    67    1
    40    12    13    1
    41    12    68    1
    42    12    69    1
    43    13    14    1
    44    13    70    1
    45    13    71    1
    46    14    15    1
    47    14    72    1
    48    14    73    1
    49    15    16    1
    50    15    74    1
    51    15    75    1
    52    16    17    1
    53    16    76    1
    54    16    77    1
    55    17    18    1
    56    17    78    1
    57    17    79    1
    58    18    80    1
    59    18    81    1
    60    18    82    1
    61    19    20    2
    62    19    21    1
    63    21    22    1
    64    21    25    1
    65    21    83    1
    66    22    23    1
    67    22    84    1
    68    22    85    1
    69    23    24    1
    70    23    86    1
    71    23    87    1
    72    24    88    1
    73    24    89    1
    74    24    90    1
    75    25    26    1
    76    26    27    1
    77    26    30    1
    78    26    91    1
    79    27    28    1
    80    27    92    1
    81    27    93    1
    82    28    29    1
    83    28    94    1
    84    28    95    1
    85    29    96    1
    86    29    97    1
    87    29    98    1
    88    30    31    2
    89    30    32    1
    90    32    33    1
    91    32    41    1
    92    33    34    1
    93    33    99    1
    94    33   100    1
    95    34    35    1
    96    34   101    1
    97    34   102    1
    98    35    36    1
    99    35   103    1
   100    35   104    1
   101    36    37    1
   102    36   105    1
   103    36   106    1
   104    37    38    1
   105    37   107    1
   106    37   108    1
   107    38    39    1
   108    38   109    1
   109    38   110    1
   110    39    40    1
   111    39   111    1
   112    39   112    1
   113    40   113    1
   114    40   114    1
   115    40   115    1
   116    41    42    1
   117    41   116    1
   118    41   117    1
   119    42    43    1
   120    42   118    1
   121    42   119    1
   122    43    44    1
   123    43   120    1
   124    43   121    1
   125    44    45    1
   126    44   122    1
   127    44   123    1
   128    45    46    1
   129    45   124    1
   130    45   125    1
   131    46    47    1
   132    46   126    1
   133    46   127    1
   134    47    48    1
   135    47   128    1
   136    47   129    1
   137    48   130    1
   138    48   131    1
   139    48   132    1
   140   133   134    1
   141   133   180    1
   142   133   181    1
   143   133   182    1
   144   134   135    1
   145   134   183    1
   146   134   184    1
   147   135   136    1
   148   135   185    1
   149   135   186    1
   150   136   137    1
   151   136   187    1
   152   136   188    1
   153   137   138    1
   154   137   189    1
   155   137   190    1
   156   138   139    1
   157   138   191    1
   158   138   192    1
   159   139   140    1
   160   139   193    1
   161   139   194    1
   162   140   141    1
   163   140   195    1
   164   140   196    1
   165   141   142    1
   166   141   150    1
   167   142   143    1
   168   142   197    1
   169   142   198    1
   170   143   144    1
   171   143   199    1
   172   143   200    1
   173   144   145    1
   174   144   201    1
   175   144   202    1
   176   145   146    1
   177   145   203    1
   178   145   204    1
   179   146   147    1
   180   146   205    1
   181   146   206    1
   182   147   148    1
   183   147   207    1
   184   147   208    1
   185   148   149    1
   186   148   209    1
   187   148   210    1
   188   149   211    1
   189   149   212    1
   190   149   213    1
   191   150   151    2
   192   150   152    1
   193   152   153    1
   194   152   156    1
   195   152   214    1
   196   153   154    1
   197   153   215    1
   198   153   216    1
   199   154   155    1
   200   154   217    1
   201   154   218    1
   202   155   219    1
   203   155   220    1
   204   155   221    1
   205   156   157    1
   206   157   158    1
   207   157   161    1
   208   157   222    1
   209   158   159    1
   210   158   223    1
   211   158   224    1
   212   159   160    1
   213   159   225    1
   214   159   226    1
   215   160   227    1
   216   160   228    1
   217   160   229    1
   218   161   162    2
   219   161   163    1
   220   163   164    1
   221   163   172    1
   222   164   165    1
   223   164   230    1
   224   164   231    1
   225   165   166    1
   226   165   232    1
   227   165   233    1
   228   166   167    1
   229   166   234    1
   230   166   235    1
   231   167   168    1
   232   167   236    1
   233   167   237    1
   234   168   169    1
   235   168   238    1
   236   168   239    1
   237   169   170    1
   238   169   240    1
   239   169   241    1
   240   170   171    1
   241   170   242    1
   242   170   243    1
   243   171   244    1
   244   171   245    1
   245   171   246    1
   246   172   173    1
   247   172   247    1
   248   172   248    1
   249   173   174    1
   250   173   249    1
   251   173   250    1
   252   174   175    1
   253   174   251    1
   254   174   252    1
   255   175   176    1
   256   175   253    1
   257   175   254    1
   258   176   177    1
   259   176   255    1
   260   176   256    1
   261   177   178    1
   262   177   257    1
   263   177   258    1
   264   178   179    1
   265   178   259    1
   266   178   260    1
   267   179   261    1
   268   179   262    1
   269   179   263    1
   270   264   265    1
   271   264   311    1
   272   264   312    1
   273   264   313    1
   274   265   266    1
   275   265   314    1
   276   265   315    1
   277   266   267    1
   278   266   316    1
   279   266   317    1
   280   267   268    1
   281   267   318    1
   282   267   319    1
   283   268   269    1
   284   268   320    1
   285   268   321    1
   286   269   270    1
   287   269   322    1
   288   269   323    1
   289   270   271    1
   290   270   324    1
   291   270   325    1
   292   271   272    1
   293   271   326    1
   294   271   327    1
   295   272   273    1
   296   272   281    1
   297   273   274    1
   298   273   328    1
   299   273   329    1
   300   274   275    1
   301   274   330    1
   302   274   331    1
   303   275   276    1
   304   275   332    1
   305   275   333    1
   306   276   277    1
   307   276   334    1
   308   276   335    1
   309   277   278    1
   310   277   336    1
   311   277   337    1
   312   278   279    1
   313   278   338    1
   314   278   339    1
   315   279   280    1
   316   279   340    1
   317   279   341    1
   318   280   342    1
   319   280   343    1
   320   280   344    1
   321   281   282    2
   322   281   283    1
   323   283   284    1
   324   283   287    1
   325   283   345    1
   326   284   285    1
   327   284   346    1
   328   284   347    1
   329   285   286    1
   330   285   348    1
   331   285   349    1
   332   286   350    1
   333   286   351    1
   334   286   352    1
   335   287   288    1
   336   288   289    1
   337   288   292    1
   338   288   353    1
   339   289   290    1
   340   289   354    1
   341   289   355    1
   342   290   291    1
   343   290   356    1
   344   290   357    1
   345   291   358    1
   346   291   359    1
   347   291   360    1
   348   292   293    2
   349   292   294    1
   350   294   295    1
   351   294   303    1
   352   295   296    1
   353   295   361    1
   354   295   362    1
   355   296   297    1
   356   296   363    1
   357   296   364    1
   358   297   298    1
   359   297   365    1
   360   297   366    1
   361   298   299    1
   362   298   367    1
   363   298   368    1
   364   299   300    1
   365   299   369    1
   366   299   370    1
   367   300   301    1
   368   300   371    1
   369   300   372    1
   370   301   302    1
   371   301   373    1
   372   301   374    1
   373   302   375    1
   374   302   376    1
   375   302   377    1
   376   303   304    1
   377   303   378    1
   378   303   379    1
   379   304   305    1
   380   304   380    1
   381   304   381    1
   382   305   306    1
   383   305   382    1
   384   305   383    1
   385   306   307    1
   386   306   384    1
   387   306   385    1
   388   307   308    1
   389   307   386    1
   390   307   387    1
   391   308   309    1
   392   308   388    1
   393   308   389    1
   394   309   310    1
   395   309   390    1
   396   309   391    1
   397   310   392    1
   398   310   393    1
   399   310   394    1
@<TRIPOS>SUBSTRUCTURE
     1 RES1      394 GROUP             0 ****  ****    0  
