@<TRIPOS>MOLECULE
am_c3_9H2O_c0_0_nunpairedes_0_charge_3 Charge: 3 Unpaired_Electrons: 5 XTB_Unpaired_Electrons: 0 XTB_Charge: 3
   124   129     1     0     0
SMALL
NoCharges
****
Generated from Architector

@<TRIPOS>ATOM
     1 Sm1      -0.1202   -0.0906   -0.1102   Sm        1 RES1   0.0000
     2 C1       -2.5350    2.7214   -3.6999   C.3       1 RES1   0.0000
     3 C2       -1.3844    3.5787   -3.1927   C.3       1 RES1   0.0000
     4 N1       -1.4211    3.7575   -1.7414   N.am      1 RES1   0.0000
     5 C3       -1.6855    5.1045   -1.2532   C.3       1 RES1   0.0000
     6 C4       -3.1235    5.5292   -1.4964   C.3       1 RES1   0.0000
     7 C5       -1.2521    2.6981   -0.9664   C.2       1 RES1   0.0000
     8 O1       -0.9076    1.5878   -1.4038   O.2       1 RES1   0.0000
     9 C6       -1.4098    2.8576    0.5533   C.3       1 RES1   0.0000
    10 O2       -1.2910    1.5975    1.1988   O.3       1 RES1   0.0000
    11 C7       -2.4799    1.0913    1.7984   C.3       1 RES1   0.0000
    12 C8       -3.0852   -0.0202    0.9288   C.2       1 RES1   0.0000
    13 O3       -2.4008   -0.4518   -0.0113   O.2       1 RES1   0.0000
    14 N2       -4.2844   -0.4958    1.2148   N.am      1 RES1   0.0000
    15 C9       -5.0985   -0.0697    2.3401   C.3       1 RES1   0.0000
    16 C10      -6.2763    0.7770    1.8849   C.3       1 RES1   0.0000
    17 C11      -4.8613   -1.5008    0.3238   C.3       1 RES1   0.0000
    18 C12      -5.1904   -0.9314   -1.0490   C.3       1 RES1   0.0000
    19 H1       -2.4625    2.6584   -4.7799   H         1 RES1   0.0000
    20 H2       -3.4984    3.1509   -3.4429   H         1 RES1   0.0000
    21 H3       -2.4723    1.7180   -3.2877   H         1 RES1   0.0000
    22 H4       -1.4280    4.5781   -3.6224   H         1 RES1   0.0000
    23 H5       -0.4376    3.1023   -3.4703   H         1 RES1   0.0000
    24 H6       -1.0059    5.7839   -1.7757   H         1 RES1   0.0000
    25 H7       -1.4391    5.1532   -0.1945   H         1 RES1   0.0000
    26 H8       -3.3442    5.5595   -2.5569   H         1 RES1   0.0000
    27 H9       -3.2651    6.5248   -1.0950   H         1 RES1   0.0000
    28 H10      -3.8224    4.8524   -1.0158   H         1 RES1   0.0000
    29 H11      -2.3533    3.3490    0.8006   H         1 RES1   0.0000
    30 H12      -0.5889    3.4739    0.9374   H         1 RES1   0.0000
    31 H13      -3.2020    1.8917    1.9688   H         1 RES1   0.0000
    32 H14      -2.1611    0.6794    2.7618   H         1 RES1   0.0000
    33 H15      -4.4701    0.4718    3.0444   H         1 RES1   0.0000
    34 H16      -5.4605   -0.9689    2.8459   H         1 RES1   0.0000
    35 H17      -5.9460    1.6509    1.3312   H         1 RES1   0.0000
    36 H18      -6.8340    1.0995    2.7551   H         1 RES1   0.0000
    37 H19      -6.9407    0.2000    1.2519   H         1 RES1   0.0000
    38 H20      -5.7578   -1.8709    0.8190   H         1 RES1   0.0000
    39 H21      -4.1443   -2.3213    0.2113   H         1 RES1   0.0000
    40 H22      -5.9097   -0.1217   -0.9823   H         1 RES1   0.0000
    41 H23      -5.6134   -1.7237   -1.6561   H         1 RES1   0.0000
    42 H24      -4.2916   -0.5612   -1.5341   H         1 RES1   0.0000
    43 C13       3.8507   -0.9863    3.4987   C.3       1 RES1   0.0000
    44 C14       2.8124   -0.0631    4.1190   C.3       1 RES1   0.0000
    45 N3        2.6686    1.1799    3.3594   N.am      1 RES1   0.0000
    46 C15       3.1888    2.4106    3.9545   C.3       1 RES1   0.0000
    47 C16       4.5722    2.8069    3.4627   C.3       1 RES1   0.0000
    48 C17       2.0815    1.1165    2.1727   C.2       1 RES1   0.0000
    49 O4        1.5433    0.0904    1.7156   O.2       1 RES1   0.0000
    50 C18       2.0513    2.3608    1.2786   C.3       1 RES1   0.0000
    51 O5        1.4132    1.9982    0.0580   O.3       1 RES1   0.0000
    52 C19       2.0562    2.3913   -1.1491   C.3       1 RES1   0.0000
    53 C20       2.1001    1.1817   -2.0928   C.2       1 RES1   0.0000
    54 O6        1.6173    0.1126   -1.6772   O.2       1 RES1   0.0000
    55 N4        2.6676    1.3083   -3.2843   N.am      1 RES1   0.0000
    56 C21       3.1978    2.5593   -3.8215   C.3       1 RES1   0.0000
    57 C22       4.5878    2.9123   -3.3133   C.3       1 RES1   0.0000
    58 C23       2.7939    0.0994   -4.1013   C.3       1 RES1   0.0000
    59 C24       3.8100   -0.8769   -3.5264   C.3       1 RES1   0.0000
    60 H25       3.9016   -1.9070    4.0690   H         1 RES1   0.0000
    61 H26       4.8373   -0.5348    3.4955   H         1 RES1   0.0000
    62 H27       3.5804   -1.2202    2.4744   H         1 RES1   0.0000
    63 H28       3.1082    0.1973    5.1326   H         1 RES1   0.0000
    64 H29       1.8422   -0.5697    4.1539   H         1 RES1   0.0000
    65 H30       3.2351    2.2438    5.0316   H         1 RES1   0.0000
    66 H31       2.4795    3.2250    3.7836   H         1 RES1   0.0000
    67 H32       5.3048    2.0325    3.6594   H         1 RES1   0.0000
    68 H33       4.8732    3.7054    3.9879   H         1 RES1   0.0000
    69 H34       4.5822    3.0282    2.4025   H         1 RES1   0.0000
    70 H35       3.0715    2.7151    1.1210   H         1 RES1   0.0000
    71 H36       1.4895    3.1744    1.7556   H         1 RES1   0.0000
    72 H37       3.0799    2.7276   -0.9737   H         1 RES1   0.0000
    73 H38       1.4966    3.2263   -1.5891   H         1 RES1   0.0000
    74 H39       2.5009    3.3753   -3.6097   H         1 RES1   0.0000
    75 H40       3.2413    2.4408   -4.9048   H         1 RES1   0.0000
    76 H41       4.6025    3.0825   -2.2437   H         1 RES1   0.0000
    77 H42       4.9007    3.8304   -3.7957   H         1 RES1   0.0000
    78 H43       5.3106    2.1391   -3.5483   H         1 RES1   0.0000
    79 H44       3.1012    0.4055   -5.0984   H         1 RES1   0.0000
    80 H45       1.8133   -0.3847   -4.1654   H         1 RES1   0.0000
    81 H46       4.8066   -0.4491   -3.4980   H         1 RES1   0.0000
    82 H47       3.8408   -1.7661   -4.1461   H         1 RES1   0.0000
    83 H48       3.5327   -1.1615   -2.5169   H         1 RES1   0.0000
    84 C25      -2.7382   -2.9544    3.2560   C.3       1 RES1   0.0000
    85 C26      -1.4372   -2.6219    3.9752   C.3       1 RES1   0.0000
    86 N5       -0.2592   -3.0124    3.2054   N.am      1 RES1   0.0000
    87 C27       0.5294   -4.1298    3.7048   C.3       1 RES1   0.0000
    88 C28      -0.0812   -5.4709    3.3321   C.3       1 RES1   0.0000
    89 C29      -0.0069   -2.3651    2.0779   C.2       1 RES1   0.0000
    90 O7       -0.6541   -1.3647    1.7246   O.2       1 RES1   0.0000
    91 C30       1.1309   -2.8501    1.1755   C.3       1 RES1   0.0000
    92 O8        1.1083   -2.1032   -0.0335   O.3       1 RES1   0.0000
    93 C31       1.0789   -2.8345   -1.2541   C.3       1 RES1   0.0000
    94 C32      -0.1025   -2.3469   -2.1101   C.2       1 RES1   0.0000
    95 O9       -0.7121   -1.3271   -1.7596   O.2       1 RES1   0.0000
    96 N6       -0.4385   -3.0039   -3.2042   N.am      1 RES1   0.0000
    97 C33       0.3182   -4.1154   -3.7438   C.3       1 RES1   0.0000
    98 C34      -0.3258   -5.4442   -3.3923   C.3       1 RES1   0.0000
    99 C35      -1.6689   -2.6047   -3.8845   C.3       1 RES1   0.0000
   100 C36      -2.9092   -2.9015   -3.0521   C.3       1 RES1   0.0000
   101 H49      -3.5679   -2.6131    3.8653   H         1 RES1   0.0000
   102 H50      -2.8477   -4.0219    3.0934   H         1 RES1   0.0000
   103 H51      -2.7799   -2.4525    2.2947   H         1 RES1   0.0000
   104 H52      -1.3871   -3.1513    4.9241   H         1 RES1   0.0000
   105 H53      -1.3931   -1.5439    4.1619   H         1 RES1   0.0000
   106 H54       0.5735   -4.0349    4.7922   H         1 RES1   0.0000
   107 H55       1.5477   -4.0390    3.3276   H         1 RES1   0.0000
   108 H56      -1.0733   -5.5719    3.7572   H         1 RES1   0.0000
   109 H57       0.5395   -6.2619    3.7330   H         1 RES1   0.0000
   110 H58      -0.1505   -5.5944    2.2560   H         1 RES1   0.0000
   111 H59       1.0355   -3.9209    0.9926   H         1 RES1   0.0000
   112 H60       2.0919   -2.6672    1.6717   H         1 RES1   0.0000
   113 H61       1.0008   -3.9082   -1.0764   H         1 RES1   0.0000
   114 H62       2.0173   -2.6303   -1.7849   H         1 RES1   0.0000
   115 H63       1.3389   -4.0486   -3.3686   H         1 RES1   0.0000
   116 H64       0.3520   -3.9834   -4.8273   H         1 RES1   0.0000
   117 H65      -0.3937   -5.5827   -2.3172   H         1 RES1   0.0000
   118 H66       0.2704   -6.2417   -3.8138   H         1 RES1   0.0000
   119 H67      -1.3236   -5.5021   -3.8115   H         1 RES1   0.0000
   120 H68      -1.6937   -3.1530   -4.8223   H         1 RES1   0.0000
   121 H69      -1.6318   -1.5297   -4.0872   H         1 RES1   0.0000
   122 H70      -3.0092   -3.9607   -2.8371   H         1 RES1   0.0000
   123 H71      -3.7831   -2.5787   -3.6076   H         1 RES1   0.0000
   124 H72      -2.8723   -2.3539   -2.1153   H         1 RES1   0.0000
@<TRIPOS>BOND
     1     1     8    1
     2     1    10    1
     3     1    13    1
     4     1    49    1
     5     1    51    1
     6     1    54    1
     7     1    90    1
     8     1    92    1
     9     1    95    1
    10     2     3    1
    11     2    19    1
    12     2    20    1
    13     2    21    1
    14     3     4    1
    15     3    22    1
    16     3    23    1
    17     4     5    1
    18     4     7    1
    19     5     6    1
    20     5    24    1
    21     5    25    1
    22     6    26    1
    23     6    27    1
    24     6    28    1
    25     7     8    2
    26     7     9    1
    27     9    10    1
    28     9    29    1
    29     9    30    1
    30    10    11    1
    31    11    12    1
    32    11    31    1
    33    11    32    1
    34    12    13    2
    35    12    14    1
    36    14    15    1
    37    14    17    1
    38    15    16    1
    39    15    33    1
    40    15    34    1
    41    16    35    1
    42    16    36    1
    43    16    37    1
    44    17    18    1
    45    17    38    1
    46    17    39    1
    47    18    40    1
    48    18    41    1
    49    18    42    1
    50    43    44    1
    51    43    60    1
    52    43    61    1
    53    43    62    1
    54    44    45    1
    55    44    63    1
    56    44    64    1
    57    45    46    1
    58    45    48    1
    59    46    47    1
    60    46    65    1
    61    46    66    1
    62    47    67    1
    63    47    68    1
    64    47    69    1
    65    48    49    2
    66    48    50    1
    67    50    51    1
    68    50    70    1
    69    50    71    1
    70    51    52    1
    71    52    53    1
    72    52    72    1
    73    52    73    1
    74    53    54    2
    75    53    55    1
    76    55    56    1
    77    55    58    1
    78    56    57    1
    79    56    74    1
    80    56    75    1
    81    57    76    1
    82    57    77    1
    83    57    78    1
    84    58    59    1
    85    58    79    1
    86    58    80    1
    87    59    81    1
    88    59    82    1
    89    59    83    1
    90    84    85    1
    91    84   101    1
    92    84   102    1
    93    84   103    1
    94    85    86    1
    95    85   104    1
    96    85   105    1
    97    86    87    1
    98    86    89    1
    99    87    88    1
   100    87   106    1
   101    87   107    1
   102    88   108    1
   103    88   109    1
   104    88   110    1
   105    89    90    2
   106    89    91    1
   107    91    92    1
   108    91   111    1
   109    91   112    1
   110    92    93    1
   111    93    94    1
   112    93   113    1
   113    93   114    1
   114    94    95    2
   115    94    96    1
   116    96    97    1
   117    96    99    1
   118    97    98    1
   119    97   115    1
   120    97   116    1
   121    98   117    1
   122    98   118    1
   123    98   119    1
   124    99   100    1
   125    99   120    1
   126    99   121    1
   127   100   122    1
   128   100   123    1
   129   100   124    1
@<TRIPOS>SUBSTRUCTURE
     1 RES1      124 GROUP             0 ****  ****    0  
