@<TRIPOS>MOLECULE
tri_tri_mer_capped_0_nunpairedes_0_charge_3 Charge: 3 Unpaired_Electrons: 5 XTB_Unpaired_Electrons: 0 XTB_Charge: 3
   340   345     1     0     0
SMALL
NoCharges
****
Generated from Architector

@<TRIPOS>ATOM
     1 Sm1      -0.3316    0.2260   -0.2778   Sm        1 RES1   0.0000
     2 C1       -0.6947    3.7331   -6.7257   C.3       1 RES1   0.0000
     3 C2       -1.6138    3.0159   -7.7047   C.3       1 RES1   0.0000
     4 C3       -2.8627    2.4106   -7.0644   C.3       1 RES1   0.0000
     5 C4       -3.7883    3.4302   -6.3960   C.3       1 RES1   0.0000
     6 C5       -3.5677    3.7112   -4.8995   C.3       1 RES1   0.0000
     7 C6       -4.4127    4.9338   -4.5078   C.3       1 RES1   0.0000
     8 C7       -3.7932    6.2600   -4.9242   C.3       1 RES1   0.0000
     9 C8       -4.0302    2.4830   -4.0848   C.3       1 RES1   0.0000
    10 N1       -3.5447    2.4072   -2.7049   N.am      1 RES1   0.0000
    11 C9       -4.5463    2.7542   -1.6758   C.3       1 RES1   0.0000
    12 C10      -4.2213    3.5903   -0.4218   C.3       1 RES1   0.0000
    13 C11      -5.5392    3.5847    0.3824   C.3       1 RES1   0.0000
    14 C12      -5.4293    4.0662    1.8220   C.3       1 RES1   0.0000
    15 C13      -3.8001    5.0331   -0.7109   C.3       1 RES1   0.0000
    16 C14      -2.4916    5.1556   -1.4844   C.3       1 RES1   0.0000
    17 C15      -1.2669    4.7087   -0.6834   C.3       1 RES1   0.0000
    18 C16      -0.1490    4.1909   -1.5920   C.3       1 RES1   0.0000
    19 C17      -2.3985    1.8124   -2.3628   C.2       1 RES1   0.0000
    20 O1       -1.9731    1.7676   -1.1967   O.2       1 RES1   0.0000
    21 C18      -1.5608    1.1292   -3.4576   C.3       1 RES1   0.0000
    22 O2       -0.6611    0.2159   -2.8274   O.3       1 RES1   0.0000
    23 C19      -0.3754   -0.9337   -3.6230   C.3       1 RES1   0.0000
    24 C20       0.3278   -1.9726   -2.7470   C.2       1 RES1   0.0000
    25 O3        0.4361   -1.7262   -1.5269   O.2       1 RES1   0.0000
    26 N2        0.7760   -3.0933   -3.3128   N.am      1 RES1   0.0000
    27 C21       1.6284   -3.9598   -2.4683   C.3       1 RES1   0.0000
    28 C22       0.9781   -4.9588   -1.4866   C.3       1 RES1   0.0000
    29 C23       0.2970   -6.1681   -2.1378   C.3       1 RES1   0.0000
    30 C24      -0.5150   -7.0155   -1.1549   C.3       1 RES1   0.0000
    31 C25       2.0767   -5.4942   -0.5563   C.3       1 RES1   0.0000
    32 C26       2.6975   -4.4582    0.3857   C.3       1 RES1   0.0000
    33 C27       4.0567   -3.8951   -0.0668   C.3       1 RES1   0.0000
    34 C28       5.1036   -3.9161    1.0437   C.3       1 RES1   0.0000
    35 C29       0.9134   -3.2322   -4.7722   C.3       1 RES1   0.0000
    36 C30      -0.2852   -3.6265   -5.6633   C.3       1 RES1   0.0000
    37 C31      -0.9540   -4.9171   -5.1744   C.3       1 RES1   0.0000
    38 C32      -2.0584   -5.4550   -6.0847   C.3       1 RES1   0.0000
    39 C33       0.2066   -3.8295   -7.1083   C.3       1 RES1   0.0000
    40 C34       0.8602   -2.6450   -7.8334   C.3       1 RES1   0.0000
    41 C35       2.3767   -2.5275   -7.6702   C.3       1 RES1   0.0000
    42 C36       3.0168   -1.7579   -8.8190   C.3       1 RES1   0.0000
    43 H1        0.2190    4.0423   -7.2289   H         1 RES1   0.0000
    44 H2       -0.4190    3.0725   -5.9010   H         1 RES1   0.0000
    45 H3       -1.1689    4.6230   -6.3224   H         1 RES1   0.0000
    46 H4       -1.0595    2.2084   -8.1865   H         1 RES1   0.0000
    47 H5       -1.9156    3.7141   -8.4839   H         1 RES1   0.0000
    48 H6       -2.5602    1.6394   -6.3525   H         1 RES1   0.0000
    49 H7       -3.4247    1.9107   -7.8536   H         1 RES1   0.0000
    50 H8       -4.8211    3.0962   -6.5042   H         1 RES1   0.0000
    51 H9       -3.7059    4.3678   -6.9428   H         1 RES1   0.0000
    52 H10      -2.5107    3.9056   -4.6912   H         1 RES1   0.0000
    53 H11      -4.5647    4.9533   -3.4301   H         1 RES1   0.0000
    54 H12      -5.3951    4.8319   -4.9718   H         1 RES1   0.0000
    55 H13      -2.8279    6.3996   -4.4427   H         1 RES1   0.0000
    56 H14      -4.4465    7.0798   -4.6339   H         1 RES1   0.0000
    57 H15      -3.6492    6.3151   -5.9991   H         1 RES1   0.0000
    58 H16      -3.7372    1.5839   -4.6195   H         1 RES1   0.0000
    59 H17      -5.1202    2.4961   -4.0645   H         1 RES1   0.0000
    60 H18      -4.9258    1.8017   -1.2908   H         1 RES1   0.0000
    61 H19      -5.3666    3.2536   -2.1938   H         1 RES1   0.0000
    62 H20      -3.4329    3.0795    0.1398   H         1 RES1   0.0000
    63 H21      -5.9518    2.5722    0.4001   H         1 RES1   0.0000
    64 H22      -6.2556    4.2179   -0.1449   H         1 RES1   0.0000
    65 H23      -4.7099    3.4693    2.3825   H         1 RES1   0.0000
    66 H24      -6.3966    3.9693    2.3084   H         1 RES1   0.0000
    67 H25      -5.1419    5.1125    1.8825   H         1 RES1   0.0000
    68 H26      -3.7056    5.5623    0.2365   H         1 RES1   0.0000
    69 H27      -4.5978    5.5183   -1.2786   H         1 RES1   0.0000
    70 H28      -2.3723    6.1899   -1.8072   H         1 RES1   0.0000
    71 H29      -2.5652    4.5514   -2.3852   H         1 RES1   0.0000
    72 H30      -1.5484    3.9054   -0.0001   H         1 RES1   0.0000
    73 H31      -0.9089    5.5402   -0.0777   H         1 RES1   0.0000
    74 H32      -0.5410    3.9291   -2.5722   H         1 RES1   0.0000
    75 H33       0.3115    3.2974   -1.1676   H         1 RES1   0.0000
    76 H34       0.6200    4.9408   -1.7448   H         1 RES1   0.0000
    77 H35      -1.0059    1.8838   -4.0357   H         1 RES1   0.0000
    78 H36      -2.2065    0.5765   -4.1456   H         1 RES1   0.0000
    79 H37       0.2502   -0.6566   -4.4885   H         1 RES1   0.0000
    80 H38      -1.3078   -1.3857   -3.9878   H         1 RES1   0.0000
    81 H39       2.2358   -3.2780   -1.8597   H         1 RES1   0.0000
    82 H40       2.3085   -4.5131   -3.1253   H         1 RES1   0.0000
    83 H41       0.2451   -4.4202   -0.8869   H         1 RES1   0.0000
    84 H42       1.0577   -6.8000   -2.6006   H         1 RES1   0.0000
    85 H43      -0.3789   -5.8373   -2.9208   H         1 RES1   0.0000
    86 H44       0.1136   -7.5319   -0.4337   H         1 RES1   0.0000
    87 H45      -1.0647   -7.7775   -1.7037   H         1 RES1   0.0000
    88 H46      -1.2352   -6.4109   -0.6062   H         1 RES1   0.0000
    89 H47       2.8474   -5.9852   -1.1527   H         1 RES1   0.0000
    90 H48       1.6263   -6.2690    0.0571   H         1 RES1   0.0000
    91 H49       2.8306   -4.9239    1.3625   H         1 RES1   0.0000
    92 H50       1.9703   -3.6515    0.5157   H         1 RES1   0.0000
    93 H51       3.9344   -2.8674   -0.4261   H         1 RES1   0.0000
    94 H52       4.4380   -4.4864   -0.9020   H         1 RES1   0.0000
    95 H53       4.7395   -3.4317    1.9501   H         1 RES1   0.0000
    96 H54       6.0030   -3.3993    0.7182   H         1 RES1   0.0000
    97 H55       5.3697   -4.9416    1.2890   H         1 RES1   0.0000
    98 H56       1.6800   -3.9874   -4.9375   H         1 RES1   0.0000
    99 H57       1.3060   -2.2876   -5.1540   H         1 RES1   0.0000
   100 H58      -1.0367   -2.8306   -5.6729   H         1 RES1   0.0000
   101 H59      -1.3893   -4.7219   -4.1904   H         1 RES1   0.0000
   102 H60      -0.1934   -5.6927   -5.0739   H         1 RES1   0.0000
   103 H61      -2.7713   -4.6763   -6.3487   H         1 RES1   0.0000
   104 H62      -2.5970   -6.2525   -5.5771   H         1 RES1   0.0000
   105 H63      -1.6538   -5.8729   -7.0028   H         1 RES1   0.0000
   106 H64      -0.6747   -4.0996   -7.6841   H         1 RES1   0.0000
   107 H65       0.8877   -4.6817   -7.1370   H         1 RES1   0.0000
   108 H66       0.3765   -1.7103   -7.5389   H         1 RES1   0.0000
   109 H67       0.6696   -2.7825   -8.8995   H         1 RES1   0.0000
   110 H68       2.8142   -3.5257   -7.6381   H         1 RES1   0.0000
   111 H69       2.6336   -2.0266   -6.7353   H         1 RES1   0.0000
   112 H70       2.8754   -2.2818   -9.7594   H         1 RES1   0.0000
   113 H71       4.0853   -1.6502   -8.6496   H         1 RES1   0.0000
   114 H72       2.5808   -0.7676   -8.9187   H         1 RES1   0.0000
   115 C37      -6.2910   -0.1051    3.8251   C.3       1 RES1   0.0000
   116 C38      -7.8017   -0.1219    3.6171   C.3       1 RES1   0.0000
   117 C39      -8.2641    0.3842    2.2469   C.3       1 RES1   0.0000
   118 C40      -8.3935   -0.6944    1.1671   C.3       1 RES1   0.0000
   119 C41      -7.1256   -1.3463    0.5882   C.3       1 RES1   0.0000
   120 C42      -7.5434   -2.3565   -0.4931   C.3       1 RES1   0.0000
   121 C43      -8.5426   -3.4130   -0.0276   C.3       1 RES1   0.0000
   122 C44      -6.2093   -0.2271    0.0461   C.3       1 RES1   0.0000
   123 N3       -4.9681   -0.6024   -0.6407   N.am      1 RES1   0.0000
   124 C45      -5.2094   -0.7660   -2.0869   C.3       1 RES1   0.0000
   125 C46      -4.3599   -1.6777   -2.9791   C.3       1 RES1   0.0000
   126 C47      -4.8210   -1.3715   -4.4212   C.3       1 RES1   0.0000
   127 C48      -3.8082   -1.7896   -5.4770   C.3       1 RES1   0.0000
   128 C49      -4.5408   -3.1752   -2.6931   C.3       1 RES1   0.0000
   129 C50      -3.9956   -3.6616   -1.3483   C.3       1 RES1   0.0000
   130 C51      -2.4688   -3.5896   -1.2723   C.3       1 RES1   0.0000
   131 C52      -1.9542   -3.4762    0.1588   C.3       1 RES1   0.0000
   132 C53      -3.7353   -0.4367   -0.1465   C.2       1 RES1   0.0000
   133 O4       -2.7033   -0.6263   -0.8083   O.2       1 RES1   0.0000
   134 C54      -3.5302   -0.0100    1.3244   C.3       1 RES1   0.0000
   135 O5       -2.2713    0.6593    1.3744   O.3       1 RES1   0.0000
   136 C55      -2.1233    1.5321    2.4846   C.3       1 RES1   0.0000
   137 C56      -0.7653    2.2452    2.3562   C.2       1 RES1   0.0000
   138 O6        0.0096    1.8455    1.4645   O.2       1 RES1   0.0000
   139 N4       -0.5015    3.2415    3.1995   N.am      1 RES1   0.0000
   140 C57       0.8118    3.9164    3.2472   C.3       1 RES1   0.0000
   141 C58       1.5013    4.4115    1.9558   C.3       1 RES1   0.0000
   142 C59       1.3791    5.9433    1.8378   C.3       1 RES1   0.0000
   143 C60       2.0106    6.5509    0.5876   C.3       1 RES1   0.0000
   144 C61       2.9930    4.0511    2.0007   C.3       1 RES1   0.0000
   145 C62       3.3045    2.5648    2.2087   C.3       1 RES1   0.0000
   146 C63       3.6622    2.2034    3.6668   C.3       1 RES1   0.0000
   147 C64       5.0227    1.5275    3.8113   C.3       1 RES1   0.0000
   148 C65      -1.3134    3.4929    4.3986   C.3       1 RES1   0.0000
   149 C66      -2.4343    4.5428    4.2914   C.3       1 RES1   0.0000
   150 C67      -1.9037    5.8942    3.7853   C.3       1 RES1   0.0000
   151 C68      -2.9712    6.9808    3.6638   C.3       1 RES1   0.0000
   152 C69      -3.1054    4.7007    5.6648   C.3       1 RES1   0.0000
   153 C70      -3.9487    3.5331    6.1894   C.3       1 RES1   0.0000
   154 C71      -3.1937    2.3597    6.8224   C.3       1 RES1   0.0000
   155 C72      -4.0407    1.6509    7.8756   C.3       1 RES1   0.0000
   156 H73      -6.0601   -0.3459    4.8604   H         1 RES1   0.0000
   157 H74      -5.8946    0.8878    3.6128   H         1 RES1   0.0000
   158 H75      -5.7911   -0.8321    3.1876   H         1 RES1   0.0000
   159 H76      -8.2496    0.5107    4.3850   H         1 RES1   0.0000
   160 H77      -8.1766   -1.1335    3.7756   H         1 RES1   0.0000
   161 H78      -7.6327    1.2157    1.9283   H         1 RES1   0.0000
   162 H79      -9.2683    0.7952    2.3677   H         1 RES1   0.0000
   163 H80      -8.9625   -0.2736    0.3348   H         1 RES1   0.0000
   164 H81      -8.9991   -1.4913    1.5960   H         1 RES1   0.0000
   165 H82      -6.5995   -1.8894    1.3781   H         1 RES1   0.0000
   166 H83      -6.6544   -2.8766   -0.8487   H         1 RES1   0.0000
   167 H84      -7.9933   -1.8230   -1.3348   H         1 RES1   0.0000
   168 H85      -8.2017   -3.8876    0.8882   H         1 RES1   0.0000
   169 H86      -8.6411   -4.1774   -0.7950   H         1 RES1   0.0000
   170 H87      -9.5270   -2.9882    0.1405   H         1 RES1   0.0000
   171 H88      -5.9704    0.4148    0.8888   H         1 RES1   0.0000
   172 H89      -6.8006    0.3679   -0.6583   H         1 RES1   0.0000
   173 H90      -5.1560    0.2376   -2.5276   H         1 RES1   0.0000
   174 H91      -6.2382   -1.1044   -2.1854   H         1 RES1   0.0000
   175 H92      -3.3051   -1.4125   -2.8753   H         1 RES1   0.0000
   176 H93      -5.0124   -0.3013   -4.5355   H         1 RES1   0.0000
   177 H94      -5.7667   -1.8835   -4.6033   H         1 RES1   0.0000
   178 H95      -2.8777   -1.2289   -5.3677   H         1 RES1   0.0000
   179 H96      -4.1992   -1.5904   -6.4704   H         1 RES1   0.0000
   180 H97      -3.5873   -2.8514   -5.4047   H         1 RES1   0.0000
   181 H98      -4.0514   -3.7379   -3.4889   H         1 RES1   0.0000
   182 H99      -5.6068   -3.4072   -2.7521   H         1 RES1   0.0000
   183 H100     -4.3285   -4.6890   -1.1924   H         1 RES1   0.0000
   184 H101     -4.4261   -3.0629   -0.5456   H         1 RES1   0.0000
   185 H102     -2.1267   -2.7072   -1.8153   H         1 RES1   0.0000
   186 H103     -2.0378   -4.4642   -1.7572   H         1 RES1   0.0000
   187 H104     -2.6007   -2.8153    0.7298   H         1 RES1   0.0000
   188 H105     -0.9518   -3.0388    0.1771   H         1 RES1   0.0000
   189 H106     -1.9298   -4.4427    0.6562   H         1 RES1   0.0000
   190 H107     -3.5086   -0.9037    1.9637   H         1 RES1   0.0000
   191 H108     -4.3116    0.6614    1.6892   H         1 RES1   0.0000
   192 H109     -2.1492    0.9573    3.4231   H         1 RES1   0.0000
   193 H110     -2.9296    2.2732    2.4984   H         1 RES1   0.0000
   194 H111      1.4877    3.2302    3.7586   H         1 RES1   0.0000
   195 H112      0.6707    4.7798    3.8959   H         1 RES1   0.0000
   196 H113      1.0489    3.9408    1.0830   H         1 RES1   0.0000
   197 H114      1.8620    6.3933    2.7084   H         1 RES1   0.0000
   198 H115      0.3246    6.2273    1.8656   H         1 RES1   0.0000
   199 H116      3.0846    6.3924    0.5551   H         1 RES1   0.0000
   200 H117      1.8456    7.6249    0.5930   H         1 RES1   0.0000
   201 H118      1.5687    6.1449   -0.3195   H         1 RES1   0.0000
   202 H119      3.4620    4.6418    2.7908   H         1 RES1   0.0000
   203 H120      3.4398    4.3768    1.0632   H         1 RES1   0.0000
   204 H121      4.1516    2.3054    1.5709   H         1 RES1   0.0000
   205 H122      2.4483    1.9841    1.8536   H         1 RES1   0.0000
   206 H123      2.8945    1.5547    4.1022   H         1 RES1   0.0000
   207 H124      3.7021    3.1190    4.2600   H         1 RES1   0.0000
   208 H125      5.0408    0.5429    3.3386   H         1 RES1   0.0000
   209 H126      5.2580    1.3950    4.8671   H         1 RES1   0.0000
   210 H127      5.7998    2.1435    3.3647   H         1 RES1   0.0000
   211 H128     -0.6294    3.8160    5.1864   H         1 RES1   0.0000
   212 H129     -1.7583    2.5589    4.7358   H         1 RES1   0.0000
   213 H130     -3.1850    4.2012    3.5736   H         1 RES1   0.0000
   214 H131     -1.4632    5.7352    2.7986   H         1 RES1   0.0000
   215 H132     -1.1220    6.2556    4.4537   H         1 RES1   0.0000
   216 H133     -3.8718    6.5872    3.2006   H         1 RES1   0.0000
   217 H134     -2.6060    7.8034    3.0532   H         1 RES1   0.0000
   218 H135     -3.2366    7.3924    4.6323   H         1 RES1   0.0000
   219 H136     -3.7818    5.5498    5.5857   H         1 RES1   0.0000
   220 H137     -2.3470    4.9606    6.4058   H         1 RES1   0.0000
   221 H138     -4.6003    3.1663    5.3949   H         1 RES1   0.0000
   222 H139     -4.5870    3.9482    6.9700   H         1 RES1   0.0000
   223 H140     -2.2804    2.7235    7.2976   H         1 RES1   0.0000
   224 H141     -2.9144    1.6194    6.0663   H         1 RES1   0.0000
   225 H142     -4.2660    2.3219    8.6992   H         1 RES1   0.0000
   226 H143     -3.5070    0.7920    8.2760   H         1 RES1   0.0000
   227 H144     -4.9832    1.3096    7.4528   H         1 RES1   0.0000
   228 C73       3.2979   -7.3047    3.5332   C.3       1 RES1   0.0000
   229 C74       1.8915   -6.8126    3.8486   C.3       1 RES1   0.0000
   230 C75       1.8808   -5.6797    4.8766   C.3       1 RES1   0.0000
   231 C76       2.4679   -4.3698    4.3316   C.3       1 RES1   0.0000
   232 C77       2.3451   -3.1698    5.2913   C.3       1 RES1   0.0000
   233 C78       3.5987   -2.9828    6.1661   C.3       1 RES1   0.0000
   234 C79       3.8905   -4.1657    7.0805   C.3       1 RES1   0.0000
   235 C80       2.1364   -1.8428    4.5222   C.3       1 RES1   0.0000
   236 N5        0.9372   -1.6991    3.6922   N.am      1 RES1   0.0000
   237 C81      -0.3469   -1.7164    4.4061   C.3       1 RES1   0.0000
   238 C82      -0.8671   -3.1329    4.7246   C.3       1 RES1   0.0000
   239 C83      -1.2739   -3.3242    6.2000   C.3       1 RES1   0.0000
   240 C84      -2.1234   -2.2219    6.8283   C.3       1 RES1   0.0000
   241 C85      -1.9304   -3.6172    3.7183   C.3       1 RES1   0.0000
   242 C86      -3.3994   -3.3387    4.0371   C.3       1 RES1   0.0000
   243 C87      -4.3248   -4.0155    3.0204   C.3       1 RES1   0.0000
   244 C88      -5.7614   -4.1238    3.5218   C.3       1 RES1   0.0000
   245 C89       0.9669   -1.3145    2.4174   C.2       1 RES1   0.0000
   246 O7       -0.0611   -1.1036    1.7426   O.2       1 RES1   0.0000
   247 C90       2.3299   -1.0967    1.7490   C.3       1 RES1   0.0000
   248 O8        2.1134   -0.4786    0.4910   O.3       1 RES1   0.0000
   249 C91       3.3172   -0.0789   -0.1441   C.3       1 RES1   0.0000
   250 C92       2.9819    1.1407   -1.0042   C.2       1 RES1   0.0000
   251 O9        1.7741    1.4312   -1.1527   O.2       1 RES1   0.0000
   252 N6        3.9916    1.8252   -1.5313   N.am      1 RES1   0.0000
   253 C93       3.7221    3.0772   -2.2359   C.3       1 RES1   0.0000
   254 C94       3.3861    2.9766   -3.7448   C.3       1 RES1   0.0000
   255 C95       3.5065    4.3720   -4.3720   C.3       1 RES1   0.0000
   256 C96       2.5266    5.4186   -3.8641   C.3       1 RES1   0.0000
   257 C97       4.3114    1.9992   -4.4892   C.3       1 RES1   0.0000
   258 C98       4.1303    1.9387   -6.0096   C.3       1 RES1   0.0000
   259 C99       2.7238    1.5940   -6.4963   C.3       1 RES1   0.0000
   260 C100      2.5876    1.9323   -7.9775   C.3       1 RES1   0.0000
   261 C101      5.3725    1.3458   -1.5684   C.3       1 RES1   0.0000
   262 C102      6.3767    1.7026   -0.4400   C.3       1 RES1   0.0000
   263 C103      7.7108    1.1242   -0.9539   C.3       1 RES1   0.0000
   264 C104      8.8599    1.0224    0.0422   C.3       1 RES1   0.0000
   265 C105      6.4307    3.2135   -0.1638   C.3       1 RES1   0.0000
   266 C106      7.3042    3.6015    1.0419   C.3       1 RES1   0.0000
   267 C107      6.7549    4.7901    1.8372   C.3       1 RES1   0.0000
   268 C108      7.5947    5.0711    3.0795   C.3       1 RES1   0.0000
   269 H145      3.2619   -8.2030    2.9236   H         1 RES1   0.0000
   270 H146      3.8217   -7.5481    4.4535   H         1 RES1   0.0000
   271 H147      3.8757   -6.5546    2.9985   H         1 RES1   0.0000
   272 H148      1.3157   -7.6449    4.2549   H         1 RES1   0.0000
   273 H149      1.3908   -6.4909    2.9304   H         1 RES1   0.0000
   274 H150      2.4379   -6.0077    5.7523   H         1 RES1   0.0000
   275 H151      0.8508   -5.5128    5.1995   H         1 RES1   0.0000
   276 H152      1.9455   -4.1331    3.3983   H         1 RES1   0.0000
   277 H153      3.5216   -4.5237    4.0919   H         1 RES1   0.0000
   278 H154      1.5107   -3.3332    5.9747   H         1 RES1   0.0000
   279 H155      3.4563   -2.0960    6.7852   H         1 RES1   0.0000
   280 H156      4.4686   -2.7987    5.5329   H         1 RES1   0.0000
   281 H157      3.0163   -4.4238    7.6724   H         1 RES1   0.0000
   282 H158      4.6929   -3.9127    7.7678   H         1 RES1   0.0000
   283 H159      4.2008   -5.0319    6.5050   H         1 RES1   0.0000
   284 H160      3.0205   -1.7151    3.9030   H         1 RES1   0.0000
   285 H161      2.1182   -1.0308    5.2588   H         1 RES1   0.0000
   286 H162     -1.0689   -1.1944    3.7784   H         1 RES1   0.0000
   287 H163     -0.2005   -1.1520    5.3272   H         1 RES1   0.0000
   288 H164     -0.0243   -3.8006    4.5544   H         1 RES1   0.0000
   289 H165     -0.3719   -3.4221    6.8071   H         1 RES1   0.0000
   290 H166     -1.7992   -4.2784    6.2756   H         1 RES1   0.0000
   291 H167     -1.5463   -1.3094    6.9747   H         1 RES1   0.0000
   292 H168     -2.4657   -2.5506    7.8066   H         1 RES1   0.0000
   293 H169     -2.9955   -1.9853    6.2280   H         1 RES1   0.0000
   294 H170     -1.8304   -4.7033    3.6373   H         1 RES1   0.0000
   295 H171     -1.6775   -3.1953    2.7442   H         1 RES1   0.0000
   296 H172     -3.5985   -2.2627    4.0611   H         1 RES1   0.0000
   297 H173     -3.6367   -3.7497    5.0168   H         1 RES1   0.0000
   298 H174     -3.9532   -5.0238    2.8235   H         1 RES1   0.0000
   299 H175     -4.3106   -3.4680    2.0725   H         1 RES1   0.0000
   300 H176     -6.1730   -3.1463    3.7638   H         1 RES1   0.0000
   301 H177     -5.8038   -4.7415    4.4170   H         1 RES1   0.0000
   302 H178     -6.3899   -4.5831    2.7604   H         1 RES1   0.0000
   303 H179      2.8296   -2.0663    1.6216   H         1 RES1   0.0000
   304 H180      2.9482   -0.4347    2.3699   H         1 RES1   0.0000
   305 H181      3.6991   -0.8889   -0.7856   H         1 RES1   0.0000
   306 H182      4.0886    0.1765    0.5860   H         1 RES1   0.0000
   307 H183      4.6025    3.7112   -2.1157   H         1 RES1   0.0000
   308 H184      2.8752    3.5327   -1.7217   H         1 RES1   0.0000
   309 H185      2.3526    2.6204   -3.8298   H         1 RES1   0.0000
   310 H186      3.3508    4.2811   -5.4448   H         1 RES1   0.0000
   311 H187      4.5226    4.7316   -4.2119   H         1 RES1   0.0000
   312 H188      1.4998    5.0855   -4.0011   H         1 RES1   0.0000
   313 H189      2.6644    6.3340   -4.4342   H         1 RES1   0.0000
   314 H190      2.6929    5.6586   -2.8171   H         1 RES1   0.0000
   315 H191      4.1867    0.9915   -4.0779   H         1 RES1   0.0000
   316 H192      5.3449    2.3107   -4.3249   H         1 RES1   0.0000
   317 H193      4.8292    1.1985   -6.4038   H         1 RES1   0.0000
   318 H194      4.4218    2.8927   -6.4452   H         1 RES1   0.0000
   319 H195      1.9762    2.1606   -5.9364   H         1 RES1   0.0000
   320 H196      2.5252    0.5287   -6.3365   H         1 RES1   0.0000
   321 H197      2.7169    3.0018   -8.1328   H         1 RES1   0.0000
   322 H198      1.6094    1.6492   -8.3608   H         1 RES1   0.0000
   323 H199      3.3516    1.4167   -8.5550   H         1 RES1   0.0000
   324 H200      5.8105    1.7582   -2.4760   H         1 RES1   0.0000
   325 H201      5.3577    0.2587   -1.6805   H         1 RES1   0.0000
   326 H202      6.1060    1.1959    0.4915   H         1 RES1   0.0000
   327 H203      8.0384    1.7268   -1.8023   H         1 RES1   0.0000
   328 H204      7.5080    0.1170   -1.3309   H         1 RES1   0.0000
   329 H205      9.2920    1.9922    0.2597   H         1 RES1   0.0000
   330 H206      9.6449    0.4083   -0.3940   H         1 RES1   0.0000
   331 H207      8.5423    0.5621    0.9750   H         1 RES1   0.0000
   332 H208      5.4137    3.5668    0.0286   H         1 RES1   0.0000
   333 H209      6.7968    3.7300   -1.0523   H         1 RES1   0.0000
   334 H210      8.3090    3.8482    0.7038   H         1 RES1   0.0000
   335 H211      7.3876    2.7517    1.7209   H         1 RES1   0.0000
   336 H212      5.7334    4.5687    2.1548   H         1 RES1   0.0000
   337 H213      6.7293    5.6804    1.2054   H         1 RES1   0.0000
   338 H214      7.6209    4.1967    3.7276   H         1 RES1   0.0000
   339 H215      7.1768    5.8989    3.6510   H         1 RES1   0.0000
   340 H216      8.6117    5.3292    2.8070   H         1 RES1   0.0000
@<TRIPOS>BOND
     1     1    20    1
     2     1    22    1
     3     1    25    1
     4     1   133    1
     5     1   135    1
     6     1   138    1
     7     1   246    1
     8     1   248    1
     9     1   251    1
    10     2     3    1
    11     2    43    1
    12     2    44    1
    13     2    45    1
    14     3     4    1
    15     3    46    1
    16     3    47    1
    17     4     5    1
    18     4    48    1
    19     4    49    1
    20     5     6    1
    21     5    50    1
    22     5    51    1
    23     6     7    1
    24     6     9    1
    25     6    52    1
    26     7     8    1
    27     7    53    1
    28     7    54    1
    29     8    55    1
    30     8    56    1
    31     8    57    1
    32     9    10    1
    33     9    58    1
    34     9    59    1
    35    10    11    1
    36    10    19    1
    37    11    12    1
    38    11    60    1
    39    11    61    1
    40    12    13    1
    41    12    15    1
    42    12    62    1
    43    13    14    1
    44    13    63    1
    45    13    64    1
    46    14    65    1
    47    14    66    1
    48    14    67    1
    49    15    16    1
    50    15    68    1
    51    15    69    1
    52    16    17    1
    53    16    70    1
    54    16    71    1
    55    17    18    1
    56    17    72    1
    57    17    73    1
    58    18    74    1
    59    18    75    1
    60    18    76    1
    61    19    20    2
    62    19    21    1
    63    21    22    1
    64    21    77    1
    65    21    78    1
    66    22    23    1
    67    23    24    1
    68    23    79    1
    69    23    80    1
    70    24    25    2
    71    24    26    1
    72    26    27    1
    73    26    35    1
    74    27    28    1
    75    27    81    1
    76    27    82    1
    77    28    29    1
    78    28    31    1
    79    28    83    1
    80    29    30    1
    81    29    84    1
    82    29    85    1
    83    30    86    1
    84    30    87    1
    85    30    88    1
    86    31    32    1
    87    31    89    1
    88    31    90    1
    89    32    33    1
    90    32    91    1
    91    32    92    1
    92    33    34    1
    93    33    93    1
    94    33    94    1
    95    34    95    1
    96    34    96    1
    97    34    97    1
    98    35    36    1
    99    35    98    1
   100    35    99    1
   101    36    37    1
   102    36    39    1
   103    36   100    1
   104    37    38    1
   105    37   101    1
   106    37   102    1
   107    38   103    1
   108    38   104    1
   109    38   105    1
   110    39    40    1
   111    39   106    1
   112    39   107    1
   113    40    41    1
   114    40   108    1
   115    40   109    1
   116    41    42    1
   117    41   110    1
   118    41   111    1
   119    42   112    1
   120    42   113    1
   121    42   114    1
   122   115   116    1
   123   115   156    1
   124   115   157    1
   125   115   158    1
   126   116   117    1
   127   116   159    1
   128   116   160    1
   129   117   118    1
   130   117   161    1
   131   117   162    1
   132   118   119    1
   133   118   163    1
   134   118   164    1
   135   119   120    1
   136   119   122    1
   137   119   165    1
   138   120   121    1
   139   120   166    1
   140   120   167    1
   141   121   168    1
   142   121   169    1
   143   121   170    1
   144   122   123    1
   145   122   171    1
   146   122   172    1
   147   123   124    1
   148   123   132    1
   149   124   125    1
   150   124   173    1
   151   124   174    1
   152   125   126    1
   153   125   128    1
   154   125   175    1
   155   126   127    1
   156   126   176    1
   157   126   177    1
   158   127   178    1
   159   127   179    1
   160   127   180    1
   161   128   129    1
   162   128   181    1
   163   128   182    1
   164   129   130    1
   165   129   183    1
   166   129   184    1
   167   130   131    1
   168   130   185    1
   169   130   186    1
   170   131   187    1
   171   131   188    1
   172   131   189    1
   173   132   133    2
   174   132   134    1
   175   134   135    1
   176   134   190    1
   177   134   191    1
   178   135   136    1
   179   136   137    1
   180   136   192    1
   181   136   193    1
   182   137   138    2
   183   137   139    1
   184   139   140    1
   185   139   148    1
   186   140   141    1
   187   140   194    1
   188   140   195    1
   189   141   142    1
   190   141   144    1
   191   141   196    1
   192   142   143    1
   193   142   197    1
   194   142   198    1
   195   143   199    1
   196   143   200    1
   197   143   201    1
   198   144   145    1
   199   144   202    1
   200   144   203    1
   201   145   146    1
   202   145   204    1
   203   145   205    1
   204   146   147    1
   205   146   206    1
   206   146   207    1
   207   147   208    1
   208   147   209    1
   209   147   210    1
   210   148   149    1
   211   148   211    1
   212   148   212    1
   213   149   150    1
   214   149   152    1
   215   149   213    1
   216   150   151    1
   217   150   214    1
   218   150   215    1
   219   151   216    1
   220   151   217    1
   221   151   218    1
   222   152   153    1
   223   152   219    1
   224   152   220    1
   225   153   154    1
   226   153   221    1
   227   153   222    1
   228   154   155    1
   229   154   223    1
   230   154   224    1
   231   155   225    1
   232   155   226    1
   233   155   227    1
   234   228   229    1
   235   228   269    1
   236   228   270    1
   237   228   271    1
   238   229   230    1
   239   229   272    1
   240   229   273    1
   241   230   231    1
   242   230   274    1
   243   230   275    1
   244   231   232    1
   245   231   276    1
   246   231   277    1
   247   232   233    1
   248   232   235    1
   249   232   278    1
   250   233   234    1
   251   233   279    1
   252   233   280    1
   253   234   281    1
   254   234   282    1
   255   234   283    1
   256   235   236    1
   257   235   284    1
   258   235   285    1
   259   236   237    1
   260   236   245    1
   261   237   238    1
   262   237   286    1
   263   237   287    1
   264   238   239    1
   265   238   241    1
   266   238   288    1
   267   239   240    1
   268   239   289    1
   269   239   290    1
   270   240   291    1
   271   240   292    1
   272   240   293    1
   273   241   242    1
   274   241   294    1
   275   241   295    1
   276   242   243    1
   277   242   296    1
   278   242   297    1
   279   243   244    1
   280   243   298    1
   281   243   299    1
   282   244   300    1
   283   244   301    1
   284   244   302    1
   285   245   246    2
   286   245   247    1
   287   247   248    1
   288   247   303    1
   289   247   304    1
   290   248   249    1
   291   249   250    1
   292   249   305    1
   293   249   306    1
   294   250   251    2
   295   250   252    1
   296   252   253    1
   297   252   261    1
   298   253   254    1
   299   253   307    1
   300   253   308    1
   301   254   255    1
   302   254   257    1
   303   254   309    1
   304   255   256    1
   305   255   310    1
   306   255   311    1
   307   256   312    1
   308   256   313    1
   309   256   314    1
   310   257   258    1
   311   257   315    1
   312   257   316    1
   313   258   259    1
   314   258   317    1
   315   258   318    1
   316   259   260    1
   317   259   319    1
   318   259   320    1
   319   260   321    1
   320   260   322    1
   321   260   323    1
   322   261   262    1
   323   261   324    1
   324   261   325    1
   325   262   263    1
   326   262   265    1
   327   262   326    1
   328   263   264    1
   329   263   327    1
   330   263   328    1
   331   264   329    1
   332   264   330    1
   333   264   331    1
   334   265   266    1
   335   265   332    1
   336   265   333    1
   337   266   267    1
   338   266   334    1
   339   266   335    1
   340   267   268    1
   341   267   336    1
   342   267   337    1
   343   268   338    1
   344   268   339    1
   345   268   340    1
@<TRIPOS>SUBSTRUCTURE
     1 RES1      340 GROUP             0 ****  ****    0  
