@<TRIPOS>MOLECULE
am_c3_9H2O_c0_0_nunpairedes_0_charge_3 Charge: 3 Unpaired_Electrons: 5 XTB_Unpaired_Electrons: 0 XTB_Charge: 3
   352   363     1     0     0
SMALL
NoCharges
****
Generated from Architector

@<TRIPOS>ATOM
     1 Sm1      -0.0165    0.0256   -0.4055   Sm        1 RES1   0.0000
     2 C1        0.4177    3.4911   -9.5948   C.3       1 RES1   0.0000
     3 C2        1.2141    2.3068   -9.0716   C.3       1 RES1   0.0000
     4 C3        2.4197    2.7542   -8.2565   C.3       1 RES1   0.0000
     5 C4        3.3098    1.6011   -7.7970   C.3       1 RES1   0.0000
     6 C5        2.6712    0.6495   -6.7812   C.3       1 RES1   0.0000
     7 C6        2.2141    1.3269   -5.4884   C.3       1 RES1   0.0000
     8 C7        3.3312    2.1585   -4.8586   C.3       1 RES1   0.0000
     9 C8        3.1180    2.3731   -3.3631   C.3       1 RES1   0.0000
    10 C9        3.9177    3.5228   -2.7278   C.3       1 RES1   0.0000
    11 C10       4.5635    3.0239   -1.4352   C.3       1 RES1   0.0000
    12 C11       5.0180    4.1168   -3.5951   C.3       1 RES1   0.0000
    13 S1        2.7209    4.8729   -2.1974   S.3       1 RES1   0.0000
    14 C12       1.6869    5.2710   -3.6528   C.3       1 RES1   0.0000
    15 C13       0.1659    5.2806   -3.4476   C.3       1 RES1   0.0000
    16 C14      -0.4147    3.9583   -2.9624   C.3       1 RES1   0.0000
    17 N1       -0.5440    4.0820   -1.5173   N.am      1 RES1   0.0000
    18 C15      -0.7227    2.9877   -0.8017   C.2       1 RES1   0.0000
    19 O1       -0.7659    1.8601   -1.3329   O.2       1 RES1   0.0000
    20 C16      -0.8981    3.1399    0.7123   C.3       1 RES1   0.0000
    21 O2       -0.8243    1.8803    1.3909   O.3       1 RES1   0.0000
    22 C17      -1.9903    1.5329    2.1352   C.3       1 RES1   0.0000
    23 C18      -3.0001    0.7589    1.2718   C.2       1 RES1   0.0000
    24 O3       -2.5904    0.3150    0.1837   O.2       1 RES1   0.0000
    25 N2       -4.2075    0.5386    1.7536   N.am      1 RES1   0.0000
    26 C19      -5.1606   -0.3366    1.0849   C.3       1 RES1   0.0000
    27 C20      -6.2747   -0.5594    2.1006   C.3       1 RES1   0.0000
    28 C21      -7.5851   -1.0135    1.4753   C.3       1 RES1   0.0000
    29 C22      -6.2872    0.7795    2.8650   C.3       1 RES1   0.0000
    30 C23      -7.0351    1.8908    2.1258   C.3       1 RES1   0.0000
    31 S2       -7.7757    3.2005    3.1676   S.3       1 RES1   0.0000
    32 C24      -6.3965    4.3244    3.7338   C.3       1 RES1   0.0000
    33 C25      -7.0920    5.6100    4.1731   C.3       1 RES1   0.0000
    34 C26      -5.4724    4.6504    2.5646   C.3       1 RES1   0.0000
    35 C27      -5.7393    3.6440    4.9431   C.3       1 RES1   0.0000
    36 C28      -4.3694    4.1742    5.3472   C.3       1 RES1   0.0000
    37 C29      -3.8314    3.4059    6.5540   C.3       1 RES1   0.0000
    38 C30      -2.3760    3.7469    6.8705   C.3       1 RES1   0.0000
    39 C31      -1.4110    3.1787    5.8326   C.3       1 RES1   0.0000
    40 C32       0.0439    3.5841    6.0559   C.3       1 RES1   0.0000
    41 C33       0.2940    5.0927    6.0372   C.3       1 RES1   0.0000
    42 C34      -0.2864    5.8022    4.8214   C.3       1 RES1   0.0000
    43 C35      -4.7784    1.0593    2.9894   C.3       1 RES1   0.0000
    44 C36      -0.5356    5.4787   -1.1109   C.3       1 RES1   0.0000
    45 C37      -0.4554    6.2658   -2.4311   C.3       1 RES1   0.0000
    46 C38       0.2377    7.6069   -2.2801   C.3       1 RES1   0.0000
    47 H1       -0.4346    3.1525  -10.1764   H         1 RES1   0.0000
    48 H2        0.0500    4.1074   -8.7775   H         1 RES1   0.0000
    49 H3        1.0368    4.1137  -10.2332   H         1 RES1   0.0000
    50 H4        0.5661    1.6765   -8.4629   H         1 RES1   0.0000
    51 H5        1.5550    1.7065   -9.9131   H         1 RES1   0.0000
    52 H6        3.0247    3.4193   -8.8738   H         1 RES1   0.0000
    53 H7        2.0804    3.3353   -7.3971   H         1 RES1   0.0000
    54 H8        3.5987    1.0167   -8.6718   H         1 RES1   0.0000
    55 H9        4.2273    2.0133   -7.3708   H         1 RES1   0.0000
    56 H10       1.8159    0.1483   -7.2341   H         1 RES1   0.0000
    57 H11       3.4065   -0.1228   -6.5298   H         1 RES1   0.0000
    58 H12       1.3575    1.9737   -5.6901   H         1 RES1   0.0000
    59 H13       1.8719    0.5642   -4.7825   H         1 RES1   0.0000
    60 H14       4.2926    1.6646   -5.0092   H         1 RES1   0.0000
    61 H15       3.3828    3.1104   -5.3824   H         1 RES1   0.0000
    62 H16       2.0550    2.5214   -3.1645   H         1 RES1   0.0000
    63 H17       3.3729    1.4469   -2.8438   H         1 RES1   0.0000
    64 H18       5.2963    2.2550   -1.6765   H         1 RES1   0.0000
    65 H19       5.0889    3.8277   -0.9253   H         1 RES1   0.0000
    66 H20       3.8110    2.6051   -0.7743   H         1 RES1   0.0000
    67 H21       5.7196    3.3331   -3.8782   H         1 RES1   0.0000
    68 H22       4.6475    4.5924   -4.4978   H         1 RES1   0.0000
    69 H23       5.5664    4.8692   -3.0327   H         1 RES1   0.0000
    70 H24       2.0116    6.2460   -4.0159   H         1 RES1   0.0000
    71 H25       1.9185    4.5266   -4.4114   H         1 RES1   0.0000
    72 H26      -0.2359    5.5021   -4.4418   H         1 RES1   0.0000
    73 H27      -1.4115    3.8322   -3.3879   H         1 RES1   0.0000
    74 H28       0.1819    3.0755   -3.1998   H         1 RES1   0.0000
    75 H29      -0.0998    3.7770    1.1034   H         1 RES1   0.0000
    76 H30      -1.8534    3.6431    0.8852   H         1 RES1   0.0000
    77 H31      -1.6498    0.8362    2.9129   H         1 RES1   0.0000
    78 H32      -2.4235    2.4223    2.6029   H         1 RES1   0.0000
    79 H33      -5.5380    0.1494    0.1859   H         1 RES1   0.0000
    80 H34      -4.6596   -1.2590    0.8021   H         1 RES1   0.0000
    81 H35      -5.9594   -1.3330    2.8061   H         1 RES1   0.0000
    82 H36      -7.9014   -0.3600    0.6660   H         1 RES1   0.0000
    83 H37      -7.4777   -2.0213    1.0761   H         1 RES1   0.0000
    84 H38      -8.3658   -1.0375    2.2318   H         1 RES1   0.0000
    85 H39      -6.7491    0.6400    3.8427   H         1 RES1   0.0000
    86 H40      -6.4183    2.3415    1.3520   H         1 RES1   0.0000
    87 H41      -7.9371    1.4847    1.6707   H         1 RES1   0.0000
    88 H42      -7.6278    6.0699    3.3467   H         1 RES1   0.0000
    89 H43      -7.8087    5.4099    4.9648   H         1 RES1   0.0000
    90 H44      -6.3580    6.3214    4.5463   H         1 RES1   0.0000
    91 H45      -6.0570    5.0757    1.7513   H         1 RES1   0.0000
    92 H46      -4.7378    5.3938    2.8694   H         1 RES1   0.0000
    93 H47      -4.9479    3.7835    2.1651   H         1 RES1   0.0000
    94 H48      -6.4166    3.7513    5.7902   H         1 RES1   0.0000
    95 H49      -5.6498    2.5732    4.7701   H         1 RES1   0.0000
    96 H50      -3.6798    4.0736    4.5068   H         1 RES1   0.0000
    97 H51      -4.4347    5.2323    5.5962   H         1 RES1   0.0000
    98 H52      -4.4536    3.6425    7.4176   H         1 RES1   0.0000
    99 H53      -3.9202    2.3306    6.3764   H         1 RES1   0.0000
   100 H54      -2.2772    4.8302    6.9239   H         1 RES1   0.0000
   101 H55      -2.1158    3.3429    7.8496   H         1 RES1   0.0000
   102 H56      -1.4775    2.0867    5.8548   H         1 RES1   0.0000
   103 H57      -1.7100    3.5015    4.8334   H         1 RES1   0.0000
   104 H58       0.3861    3.1889    7.0134   H         1 RES1   0.0000
   105 H59       0.6485    3.1088    5.2729   H         1 RES1   0.0000
   106 H60      -0.1197    5.5428    6.9372   H         1 RES1   0.0000
   107 H61       1.3721    5.2580    6.0694   H         1 RES1   0.0000
   108 H62      -1.3712    5.8267    4.8606   H         1 RES1   0.0000
   109 H63       0.0643    6.8291    4.7833   H         1 RES1   0.0000
   110 H64       0.0131    5.3073    3.8986   H         1 RES1   0.0000
   111 H65      -4.5558    2.1190    3.0987   H         1 RES1   0.0000
   112 H66      -4.3415    0.5226    3.8378   H         1 RES1   0.0000
   113 H67      -1.4452    5.7143   -0.5510   H         1 RES1   0.0000
   114 H68       0.3268    5.7052   -0.4784   H         1 RES1   0.0000
   115 H69      -1.4803    6.4449   -2.7682   H         1 RES1   0.0000
   116 H70       1.2584    7.4815   -1.9302   H         1 RES1   0.0000
   117 H71       0.2567    8.1193   -3.2367   H         1 RES1   0.0000
   118 H72      -0.3101    8.2323   -1.5775   H         1 RES1   0.0000
   119 C39       1.7659   -1.5502   -9.8322   C.3       1 RES1   0.0000
   120 C40       0.3886   -1.6976   -9.2070   C.3       1 RES1   0.0000
   121 C41       0.2637   -3.0010   -8.4298   C.3       1 RES1   0.0000
   122 C42      -1.1114   -3.2103   -7.8001   C.3       1 RES1   0.0000
   123 C43      -1.4685   -2.2231   -6.6867   C.3       1 RES1   0.0000
   124 C44      -0.4852   -2.2204   -5.5137   C.3       1 RES1   0.0000
   125 C45      -0.2884   -3.6143   -4.9032   C.3       1 RES1   0.0000
   126 C46       0.0196   -3.5401   -3.4055   C.3       1 RES1   0.0000
   127 C47       0.6518   -4.7772   -2.7406   C.3       1 RES1   0.0000
   128 C48      -0.0169   -5.0160   -1.3874   C.3       1 RES1   0.0000
   129 C49       0.5596   -6.0556   -3.5570   C.3       1 RES1   0.0000
   130 S3        2.4220   -4.3877   -2.2736   S.3       1 RES1   0.0000
   131 C50       3.2443   -3.9930   -3.8600   C.3       1 RES1   0.0000
   132 C51       4.0849   -2.7140   -3.8786   C.3       1 RES1   0.0000
   133 C52       3.3210   -1.4875   -3.3911   C.3       1 RES1   0.0000
   134 N3        3.6166   -1.3993   -1.9688   N.am      1 RES1   0.0000
   135 C53       2.8154   -0.7135   -1.1799   C.2       1 RES1   0.0000
   136 O4        1.7739   -0.1742   -1.6121   O.2       1 RES1   0.0000
   137 C54       3.2583   -0.5150    0.2717   C.3       1 RES1   0.0000
   138 O5        2.1573   -0.2434    1.1512   O.3       1 RES1   0.0000
   139 C55       2.3954    0.8678    2.0119   C.3       1 RES1   0.0000
   140 C56       2.2077    2.1505    1.1905   C.2       1 RES1   0.0000
   141 O6        1.6346    2.0176    0.0884   O.2       1 RES1   0.0000
   142 N4        2.6253    3.3137    1.6475   N.am      1 RES1   0.0000
   143 C57       2.4849    4.5159    0.8411   C.3       1 RES1   0.0000
   144 C58       2.3187    5.6239    1.8653   C.3       1 RES1   0.0000
   145 C59       2.4283    7.0184    1.2774   C.3       1 RES1   0.0000
   146 C60       3.3798    5.1864    2.9013   C.3       1 RES1   0.0000
   147 C61       4.7970    5.5218    2.4134   C.3       1 RES1   0.0000
   148 S4        6.1831    5.5911    3.6074   S.3       1 RES1   0.0000
   149 C62       6.5050    3.8341    4.1440   C.3       1 RES1   0.0000
   150 C63       7.9315    3.7996    4.6865   C.3       1 RES1   0.0000
   151 C64       6.4515    2.9002    2.9362   C.3       1 RES1   0.0000
   152 C65       5.5018    3.5890    5.2824   C.3       1 RES1   0.0000
   153 C66       5.2175    2.1470    5.6792   C.3       1 RES1   0.0000
   154 C67       4.1508    2.1211    6.7753   C.3       1 RES1   0.0000
   155 C68       3.6093    0.7197    7.0473   C.3       1 RES1   0.0000
   156 C69       2.7058    0.2279    5.9190   C.3       1 RES1   0.0000
   157 C70       2.2610   -1.2242    6.0744   C.3       1 RES1   0.0000
   158 C71       3.4097   -2.2314    6.1358   C.3       1 RES1   0.0000
   159 C72       4.4065   -2.0978    4.9916   C.3       1 RES1   0.0000
   160 C73       3.0560    3.6778    2.9964   C.3       1 RES1   0.0000
   161 C74       4.8419   -2.1124   -1.6436   C.3       1 RES1   0.0000
   162 C75       5.3421   -2.6708   -2.9845   C.3       1 RES1   0.0000
   163 C76       6.1032   -3.9724   -2.8104   C.3       1 RES1   0.0000
   164 H73       1.8358   -0.6234  -10.3938   H         1 RES1   0.0000
   165 H74       2.5406   -1.5471   -9.0687   H         1 RES1   0.0000
   166 H75       1.9656   -2.3729  -10.5117   H         1 RES1   0.0000
   167 H76       0.2001   -0.8495   -8.5494   H         1 RES1   0.0000
   168 H77      -0.3665   -1.6756   -9.9906   H         1 RES1   0.0000
   169 H78       0.4489   -3.8293   -9.1140   H         1 RES1   0.0000
   170 H79       1.0375   -3.0418   -7.6614   H         1 RES1   0.0000
   171 H80      -1.8687   -3.1292   -8.5814   H         1 RES1   0.0000
   172 H81      -1.1651   -4.2265   -7.4029   H         1 RES1   0.0000
   173 H82      -1.5269   -1.2133   -7.0957   H         1 RES1   0.0000
   174 H83      -2.4662   -2.4780   -6.3127   H         1 RES1   0.0000
   175 H84       0.4811   -1.8379   -5.8473   H         1 RES1   0.0000
   176 H85      -0.8466   -1.5271   -4.7485   H         1 RES1   0.0000
   177 H86      -1.1919   -4.2116   -5.0386   H         1 RES1   0.0000
   178 H87       0.5022   -4.1214   -5.4528   H         1 RES1   0.0000
   179 H88       0.6490   -2.6695   -3.2018   H         1 RES1   0.0000
   180 H89      -0.9224   -3.3385   -2.8947   H         1 RES1   0.0000
   181 H90      -1.0747   -5.2363   -1.5259   H         1 RES1   0.0000
   182 H91       0.4370   -5.8613   -0.8757   H         1 RES1   0.0000
   183 H92       0.1030   -4.1271   -0.7779   H         1 RES1   0.0000
   184 H93      -0.4875   -6.2672   -3.7718   H         1 RES1   0.0000
   185 H94       1.0983   -6.0054   -4.4982   H         1 RES1   0.0000
   186 H95       0.9619   -6.8919   -2.9903   H         1 RES1   0.0000
   187 H96       3.8571   -4.8529   -4.1275   H         1 RES1   0.0000
   188 H97       2.4498   -3.8899   -4.5950   H         1 RES1   0.0000
   189 H98       4.3786   -2.5782   -4.9229   H         1 RES1   0.0000
   190 H99       3.6982   -0.5817   -3.8753   H         1 RES1   0.0000
   191 H100      2.2413   -1.5434   -3.5423   H         1 RES1   0.0000
   192 H101      3.7744   -1.4119    0.6241   H         1 RES1   0.0000
   193 H102      3.9757    0.3163    0.2671   H         1 RES1   0.0000
   194 H103      1.6291    0.8211    2.7968   H         1 RES1   0.0000
   195 H104      3.3898    0.7915    2.4722   H         1 RES1   0.0000
   196 H105      3.4084    4.6800    0.2863   H         1 RES1   0.0000
   197 H106      1.6897    4.3813    0.1157   H         1 RES1   0.0000
   198 H107      1.3337    5.5259    2.3341   H         1 RES1   0.0000
   199 H108      3.3362    7.1425    0.6951   H         1 RES1   0.0000
   200 H109      1.5812    7.2081    0.6209   H         1 RES1   0.0000
   201 H110      2.4126    7.7601    2.0705   H         1 RES1   0.0000
   202 H111      3.2075    5.6729    3.8611   H         1 RES1   0.0000
   203 H112      5.1007    4.8926    1.5788   H         1 RES1   0.0000
   204 H113      4.7990    6.5630    2.0917   H         1 RES1   0.0000
   205 H114      8.6525    4.0689    3.9180   H         1 RES1   0.0000
   206 H115      8.0536    4.4892    5.5167   H         1 RES1   0.0000
   207 H116      8.1626    2.7953    5.0387   H         1 RES1   0.0000
   208 H117      7.2331    3.1889    2.2357   H         1 RES1   0.0000
   209 H118      6.6492    1.8756    3.2460   H         1 RES1   0.0000
   210 H119      5.5142    2.9239    2.3862   H         1 RES1   0.0000
   211 H120      5.8800    4.1132    6.1604   H         1 RES1   0.0000
   212 H121      4.5505    4.0661    5.0461   H         1 RES1   0.0000
   213 H122      4.8733    1.5862    4.8076   H         1 RES1   0.0000
   214 H123      6.1245    1.6666    6.0434   H         1 RES1   0.0000
   215 H124      4.5866    2.5272    7.6886   H         1 RES1   0.0000
   216 H125      3.3221    2.7774    6.4952   H         1 RES1   0.0000
   217 H126      4.4519    0.0435    7.1815   H         1 RES1   0.0000
   218 H127      3.0396    0.7260    7.9768   H         1 RES1   0.0000
   219 H128      1.8175    0.8652    5.8795   H         1 RES1   0.0000
   220 H129      3.2209    0.3334    4.9628   H         1 RES1   0.0000
   221 H130      1.6655   -1.3216    6.9832   H         1 RES1   0.0000
   222 H131      1.6086   -1.4719    5.2269   H         1 RES1   0.0000
   223 H132      3.9410   -2.1222    7.0788   H         1 RES1   0.0000
   224 H133      2.9832   -3.2360    6.1311   H         1 RES1   0.0000
   225 H134      4.9910   -1.1881    5.0884   H         1 RES1   0.0000
   226 H135      5.0997   -2.9339    5.0008   H         1 RES1   0.0000
   227 H136      3.9009   -2.0788    4.0257   H         1 RES1   0.0000
   228 H137      3.8875    3.0610    3.3243   H         1 RES1   0.0000
   229 H138      2.2240    3.4994    3.6914   H         1 RES1   0.0000
   230 H139      5.5681   -1.4333   -1.1889   H         1 RES1   0.0000
   231 H140      4.6385   -2.9374   -0.9533   H         1 RES1   0.0000
   232 H141      6.0144   -1.9329   -3.4272   H         1 RES1   0.0000
   233 H142      5.4832   -4.7263   -2.3342   H         1 RES1   0.0000
   234 H143      6.4365   -4.3474   -3.7719   H         1 RES1   0.0000
   235 H144      6.9856   -3.8044   -2.1970   H         1 RES1   0.0000
   236 C77      -3.2939   -0.1714   -9.7014   C.3       1 RES1   0.0000
   237 C78      -2.7190    1.1014   -9.1024   C.3       1 RES1   0.0000
   238 C79      -3.7372    1.8279   -8.2335   C.3       1 RES1   0.0000
   239 C80      -3.2228    3.1500   -7.6670   C.3       1 RES1   0.0000
   240 C81      -2.0459    3.0211   -6.6969   C.3       1 RES1   0.0000
   241 C82      -2.3322    2.1461   -5.4766   C.3       1 RES1   0.0000
   242 C83      -3.5441    2.6436   -4.6867   C.3       1 RES1   0.0000
   243 C84      -3.5413    2.1209   -3.2511   C.3       1 RES1   0.0000
   244 C85      -4.8541    2.2472   -2.4655   C.3       1 RES1   0.0000
   245 C86      -4.5602    2.7757   -1.0622   C.3       1 RES1   0.0000
   246 C87      -5.8923    3.1588   -3.1032   C.3       1 RES1   0.0000
   247 S5       -5.5481    0.5284   -2.1586   S.3       1 RES1   0.0000
   248 C88      -5.4436   -0.3685   -3.7498   C.3       1 RES1   0.0000
   249 C89      -4.7241   -1.7240   -3.7592   C.3       1 RES1   0.0000
   250 C90      -3.2680   -1.7034   -3.2951   C.3       1 RES1   0.0000
   251 N5       -3.2816   -2.1119   -1.8969   N.am      1 RES1   0.0000
   252 C91      -2.2116   -1.9109   -1.1535   C.2       1 RES1   0.0000
   253 O7       -1.2057   -1.3179   -1.5980   O.2       1 RES1   0.0000
   254 C92      -2.1592   -2.5077    0.2578   C.3       1 RES1   0.0000
   255 O8       -1.3372   -1.6996    1.1142   O.3       1 RES1   0.0000
   256 C93      -0.5145   -2.4465    2.0063   C.3       1 RES1   0.0000
   257 C94       0.7750   -2.8445    1.2623   C.2       1 RES1   0.0000
   258 O9        0.9603   -2.2993    0.1544   O.2       1 RES1   0.0000
   259 N6        1.6170   -3.7050    1.8001   N.am      1 RES1   0.0000
   260 C95       2.8022   -4.1709    1.0860   C.3       1 RES1   0.0000
   261 C96       3.6926   -4.7467    2.1804   C.3       1 RES1   0.0000
   262 C97       4.8084   -5.6331    1.6598   C.3       1 RES1   0.0000
   263 C98       2.6371   -5.3875    3.1081   C.3       1 RES1   0.0000
   264 C99       2.0750   -6.6962    2.5442   C.3       1 RES1   0.0000
   265 S6        1.1952   -7.8201    3.6934   S.3       1 RES1   0.0000
   266 C100     -0.4737   -7.0600    4.0636   C.3       1 RES1   0.0000
   267 C101     -1.3776   -8.2224    4.4697   C.3       1 RES1   0.0000
   268 C102     -1.0659   -6.4385    2.7994   C.3       1 RES1   0.0000
   269 C103     -0.2467   -6.1287    5.2678   C.3       1 RES1   0.0000
   270 C104     -1.3093   -5.0694    5.5348   C.3       1 RES1   0.0000
   271 C105     -0.9129   -4.2189    6.7420   C.3       1 RES1   0.0000
   272 C106     -1.8889   -3.0761    7.0140   C.3       1 RES1   0.0000
   273 C107     -1.8280   -1.9885    5.9447   C.3       1 RES1   0.0000
   274 C108     -2.8535   -0.8756    6.1474   C.3       1 RES1   0.0000
   275 C109     -4.3060   -1.3547    6.1633   C.3       1 RES1   0.0000
   276 C110     -4.6583   -2.2855    5.0102   C.3       1 RES1   0.0000
   277 C111      1.6117   -4.2426    3.1582   C.3       1 RES1   0.0000
   278 C112     -4.5280   -2.7851   -1.5698   C.3       1 RES1   0.0000
   279 C113     -5.3081   -2.8597   -2.8900   C.3       1 RES1   0.0000
   280 C114     -6.8056   -2.8300   -2.6430   C.3       1 RES1   0.0000
   281 H145     -2.5596   -0.6620  -10.3336   H         1 RES1   0.0000
   282 H146     -3.5932   -0.8677   -8.9210   H         1 RES1   0.0000
   283 H147     -4.1661    0.0520  -10.3079   H         1 RES1   0.0000
   284 H148     -1.8356    0.8511   -8.5156   H         1 RES1   0.0000
   285 H149     -2.4012    1.7635   -9.9059   H         1 RES1   0.0000
   286 H150     -4.6183    2.0427   -8.8390   H         1 RES1   0.0000
   287 H151     -4.0595    1.1703   -7.4238   H         1 RES1   0.0000
   288 H152     -2.9087    3.7850   -8.4970   H         1 RES1   0.0000
   289 H153     -4.0451    3.6644   -7.1644   H         1 RES1   0.0000
   290 H154     -1.1827    2.6133   -7.2223   H         1 RES1   0.0000
   291 H155     -1.7741    4.0243   -6.3517   H         1 RES1   0.0000
   292 H156     -2.5086    1.1159   -5.7925   H         1 RES1   0.0000
   293 H157     -1.4473    2.1322   -4.8342   H         1 RES1   0.0000
   294 H158     -3.5539    3.7352   -4.6744   H         1 RES1   0.0000
   295 H159     -4.4449    2.3280   -5.2095   H         1 RES1   0.0000
   296 H160     -3.2205    1.0799   -3.2562   H         1 RES1   0.0000
   297 H161     -2.7708    2.6419   -2.6853   H         1 RES1   0.0000
   298 H162     -4.1341    3.7762   -1.1237   H         1 RES1   0.0000
   299 H163     -5.4793    2.8352   -0.4848   H         1 RES1   0.0000
   300 H164     -3.8592    2.1187   -0.5582   H         1 RES1   0.0000
   301 H165     -5.4640    4.1547   -3.2189   H         1 RES1   0.0000
   302 H166     -6.2323    2.8141   -4.0748   H         1 RES1   0.0000
   303 H167     -6.7644    3.2444   -2.4596   H         1 RES1   0.0000
   304 H168     -6.4700   -0.5030   -4.0914   H         1 RES1   0.0000
   305 H169     -4.9382    0.2957   -4.4463   H         1 RES1   0.0000
   306 H170     -4.7585   -2.0303   -4.8098   H         1 RES1   0.0000
   307 H171     -2.6966   -2.4478   -3.8570   H         1 RES1   0.0000
   308 H172     -2.7666   -0.7390   -3.3934   H         1 RES1   0.0000
   309 H173     -3.1637   -2.5745    0.6835   H         1 RES1   0.0000
   310 H174     -1.7563   -3.5248    0.1648   H         1 RES1   0.0000
   311 H175     -0.2617   -1.7685    2.8330   H         1 RES1   0.0000
   312 H176     -1.0610   -3.3104    2.4069   H         1 RES1   0.0000
   313 H177      2.5079   -4.9512    0.3810   H         1 RES1   0.0000
   314 H178      3.2351   -3.3552    0.5136   H         1 RES1   0.0000
   315 H179      4.1505   -3.9202    2.7333   H         1 RES1   0.0000
   316 H180      4.4365   -6.4358    1.0312   H         1 RES1   0.0000
   317 H181      5.5067   -5.0408    1.0724   H         1 RES1   0.0000
   318 H182      5.3580   -6.0638    2.4914   H         1 RES1   0.0000
   319 H183      3.0550   -5.5793    4.0960   H         1 RES1   0.0000
   320 H184      1.4505   -6.5286    1.6685   H         1 RES1   0.0000
   321 H185      2.9101   -7.3380    2.2649   H         1 RES1   0.0000
   322 H186     -1.4883   -8.9374    3.6578   H         1 RES1   0.0000
   323 H187     -0.9731   -8.7521    5.3274   H         1 RES1   0.0000
   324 H188     -2.3645   -7.8456    4.7344   H         1 RES1   0.0000
   325 H189     -1.1871   -7.2170    2.0486   H         1 RES1   0.0000
   326 H190     -2.0537   -6.0321    3.0124   H         1 RES1   0.0000
   327 H191     -0.4544   -5.6603    2.3492   H         1 RES1   0.0000
   328 H192     -0.1713   -6.7617    6.1521   H         1 RES1   0.0000
   329 H193      0.7209   -5.6323    5.1840   H         1 RES1   0.0000
   330 H194     -1.4231   -4.4321    4.6548   H         1 RES1   0.0000
   331 H195     -2.2702   -5.5445    5.7298   H         1 RES1   0.0000
   332 H196     -0.8696   -4.8659    7.6189   H         1 RES1   0.0000
   333 H197      0.0903   -3.8119    6.5892   H         1 RES1   0.0000
   334 H198     -2.8949   -3.4883    7.0766   H         1 RES1   0.0000
   335 H199     -1.6572   -2.6288    7.9812   H         1 RES1   0.0000
   336 H200     -0.8272   -1.5473    5.9510   H         1 RES1   0.0000
   337 H201     -1.9847   -2.4288    4.9579   H         1 RES1   0.0000
   338 H202     -2.6485   -0.3597    7.0863   H         1 RES1   0.0000
   339 H203     -2.7205   -0.1441    5.3398   H         1 RES1   0.0000
   340 H204     -4.5132   -1.8648    7.1018   H         1 RES1   0.0000
   341 H205     -4.9558   -0.4783    6.1340   H         1 RES1   0.0000
   342 H206     -4.2003   -3.2611    5.1395   H         1 RES1   0.0000
   343 H207     -5.7336   -2.4332    4.9652   H         1 RES1   0.0000
   344 H208     -4.3231   -1.8759    4.0580   H         1 RES1   0.0000
   345 H209      0.6173   -4.5452    3.4693   H         1 RES1   0.0000
   346 H210      1.9463   -3.4545    3.8438   H         1 RES1   0.0000
   347 H211     -4.3310   -3.7760   -1.1534   H         1 RES1   0.0000
   348 H212     -5.1022   -2.1972   -0.8510   H         1 RES1   0.0000
   349 H213     -5.0512   -3.7988   -3.3847   H         1 RES1   0.0000
   350 H214     -7.0900   -1.9160   -2.1290   H         1 RES1   0.0000
   351 H215     -7.3485   -2.8903   -3.5795   H         1 RES1   0.0000
   352 H216     -7.0965   -3.6835   -2.0337   H         1 RES1   0.0000
@<TRIPOS>BOND
     1     1    19    1
     2     1    21    1
     3     1    24    1
     4     1   136    1
     5     1   138    1
     6     1   141    1
     7     1   253    1
     8     1   255    1
     9     1   258    1
    10     2     3    1
    11     2    47    1
    12     2    48    1
    13     2    49    1
    14     3     4    1
    15     3    50    1
    16     3    51    1
    17     4     5    1
    18     4    52    1
    19     4    53    1
    20     5     6    1
    21     5    54    1
    22     5    55    1
    23     6     7    1
    24     6    56    1
    25     6    57    1
    26     7     8    1
    27     7    58    1
    28     7    59    1
    29     8     9    1
    30     8    60    1
    31     8    61    1
    32     9    10    1
    33     9    62    1
    34     9    63    1
    35    10    11    1
    36    10    12    1
    37    10    13    1
    38    11    64    1
    39    11    65    1
    40    11    66    1
    41    12    67    1
    42    12    68    1
    43    12    69    1
    44    13    14    1
    45    14    15    1
    46    14    70    1
    47    14    71    1
    48    15    16    1
    49    15    45    1
    50    15    72    1
    51    16    17    1
    52    16    73    1
    53    16    74    1
    54    17    18    1
    55    17    44    1
    56    18    19    2
    57    18    20    1
    58    20    21    1
    59    20    75    1
    60    20    76    1
    61    21    22    1
    62    22    23    1
    63    22    77    1
    64    22    78    1
    65    23    24    2
    66    23    25    1
    67    25    26    1
    68    25    43    1
    69    26    27    1
    70    26    79    1
    71    26    80    1
    72    27    28    1
    73    27    29    1
    74    27    81    1
    75    28    82    1
    76    28    83    1
    77    28    84    1
    78    29    30    1
    79    29    43    1
    80    29    85    1
    81    30    31    1
    82    30    86    1
    83    30    87    1
    84    31    32    1
    85    32    33    1
    86    32    34    1
    87    32    35    1
    88    33    88    1
    89    33    89    1
    90    33    90    1
    91    34    91    1
    92    34    92    1
    93    34    93    1
    94    35    36    1
    95    35    94    1
    96    35    95    1
    97    36    37    1
    98    36    96    1
    99    36    97    1
   100    37    38    1
   101    37    98    1
   102    37    99    1
   103    38    39    1
   104    38   100    1
   105    38   101    1
   106    39    40    1
   107    39   102    1
   108    39   103    1
   109    40    41    1
   110    40   104    1
   111    40   105    1
   112    41    42    1
   113    41   106    1
   114    41   107    1
   115    42   108    1
   116    42   109    1
   117    42   110    1
   118    43   111    1
   119    43   112    1
   120    44    45    1
   121    44   113    1
   122    44   114    1
   123    45    46    1
   124    45   115    1
   125    46   116    1
   126    46   117    1
   127    46   118    1
   128   119   120    1
   129   119   164    1
   130   119   165    1
   131   119   166    1
   132   120   121    1
   133   120   167    1
   134   120   168    1
   135   121   122    1
   136   121   169    1
   137   121   170    1
   138   122   123    1
   139   122   171    1
   140   122   172    1
   141   123   124    1
   142   123   173    1
   143   123   174    1
   144   124   125    1
   145   124   175    1
   146   124   176    1
   147   125   126    1
   148   125   177    1
   149   125   178    1
   150   126   127    1
   151   126   179    1
   152   126   180    1
   153   127   128    1
   154   127   129    1
   155   127   130    1
   156   128   181    1
   157   128   182    1
   158   128   183    1
   159   129   184    1
   160   129   185    1
   161   129   186    1
   162   130   131    1
   163   131   132    1
   164   131   187    1
   165   131   188    1
   166   132   133    1
   167   132   162    1
   168   132   189    1
   169   133   134    1
   170   133   190    1
   171   133   191    1
   172   134   135    1
   173   134   161    1
   174   135   136    2
   175   135   137    1
   176   137   138    1
   177   137   192    1
   178   137   193    1
   179   138   139    1
   180   139   140    1
   181   139   194    1
   182   139   195    1
   183   140   141    2
   184   140   142    1
   185   142   143    1
   186   142   160    1
   187   143   144    1
   188   143   196    1
   189   143   197    1
   190   144   145    1
   191   144   146    1
   192   144   198    1
   193   145   199    1
   194   145   200    1
   195   145   201    1
   196   146   147    1
   197   146   160    1
   198   146   202    1
   199   147   148    1
   200   147   203    1
   201   147   204    1
   202   148   149    1
   203   149   150    1
   204   149   151    1
   205   149   152    1
   206   150   205    1
   207   150   206    1
   208   150   207    1
   209   151   208    1
   210   151   209    1
   211   151   210    1
   212   152   153    1
   213   152   211    1
   214   152   212    1
   215   153   154    1
   216   153   213    1
   217   153   214    1
   218   154   155    1
   219   154   215    1
   220   154   216    1
   221   155   156    1
   222   155   217    1
   223   155   218    1
   224   156   157    1
   225   156   219    1
   226   156   220    1
   227   157   158    1
   228   157   221    1
   229   157   222    1
   230   158   159    1
   231   158   223    1
   232   158   224    1
   233   159   225    1
   234   159   226    1
   235   159   227    1
   236   160   228    1
   237   160   229    1
   238   161   162    1
   239   161   230    1
   240   161   231    1
   241   162   163    1
   242   162   232    1
   243   163   233    1
   244   163   234    1
   245   163   235    1
   246   236   237    1
   247   236   281    1
   248   236   282    1
   249   236   283    1
   250   237   238    1
   251   237   284    1
   252   237   285    1
   253   238   239    1
   254   238   286    1
   255   238   287    1
   256   239   240    1
   257   239   288    1
   258   239   289    1
   259   240   241    1
   260   240   290    1
   261   240   291    1
   262   241   242    1
   263   241   292    1
   264   241   293    1
   265   242   243    1
   266   242   294    1
   267   242   295    1
   268   243   244    1
   269   243   296    1
   270   243   297    1
   271   244   245    1
   272   244   246    1
   273   244   247    1
   274   245   298    1
   275   245   299    1
   276   245   300    1
   277   246   301    1
   278   246   302    1
   279   246   303    1
   280   247   248    1
   281   248   249    1
   282   248   304    1
   283   248   305    1
   284   249   250    1
   285   249   279    1
   286   249   306    1
   287   250   251    1
   288   250   307    1
   289   250   308    1
   290   251   252    1
   291   251   278    1
   292   252   253    2
   293   252   254    1
   294   254   255    1
   295   254   309    1
   296   254   310    1
   297   255   256    1
   298   256   257    1
   299   256   311    1
   300   256   312    1
   301   257   258    2
   302   257   259    1
   303   259   260    1
   304   259   277    1
   305   260   261    1
   306   260   313    1
   307   260   314    1
   308   261   262    1
   309   261   263    1
   310   261   315    1
   311   262   316    1
   312   262   317    1
   313   262   318    1
   314   263   264    1
   315   263   277    1
   316   263   319    1
   317   264   265    1
   318   264   320    1
   319   264   321    1
   320   265   266    1
   321   266   267    1
   322   266   268    1
   323   266   269    1
   324   267   322    1
   325   267   323    1
   326   267   324    1
   327   268   325    1
   328   268   326    1
   329   268   327    1
   330   269   270    1
   331   269   328    1
   332   269   329    1
   333   270   271    1
   334   270   330    1
   335   270   331    1
   336   271   272    1
   337   271   332    1
   338   271   333    1
   339   272   273    1
   340   272   334    1
   341   272   335    1
   342   273   274    1
   343   273   336    1
   344   273   337    1
   345   274   275    1
   346   274   338    1
   347   274   339    1
   348   275   276    1
   349   275   340    1
   350   275   341    1
   351   276   342    1
   352   276   343    1
   353   276   344    1
   354   277   345    1
   355   277   346    1
   356   278   279    1
   357   278   347    1
   358   278   348    1
   359   279   280    1
   360   279   349    1
   361   280   350    1
   362   280   351    1
   363   280   352    1
@<TRIPOS>SUBSTRUCTURE
     1 RES1      352 GROUP             0 ****  ****    0  
