@<TRIPOS>MOLECULE
am_c3_9H2O_c0_0_nunpairedes_0_charge_3 Charge: 3 Unpaired_Electrons: 5 XTB_Unpaired_Electrons: 0 XTB_Charge: 3
   142   147     1     0     0
SMALL
NoCharges
****
Generated from Architector

@<TRIPOS>ATOM
     1 Sm1      -0.0559   -0.0599    0.0062   Sm        1 RES1   0.0000
     2 C1        0.4989    3.1911    4.1658   C.3       1 RES1   0.0000
     3 C2       -0.9231    3.7277    4.0407   C.3       1 RES1   0.0000
     4 C3       -1.3077    4.0179    2.5808   C.3       1 RES1   0.0000
     5 C4       -1.8692    2.7932    1.8213   C.3       1 RES1   0.0000
     6 O1       -1.2295    1.5758    2.2372   O.3       1 RES1   0.0000
     7 C5       -2.0574    0.7434    3.0541   C.3       1 RES1   0.0000
     8 C6       -1.2543   -0.0695    4.0945   C.3       1 RES1   0.0000
     9 C7        0.0577   -0.6902    3.6119   C.3       1 RES1   0.0000
    10 C8        0.6732   -1.5409    4.7230   C.3       1 RES1   0.0000
    11 C9       -2.8360   -0.1717    2.1052   C.2       1 RES1   0.0000
    12 O2       -2.4224   -0.2640    0.9342   O.2       1 RES1   0.0000
    13 N1       -3.9252   -0.8051    2.5342   N.am      1 RES1   0.0000
    14 C10      -4.5735   -0.7112    3.8299   C.3       1 RES1   0.0000
    15 C11      -4.6426   -1.6739    1.6227   C.3       1 RES1   0.0000
    16 C12      -1.8154    2.8210    0.2806   C.2       1 RES1   0.0000
    17 O3       -1.2976    1.8610   -0.3317   O.2       1 RES1   0.0000
    18 N2       -2.4297    3.7941   -0.3841   N.am      1 RES1   0.0000
    19 C13      -2.8683    5.0705    0.1459   C.3       1 RES1   0.0000
    20 C14      -2.7077    3.6469   -1.7990   C.3       1 RES1   0.0000
    21 H1        0.6960    2.8632    5.1837   H         1 RES1   0.0000
    22 H2        1.2107    3.9785    3.9236   H         1 RES1   0.0000
    23 H3        0.6472    2.3495    3.4905   H         1 RES1   0.0000
    24 H4       -0.9931    4.6614    4.6038   H         1 RES1   0.0000
    25 H5       -1.6232    3.0200    4.4871   H         1 RES1   0.0000
    26 H6       -0.4344    4.4019    2.0612   H         1 RES1   0.0000
    27 H7       -2.0637    4.7979    2.5855   H         1 RES1   0.0000
    28 H8       -2.9444    2.7152    2.0524   H         1 RES1   0.0000
    29 H9       -2.7721    1.3759    3.6007   H         1 RES1   0.0000
    30 H10      -1.0392    0.5815    4.9449   H         1 RES1   0.0000
    31 H11      -1.9157   -0.8632    4.4497   H         1 RES1   0.0000
    32 H12       0.7660    0.1023    3.3588   H         1 RES1   0.0000
    33 H13      -0.1028   -1.3160    2.7201   H         1 RES1   0.0000
    34 H14       0.8721   -0.9440    5.6096   H         1 RES1   0.0000
    35 H15       1.6127   -1.9678    4.3890   H         1 RES1   0.0000
    36 H16       0.0247   -2.3607    5.0211   H         1 RES1   0.0000
    37 H17      -4.0839   -0.0333    4.5229   H         1 RES1   0.0000
    38 H18      -4.6068   -1.7067    4.2820   H         1 RES1   0.0000
    39 H19      -5.6046   -0.3723    3.6862   H         1 RES1   0.0000
    40 H20      -4.0483   -1.8003    0.7243   H         1 RES1   0.0000
    41 H21      -5.6081   -1.2363    1.3673   H         1 RES1   0.0000
    42 H22      -4.8091   -2.6387    2.0986   H         1 RES1   0.0000
    43 H23      -3.6225    4.9619    0.9266   H         1 RES1   0.0000
    44 H24      -3.2936    5.6472   -0.6749   H         1 RES1   0.0000
    45 H25      -2.0176    5.6328    0.5274   H         1 RES1   0.0000
    46 H26      -2.4498    2.6475   -2.1322   H         1 RES1   0.0000
    47 H27      -2.1430    4.3844   -2.3664   H         1 RES1   0.0000
    48 H28      -3.7735    3.8140   -1.9587   H         1 RES1   0.0000
    49 C15       1.6489    6.4277    0.9121   C.3       1 RES1   0.0000
    50 C16       1.8853    5.1550    0.1091   C.3       1 RES1   0.0000
    51 C17       2.2063    3.9704    1.0248   C.3       1 RES1   0.0000
    52 C18       2.5580    2.6968    0.2366   C.3       1 RES1   0.0000
    53 O4        1.5042    2.4367   -0.6946   O.3       1 RES1   0.0000
    54 C19       1.9184    2.4866   -2.0600   C.3       1 RES1   0.0000
    55 C20       0.6974    2.8250   -2.9396   C.3       1 RES1   0.0000
    56 C21       0.0279    1.5936   -3.5597   C.3       1 RES1   0.0000
    57 C22      -0.9809    1.9675   -4.6379   C.3       1 RES1   0.0000
    58 C23       2.4710    1.0937   -2.3721   C.2       1 RES1   0.0000
    59 O5        1.9408    0.1448   -1.7588   O.2       1 RES1   0.0000
    60 N3        3.4827    0.9321   -3.2157   N.am      1 RES1   0.0000
    61 C24       4.0623    1.9323   -4.0937   C.3       1 RES1   0.0000
    62 C25       4.0726   -0.3837   -3.3948   C.3       1 RES1   0.0000
    63 C26       2.6652    1.4937    1.1790   C.2       1 RES1   0.0000
    64 O6        1.7084    0.6893    1.2313   O.2       1 RES1   0.0000
    65 N4        3.7394    1.3404    1.9409   N.am      1 RES1   0.0000
    66 C27       4.8668    2.2449    2.0366   C.3       1 RES1   0.0000
    67 C28       3.7978    0.2263    2.8724   C.3       1 RES1   0.0000
    68 H29       1.4221    7.2570    0.2486   H         1 RES1   0.0000
    69 H30       2.5369    6.6909    1.4781   H         1 RES1   0.0000
    70 H31       0.8242    6.3133    1.6118   H         1 RES1   0.0000
    71 H32       2.7087    5.3287   -0.5876   H         1 RES1   0.0000
    72 H33       0.9942    4.9246   -0.4771   H         1 RES1   0.0000
    73 H34       1.3357    3.7353    1.6354   H         1 RES1   0.0000
    74 H35       3.0289    4.2368    1.6863   H         1 RES1   0.0000
    75 H36       3.4952    2.8246   -0.3199   H         1 RES1   0.0000
    76 H37       2.6826    3.2682   -2.1561   H         1 RES1   0.0000
    77 H38      -0.0159    3.3455   -2.2976   H         1 RES1   0.0000
    78 H39       1.0186    3.5098   -3.7268   H         1 RES1   0.0000
    79 H40      -0.4486    0.9992   -2.7568   H         1 RES1   0.0000
    80 H41       0.7871    0.9675   -4.0332   H         1 RES1   0.0000
    81 H42      -1.7382    2.6550   -4.2782   H         1 RES1   0.0000
    82 H43      -1.4749    1.0768   -5.0109   H         1 RES1   0.0000
    83 H44      -0.4758    2.4362   -5.4774   H         1 RES1   0.0000
    84 H45       3.5752    2.8988   -4.0158   H         1 RES1   0.0000
    85 H46       3.9561    1.5937   -5.1285   H         1 RES1   0.0000
    86 H47       5.1278    2.0461   -3.8704   H         1 RES1   0.0000
    87 H48       3.6810   -1.0590   -2.6377   H         1 RES1   0.0000
    88 H49       5.1565   -0.3108   -3.2878   H         1 RES1   0.0000
    89 H50       3.8387   -0.7784   -4.3860   H         1 RES1   0.0000
    90 H51       4.9118    2.9521    1.2137   H         1 RES1   0.0000
    91 H52       5.7919    1.6648    2.0461   H         1 RES1   0.0000
    92 H53       4.8134    2.8080    2.9721   H         1 RES1   0.0000
    93 H54       3.0049   -0.4815    2.6410   H         1 RES1   0.0000
    94 H55       3.6659    0.5878    3.8922   H         1 RES1   0.0000
    95 H56       4.7654   -0.2677    2.7957   H         1 RES1   0.0000
    96 C29      -0.8284   -3.5433   -4.9958   C.3       1 RES1   0.0000
    97 C30      -0.2532   -2.1822   -4.6195   C.3       1 RES1   0.0000
    98 C31       0.8761   -2.2550   -3.5852   C.3       1 RES1   0.0000
    99 C32       0.3792   -2.8216   -2.2458   C.3       1 RES1   0.0000
   100 O7       -0.7435   -2.0335   -1.8419   O.3       1 RES1   0.0000
   101 C33      -1.8831   -2.7938   -1.4427   C.3       1 RES1   0.0000
   102 C34      -3.1793   -2.1447   -1.9904   C.3       1 RES1   0.0000
   103 C35      -3.1738   -0.6128   -2.1433   C.3       1 RES1   0.0000
   104 C36      -4.3665    0.0552   -1.4568   C.3       1 RES1   0.0000
   105 C37      -1.7579   -2.9904    0.0797   C.2       1 RES1   0.0000
   106 O8       -0.9832   -2.2459    0.7056   O.2       1 RES1   0.0000
   107 N5       -2.3672   -4.0120    0.6734   N.am      1 RES1   0.0000
   108 C38      -2.0249   -4.3427    2.0460   C.3       1 RES1   0.0000
   109 C39      -3.2982   -4.9348    0.0609   C.3       1 RES1   0.0000
   110 C40       1.4463   -2.7831   -1.1409   C.2       1 RES1   0.0000
   111 O9        1.3764   -1.9270   -0.2411   O.2       1 RES1   0.0000
   112 N6        2.4165   -3.6915   -1.1717   N.am      1 RES1   0.0000
   113 C41       3.4566   -3.6789   -0.1584   C.3       1 RES1   0.0000
   114 C42       2.5884   -4.7625   -2.1323   C.3       1 RES1   0.0000
   115 H57      -1.5342   -3.4304   -5.8143   H         1 RES1   0.0000
   116 H58      -1.3552   -4.0113   -4.1660   H         1 RES1   0.0000
   117 H59      -0.0390   -4.2138   -5.3261   H         1 RES1   0.0000
   118 H60      -1.0457   -1.5297   -4.2481   H         1 RES1   0.0000
   119 H61       0.1586   -1.7216   -5.5162   H         1 RES1   0.0000
   120 H62       1.2565   -1.2531   -3.3859   H         1 RES1   0.0000
   121 H63       1.6834   -2.8779   -3.9711   H         1 RES1   0.0000
   122 H64       0.0501   -3.8572   -2.3773   H         1 RES1   0.0000
   123 H65      -1.8116   -3.7926   -1.8965   H         1 RES1   0.0000
   124 H66      -3.3621   -2.5843   -2.9719   H         1 RES1   0.0000
   125 H67      -4.0067   -2.4472   -1.3521   H         1 RES1   0.0000
   126 H68      -2.2445   -0.1964   -1.7249   H         1 RES1   0.0000
   127 H69      -3.1906   -0.3779   -3.2060   H         1 RES1   0.0000
   128 H70      -5.2395   -0.5931   -1.4550   H         1 RES1   0.0000
   129 H71      -4.6428    0.9706   -1.9693   H         1 RES1   0.0000
   130 H72      -4.1019    0.3005   -0.4344   H         1 RES1   0.0000
   131 H73      -1.3096   -3.6189    2.4279   H         1 RES1   0.0000
   132 H74      -1.5714   -5.3351    2.0793   H         1 RES1   0.0000
   133 H75      -2.9150   -4.3360    2.6734   H         1 RES1   0.0000
   134 H76      -3.5900   -4.6314   -0.9388   H         1 RES1   0.0000
   135 H77      -4.1987   -4.9804    0.6763   H         1 RES1   0.0000
   136 H78      -2.8628   -5.9371    0.0143   H         1 RES1   0.0000
   137 H79       3.3215   -2.8211    0.4945   H         1 RES1   0.0000
   138 H80       4.4297   -3.6158   -0.6452   H         1 RES1   0.0000
   139 H81       3.4186   -4.5949    0.4335   H         1 RES1   0.0000
   140 H82       1.7921   -4.8237   -2.8661   H         1 RES1   0.0000
   141 H83       2.6432   -5.7184   -1.6043   H         1 RES1   0.0000
   142 H84       3.5306   -4.6173   -2.6652   H         1 RES1   0.0000
@<TRIPOS>BOND
     1     1     6    1
     2     1    12    1
     3     1    17    1
     4     1    53    1
     5     1    59    1
     6     1    64    1
     7     1   100    1
     8     1   106    1
     9     1   111    1
    10     2     3    1
    11     2    21    1
    12     2    22    1
    13     2    23    1
    14     3     4    1
    15     3    24    1
    16     3    25    1
    17     4     5    1
    18     4    26    1
    19     4    27    1
    20     5     6    1
    21     5    16    1
    22     5    28    1
    23     6     7    1
    24     7     8    1
    25     7    11    1
    26     7    29    1
    27     8     9    1
    28     8    30    1
    29     8    31    1
    30     9    10    1
    31     9    32    1
    32     9    33    1
    33    10    34    1
    34    10    35    1
    35    10    36    1
    36    11    12    2
    37    11    13    1
    38    13    14    1
    39    13    15    1
    40    14    37    1
    41    14    38    1
    42    14    39    1
    43    15    40    1
    44    15    41    1
    45    15    42    1
    46    16    17    2
    47    16    18    1
    48    18    19    1
    49    18    20    1
    50    19    43    1
    51    19    44    1
    52    19    45    1
    53    20    46    1
    54    20    47    1
    55    20    48    1
    56    49    50    1
    57    49    68    1
    58    49    69    1
    59    49    70    1
    60    50    51    1
    61    50    71    1
    62    50    72    1
    63    51    52    1
    64    51    73    1
    65    51    74    1
    66    52    53    1
    67    52    63    1
    68    52    75    1
    69    53    54    1
    70    54    55    1
    71    54    58    1
    72    54    76    1
    73    55    56    1
    74    55    77    1
    75    55    78    1
    76    56    57    1
    77    56    79    1
    78    56    80    1
    79    57    81    1
    80    57    82    1
    81    57    83    1
    82    58    59    2
    83    58    60    1
    84    60    61    1
    85    60    62    1
    86    61    84    1
    87    61    85    1
    88    61    86    1
    89    62    87    1
    90    62    88    1
    91    62    89    1
    92    63    64    2
    93    63    65    1
    94    65    66    1
    95    65    67    1
    96    66    90    1
    97    66    91    1
    98    66    92    1
    99    67    93    1
   100    67    94    1
   101    67    95    1
   102    96    97    1
   103    96   115    1
   104    96   116    1
   105    96   117    1
   106    97    98    1
   107    97   118    1
   108    97   119    1
   109    98    99    1
   110    98   120    1
   111    98   121    1
   112    99   100    1
   113    99   110    1
   114    99   122    1
   115   100   101    1
   116   101   102    1
   117   101   105    1
   118   101   123    1
   119   102   103    1
   120   102   124    1
   121   102   125    1
   122   103   104    1
   123   103   126    1
   124   103   127    1
   125   104   128    1
   126   104   129    1
   127   104   130    1
   128   105   106    2
   129   105   107    1
   130   107   108    1
   131   107   109    1
   132   108   131    1
   133   108   132    1
   134   108   133    1
   135   109   134    1
   136   109   135    1
   137   109   136    1
   138   110   111    2
   139   110   112    1
   140   112   113    1
   141   112   114    1
   142   113   137    1
   143   113   138    1
   144   113   139    1
   145   114   140    1
   146   114   141    1
   147   114   142    1
@<TRIPOS>SUBSTRUCTURE
     1 RES1      142 GROUP             0 ****  ****    0  
