@<TRIPOS>MOLECULE
am_c3_9H2O_c0_0_nunpairedes_0_charge_3 Charge: 3 Unpaired_Electrons: 5 XTB_Unpaired_Electrons: 0 XTB_Charge: 3
   340   345     1     0     0
SMALL
NoCharges
****
Generated from Architector

@<TRIPOS>ATOM
     1 Sm1      -0.1928   -0.2862    0.4787   Sm        1 RES1   0.0000
     2 C1        4.3094    8.2664   -4.6204   C.3       1 RES1   0.0000
     3 C2        3.2206    7.7851   -5.5798   C.3       1 RES1   0.0000
     4 C3        2.4534    6.5946   -5.0020   C.3       1 RES1   0.0000
     5 C4        1.4059    6.0084   -5.9483   C.3       1 RES1   0.0000
     6 C5        0.8432    4.6590   -5.4649   C.3       1 RES1   0.0000
     7 C6       -0.3581    4.7743   -4.5041   C.3       1 RES1   0.0000
     8 C7       -0.3387    3.7736   -3.3368   C.3       1 RES1   0.0000
     9 C8       -1.7430    3.5726   -2.7154   C.3       1 RES1   0.0000
    10 N1       -1.7834    3.5973   -1.2477   N.am      1 RES1   0.0000
    11 C9       -2.0965    4.8708   -0.5972   C.3       1 RES1   0.0000
    12 C10      -3.5917    5.1977   -0.4270   C.3       1 RES1   0.0000
    13 C11      -3.9833    5.7087    0.9693   C.3       1 RES1   0.0000
    14 C12      -3.3200    7.0289    1.3910   C.3       1 RES1   0.0000
    15 C13      -2.0604    6.9046    2.2539   C.3       1 RES1   0.0000
    16 C14      -2.3087    6.2436    3.6137   C.3       1 RES1   0.0000
    17 C15      -1.2778    6.6539    4.6677   C.3       1 RES1   0.0000
    18 C16       0.1296    6.1590    4.3484   C.3       1 RES1   0.0000
    19 C17      -1.5465    2.5166   -0.5194   C.2       1 RES1   0.0000
    20 O1       -1.2065    1.4033   -0.9748   O.2       1 RES1   0.0000
    21 C18      -1.6873    2.6660    1.0083   C.3       1 RES1   0.0000
    22 O2       -1.6987    1.3846    1.6305   O.3       1 RES1   0.0000
    23 C19      -2.9949    1.0074    2.0805   C.3       1 RES1   0.0000
    24 C20      -3.2414   -0.4568    1.7243   C.2       1 RES1   0.0000
    25 O3       -2.5009   -0.9798    0.8720   O.2       1 RES1   0.0000
    26 N2       -4.2547   -1.0715    2.3177   N.am      1 RES1   0.0000
    27 C21      -5.0523   -0.4634    3.3794   C.3       1 RES1   0.0000
    28 C22      -5.9979    0.6897    3.0139   C.3       1 RES1   0.0000
    29 C23      -6.9594    0.3999    1.8619   C.3       1 RES1   0.0000
    30 C24      -6.3847    0.7267    0.4840   C.3       1 RES1   0.0000
    31 C25      -7.4621    0.5691   -0.5937   C.3       1 RES1   0.0000
    32 C26      -6.9760    0.6902   -2.0476   C.3       1 RES1   0.0000
    33 C27      -6.8766    2.0977   -2.6432   C.3       1 RES1   0.0000
    34 C28      -5.6909    2.9139   -2.1381   C.3       1 RES1   0.0000
    35 C29      -4.4874   -2.4813    1.9998   C.3       1 RES1   0.0000
    36 C30      -5.1686   -2.6806    0.6444   C.3       1 RES1   0.0000
    37 C31      -5.4494   -4.1607    0.3366   C.3       1 RES1   0.0000
    38 C32      -4.3854   -4.8122   -0.5494   C.3       1 RES1   0.0000
    39 C33      -2.9601   -4.8113    0.0123   C.3       1 RES1   0.0000
    40 C34      -2.7387   -5.6645    1.2701   C.3       1 RES1   0.0000
    41 C35      -2.5569   -7.1570    0.9727   C.3       1 RES1   0.0000
    42 C36      -1.1789   -7.4818    0.4051   C.3       1 RES1   0.0000
    43 H1        4.8562    9.1060   -5.0434   H         1 RES1   0.0000
    44 H2        3.8777    8.5949   -3.6772   H         1 RES1   0.0000
    45 H3        5.0250    7.4742   -4.4115   H         1 RES1   0.0000
    46 H4        2.5404    8.6132   -5.7848   H         1 RES1   0.0000
    47 H5        3.6852    7.4913   -6.5258   H         1 RES1   0.0000
    48 H6        3.1865    5.8160   -4.7683   H         1 RES1   0.0000
    49 H7        1.9713    6.9073   -4.0735   H         1 RES1   0.0000
    50 H8        0.5929    6.7198   -6.0938   H         1 RES1   0.0000
    51 H9        1.8559    5.8653   -6.9314   H         1 RES1   0.0000
    52 H10       0.5285    4.0938   -6.3439   H         1 RES1   0.0000
    53 H11       1.6570    4.0889   -5.0075   H         1 RES1   0.0000
    54 H12      -0.4159    5.7894   -4.1065   H         1 RES1   0.0000
    55 H13      -1.2680    4.5941   -5.0800   H         1 RES1   0.0000
    56 H14       0.0405    2.8262   -3.7217   H         1 RES1   0.0000
    57 H15       0.3500    4.1155   -2.5639   H         1 RES1   0.0000
    58 H16      -2.1623    2.6184   -3.0467   H         1 RES1   0.0000
    59 H17      -2.3954    4.3787   -3.0448   H         1 RES1   0.0000
    60 H18      -1.6120    4.9054    0.3738   H         1 RES1   0.0000
    61 H19      -1.6468    5.6551   -1.1952   H         1 RES1   0.0000
    62 H20      -3.8662    5.9639   -1.1501   H         1 RES1   0.0000
    63 H21      -4.1905    4.3185   -0.6603   H         1 RES1   0.0000
    64 H22      -5.0661    5.8603    0.9509   H         1 RES1   0.0000
    65 H23      -3.7826    4.9466    1.7268   H         1 RES1   0.0000
    66 H24      -3.0920    7.6133    0.4982   H         1 RES1   0.0000
    67 H25      -4.0447    7.6041    1.9680   H         1 RES1   0.0000
    68 H26      -1.2652    6.3774    1.7222   H         1 RES1   0.0000
    69 H27      -1.7067    7.9196    2.4359   H         1 RES1   0.0000
    70 H28      -3.2992    6.5350    3.9673   H         1 RES1   0.0000
    71 H29      -2.2916    5.1527    3.5211   H         1 RES1   0.0000
    72 H30      -1.2614    7.7421    4.7454   H         1 RES1   0.0000
    73 H31      -1.5879    6.2559    5.6377   H         1 RES1   0.0000
    74 H32       0.5128    6.6318    3.4451   H         1 RES1   0.0000
    75 H33       0.7998    6.4051    5.1690   H         1 RES1   0.0000
    76 H34       0.1367    5.0768    4.2053   H         1 RES1   0.0000
    77 H35      -0.8084    3.2025    1.3917   H         1 RES1   0.0000
    78 H36      -2.6049    3.2101    1.2461   H         1 RES1   0.0000
    79 H37      -3.0612    1.1819    3.1607   H         1 RES1   0.0000
    80 H38      -3.7661    1.5893    1.5663   H         1 RES1   0.0000
    81 H39      -5.6547   -1.2675    3.8037   H         1 RES1   0.0000
    82 H40      -4.3774   -0.1203    4.1718   H         1 RES1   0.0000
    83 H41      -6.5783    0.8573    3.9210   H         1 RES1   0.0000
    84 H42      -5.4557    1.6166    2.8171   H         1 RES1   0.0000
    85 H43      -7.2768   -0.6420    1.9008   H         1 RES1   0.0000
    86 H44      -7.8531    1.0070    2.0035   H         1 RES1   0.0000
    87 H45      -6.0203    1.7552    0.4927   H         1 RES1   0.0000
    88 H46      -5.5405    0.0743    0.2490   H         1 RES1   0.0000
    89 H47      -7.8921   -0.4307   -0.4766   H         1 RES1   0.0000
    90 H48      -8.2621    1.2898   -0.4042   H         1 RES1   0.0000
    91 H49      -6.0053    0.1926   -2.1458   H         1 RES1   0.0000
    92 H50      -7.6915    0.1504   -2.6695   H         1 RES1   0.0000
    93 H51      -6.7774    1.9926   -3.7252   H         1 RES1   0.0000
    94 H52      -7.7985    2.6507   -2.4576   H         1 RES1   0.0000
    95 H53      -4.7599    2.3467   -2.2251   H         1 RES1   0.0000
    96 H54      -5.5922    3.8292   -2.7231   H         1 RES1   0.0000
    97 H55      -5.8458    3.1899   -1.0957   H         1 RES1   0.0000
    98 H56      -3.5217   -2.9873    1.9925   H         1 RES1   0.0000
    99 H57      -5.1109   -2.9036    2.7882   H         1 RES1   0.0000
   100 H58      -6.1116   -2.1382    0.6440   H         1 RES1   0.0000
   101 H59      -4.5385   -2.2633   -0.1440   H         1 RES1   0.0000
   102 H60      -5.5700   -4.7263    1.2638   H         1 RES1   0.0000
   103 H61      -6.4019   -4.2302   -0.1966   H         1 RES1   0.0000
   104 H62      -4.6914   -5.8374   -0.7603   H         1 RES1   0.0000
   105 H63      -4.3750   -4.2747   -1.5006   H         1 RES1   0.0000
   106 H64      -2.3121   -5.2110   -0.7675   H         1 RES1   0.0000
   107 H65      -2.6292   -3.7823    0.2008   H         1 RES1   0.0000
   108 H66      -1.8328   -5.3047    1.7738   H         1 RES1   0.0000
   109 H67      -3.5742   -5.5316    1.9611   H         1 RES1   0.0000
   110 H68      -2.6899   -7.7172    1.8985   H         1 RES1   0.0000
   111 H69      -3.3266   -7.4857    0.2739   H         1 RES1   0.0000
   112 H70      -0.3968   -7.2784    1.1353   H         1 RES1   0.0000
   113 H71      -1.1368   -8.5320    0.1350   H         1 RES1   0.0000
   114 H72      -0.9765   -6.8978   -0.4906   H         1 RES1   0.0000
   115 C37      -1.6643    8.7050   -5.3689   C.3       1 RES1   0.0000
   116 C38      -1.7515    9.6351   -4.1650   C.3       1 RES1   0.0000
   117 C39      -1.5293    8.9082   -2.8381   C.3       1 RES1   0.0000
   118 C40      -0.0881    8.7764   -2.3336   C.3       1 RES1   0.0000
   119 C41      -0.1430    7.7880   -1.1677   C.3       1 RES1   0.0000
   120 C42       1.1623    7.3160   -0.5206   C.3       1 RES1   0.0000
   121 C43       1.8248    6.1588   -1.2979   C.3       1 RES1   0.0000
   122 C44       2.0418    4.9218   -0.4090   C.3       1 RES1   0.0000
   123 N3        2.2425    3.6677   -1.1423   N.am      1 RES1   0.0000
   124 C45       3.1068    3.7264   -2.3136   C.3       1 RES1   0.0000
   125 C46       4.5579    3.2886   -2.0279   C.3       1 RES1   0.0000
   126 C47       5.1093    2.3266   -3.0924   C.3       1 RES1   0.0000
   127 C48       4.8013    2.7749   -4.5332   C.3       1 RES1   0.0000
   128 C49       3.8672    1.8310   -5.2917   C.3       1 RES1   0.0000
   129 C50       4.5578    0.5139   -5.6516   C.3       1 RES1   0.0000
   130 C51       3.9264   -0.1911   -6.8507   C.3       1 RES1   0.0000
   131 C52       2.5702   -0.8107   -6.5332   C.3       1 RES1   0.0000
   132 C53       1.7413    2.5100   -0.7166   C.2       1 RES1   0.0000
   133 O4        1.0972    2.3241    0.3277   O.2       1 RES1   0.0000
   134 C54       1.9395    1.2602   -1.6002   C.3       1 RES1   0.0000
   135 O5        1.9535    0.1112   -0.7514   O.3       1 RES1   0.0000
   136 C55       3.1975    0.0426   -0.0523   C.3       1 RES1   0.0000
   137 C56       2.9637   -0.3915    1.3896   C.2       1 RES1   0.0000
   138 O6        1.7996   -0.3561    1.8387   O.2       1 RES1   0.0000
   139 N4        4.0270   -0.7573    2.0993   N.am      1 RES1   0.0000
   140 C57       5.3626   -0.9831    1.5335   C.3       1 RES1   0.0000
   141 C58       6.2275    0.1817    1.0281   C.3       1 RES1   0.0000
   142 C59       6.7429    1.1465    2.0996   C.3       1 RES1   0.0000
   143 C60       5.7266    2.1895    2.5731   C.3       1 RES1   0.0000
   144 C61       6.2971    2.9934    3.7467   C.3       1 RES1   0.0000
   145 C62       5.2745    3.8321    4.5234   C.3       1 RES1   0.0000
   146 C63       4.6686    5.0236    3.7632   C.3       1 RES1   0.0000
   147 C64       3.2961    4.7360    3.1647   C.3       1 RES1   0.0000
   148 C65       3.8256   -1.3086    3.4426   C.3       1 RES1   0.0000
   149 C66       4.4708   -0.5081    4.5784   C.3       1 RES1   0.0000
   150 C67       4.6557   -1.3819    5.8329   C.3       1 RES1   0.0000
   151 C68       4.2259   -0.6957    7.1404   C.3       1 RES1   0.0000
   152 C69       3.1693   -1.5002    7.8908   C.3       1 RES1   0.0000
   153 C70       3.7727   -2.7626    8.4994   C.3       1 RES1   0.0000
   154 C71       2.7813   -3.5441    9.3581   C.3       1 RES1   0.0000
   155 C72       1.6942   -4.2233    8.5315   C.3       1 RES1   0.0000
   156 H73      -2.0095    9.1998   -6.2709   H         1 RES1   0.0000
   157 H74      -0.6427    8.3802   -5.5386   H         1 RES1   0.0000
   158 H75      -2.2931    7.8294   -5.2236   H         1 RES1   0.0000
   159 H76      -1.0376   10.4509   -4.2733   H         1 RES1   0.0000
   160 H77      -2.7530   10.0677   -4.1445   H         1 RES1   0.0000
   161 H78      -2.1036    9.4149   -2.0612   H         1 RES1   0.0000
   162 H79      -1.9446    7.8989   -2.9347   H         1 RES1   0.0000
   163 H80       0.5650    8.4086   -3.1265   H         1 RES1   0.0000
   164 H81       0.2945    9.7404   -2.0046   H         1 RES1   0.0000
   165 H82      -0.7836    8.2057   -0.3880   H         1 RES1   0.0000
   166 H83      -0.6505    6.9059   -1.5630   H         1 RES1   0.0000
   167 H84       1.8586    8.1479   -0.4242   H         1 RES1   0.0000
   168 H85       0.9295    6.9778    0.4895   H         1 RES1   0.0000
   169 H86       1.1917    5.8970   -2.1461   H         1 RES1   0.0000
   170 H87       2.7786    6.5140   -1.6918   H         1 RES1   0.0000
   171 H88       2.9183    5.0997    0.2186   H         1 RES1   0.0000
   172 H89       1.1713    4.7786    0.2338   H         1 RES1   0.0000
   173 H90       2.6716    3.1208   -3.1054   H         1 RES1   0.0000
   174 H91       3.1026    4.7524   -2.6675   H         1 RES1   0.0000
   175 H92       5.1934    4.1731   -1.9882   H         1 RES1   0.0000
   176 H93       4.6192    2.8146   -1.0415   H         1 RES1   0.0000
   177 H94       6.1896    2.2426   -2.9559   H         1 RES1   0.0000
   178 H95       4.7011    1.3236   -2.9275   H         1 RES1   0.0000
   179 H96       4.3753    3.7778   -4.5263   H         1 RES1   0.0000
   180 H97       5.7237    2.8350   -5.1066   H         1 RES1   0.0000
   181 H98       2.9579    1.6370   -4.7139   H         1 RES1   0.0000
   182 H99       3.5628    2.3232   -6.2157   H         1 RES1   0.0000
   183 H100      5.5982    0.7329   -5.8904   H         1 RES1   0.0000
   184 H101      4.5508   -0.1619   -4.7934   H         1 RES1   0.0000
   185 H102      3.8140    0.5270   -7.6647   H         1 RES1   0.0000
   186 H103      4.6052   -0.9723   -7.1972   H         1 RES1   0.0000
   187 H104      1.8726   -0.0569   -6.1721   H         1 RES1   0.0000
   188 H105      2.1525   -1.2557   -7.4318   H         1 RES1   0.0000
   189 H106      2.6710   -1.5904   -5.7774   H         1 RES1   0.0000
   190 H107      1.0669    1.1681   -2.2625   H         1 RES1   0.0000
   191 H108      2.8593    1.2746   -2.1894   H         1 RES1   0.0000
   192 H109      3.8684   -0.6542   -0.5764   H         1 RES1   0.0000
   193 H110      3.6593    1.0382   -0.0155   H         1 RES1   0.0000
   194 H111      5.9239   -1.4759    2.3280   H         1 RES1   0.0000
   195 H112      5.2638   -1.6949    0.7060   H         1 RES1   0.0000
   196 H113      7.1012   -0.3181    0.6024   H         1 RES1   0.0000
   197 H114      5.7481    0.7318    0.2177   H         1 RES1   0.0000
   198 H115      7.1148    0.5605    2.9457   H         1 RES1   0.0000
   199 H116      7.6060    1.6705    1.6836   H         1 RES1   0.0000
   200 H117      5.4932    2.8589    1.7393   H         1 RES1   0.0000
   201 H118      4.8015    1.6946    2.8803   H         1 RES1   0.0000
   202 H119      6.7483    2.2921    4.4569   H         1 RES1   0.0000
   203 H120      7.0949    3.6468    3.3837   H         1 RES1   0.0000
   204 H121      4.4739    3.1764    4.8820   H         1 RES1   0.0000
   205 H122      5.8019    4.2184    5.3988   H         1 RES1   0.0000
   206 H123      4.5553    5.8568    4.4598   H         1 RES1   0.0000
   207 H124      5.3576    5.3483    2.9816   H         1 RES1   0.0000
   208 H125      2.5731    4.5893    3.9623   H         1 RES1   0.0000
   209 H126      2.9616    5.5838    2.5715   H         1 RES1   0.0000
   210 H127      3.3024    3.8482    2.5340   H         1 RES1   0.0000
   211 H128      2.7477   -1.3649    3.6074   H         1 RES1   0.0000
   212 H129      4.2377   -2.3233    3.4425   H         1 RES1   0.0000
   213 H130      5.4399   -0.1249    4.2673   H         1 RES1   0.0000
   214 H131      3.8315    0.3461    4.7991   H         1 RES1   0.0000
   215 H132      4.0716   -2.2993    5.7145   H         1 RES1   0.0000
   216 H133      5.7025   -1.6806    5.9118   H         1 RES1   0.0000
   217 H134      5.0832   -0.5672    7.7983   H         1 RES1   0.0000
   218 H135      3.8450    0.3024    6.9321   H         1 RES1   0.0000
   219 H136      2.7481   -0.8876    8.6892   H         1 RES1   0.0000
   220 H137      2.3567   -1.7672    7.2119   H         1 RES1   0.0000
   221 H138      4.1618   -3.4099    7.7092   H         1 RES1   0.0000
   222 H139      4.6181   -2.4714    9.1216   H         1 RES1   0.0000
   223 H140      3.3334   -4.3002    9.9192   H         1 RES1   0.0000
   224 H141      2.3132   -2.8647   10.0729   H         1 RES1   0.0000
   225 H142      2.1325   -4.7234    7.6691   H         1 RES1   0.0000
   226 H143      1.1675   -4.9641    9.1268   H         1 RES1   0.0000
   227 H144      0.9607   -3.5023    8.1771   H         1 RES1   0.0000
   228 C73       1.8663    2.6940    8.3841   C.3       1 RES1   0.0000
   229 C74       1.8994    3.2143    6.9519   C.3       1 RES1   0.0000
   230 C75       1.5172    2.1553    5.9134   C.3       1 RES1   0.0000
   231 C76       0.0101    1.9680    5.8041   C.3       1 RES1   0.0000
   232 C77      -0.4342    0.9100    4.7888   C.3       1 RES1   0.0000
   233 C78       0.0491   -0.5266    5.0621   C.3       1 RES1   0.0000
   234 C79      -0.9888   -1.5249    4.5411   C.3       1 RES1   0.0000
   235 C80      -0.5550   -2.9907    4.4951   C.3       1 RES1   0.0000
   236 N5        0.5384   -3.3478    3.5797   N.am      1 RES1   0.0000
   237 C81       1.4586   -4.3730    4.0670   C.3       1 RES1   0.0000
   238 C82       0.8207   -5.7797    4.0707   C.3       1 RES1   0.0000
   239 C83       1.6925   -6.8751    3.4466   C.3       1 RES1   0.0000
   240 C84       2.8010   -7.4076    4.3579   C.3       1 RES1   0.0000
   241 C85       4.0594   -6.5402    4.4737   C.3       1 RES1   0.0000
   242 C86       4.6946   -6.2215    3.1159   C.3       1 RES1   0.0000
   243 C87       6.2143   -6.0558    3.1587   C.3       1 RES1   0.0000
   244 C88       6.6939   -4.8944    4.0210   C.3       1 RES1   0.0000
   245 C89       0.5085   -2.9595    2.3123   C.2       1 RES1   0.0000
   246 O7       -0.3263   -2.1529    1.8651   O.2       1 RES1   0.0000
   247 C90       1.5288   -3.5236    1.3015   C.3       1 RES1   0.0000
   248 O8        1.3590   -2.8362    0.0720   O.3       1 RES1   0.0000
   249 C91       0.8752   -3.6239   -1.0102   C.3       1 RES1   0.0000
   250 C92      -0.0480   -2.7339   -1.8504   C.2       1 RES1   0.0000
   251 O9       -0.3958   -1.6320   -1.3655   O.2       1 RES1   0.0000
   252 N6       -0.4368   -3.1430   -3.0470   N.am      1 RES1   0.0000
   253 C93       0.0070   -4.3752   -3.6939   C.3       1 RES1   0.0000
   254 C94      -0.6601   -5.6556   -3.1470   C.3       1 RES1   0.0000
   255 C95      -1.4514   -6.4711   -4.1897   C.3       1 RES1   0.0000
   256 C96      -2.7154   -7.0931   -3.5843   C.3       1 RES1   0.0000
   257 C97      -3.5585   -7.8182   -4.6388   C.3       1 RES1   0.0000
   258 C98      -5.0326   -7.9481   -4.2497   C.3       1 RES1   0.0000
   259 C99      -5.2803   -8.8053   -3.0096   C.3       1 RES1   0.0000
   260 C100     -6.7607   -8.8268   -2.6360   C.3       1 RES1   0.0000
   261 C101     -1.3431   -2.3059   -3.8312   C.3       1 RES1   0.0000
   262 C102     -2.7249   -2.9529   -3.9860   C.3       1 RES1   0.0000
   263 C103     -3.4524   -2.5694   -5.2853   C.3       1 RES1   0.0000
   264 C104     -4.4760   -1.4417   -5.1240   C.3       1 RES1   0.0000
   265 C105     -3.8594   -0.0522   -4.9441   C.3       1 RES1   0.0000
   266 C106     -3.3302    0.5277   -6.2593   C.3       1 RES1   0.0000
   267 C107     -2.2095    1.5514   -6.0721   C.3       1 RES1   0.0000
   268 C108     -0.8966    0.9196   -5.6095   C.3       1 RES1   0.0000
   269 H145      2.1412    3.4838    9.0789   H         1 RES1   0.0000
   270 H146      0.8732    2.3446    8.6569   H         1 RES1   0.0000
   271 H147      2.5657    1.8694    8.5182   H         1 RES1   0.0000
   272 H148      1.2321    4.0729    6.8630   H         1 RES1   0.0000
   273 H149      2.9073    3.5694    6.7393   H         1 RES1   0.0000
   274 H150      1.9027    2.4460    4.9329   H         1 RES1   0.0000
   275 H151      1.9795    1.2076    6.1873   H         1 RES1   0.0000
   276 H152     -0.4007    1.7162    6.7810   H         1 RES1   0.0000
   277 H153     -0.4335    2.9217    5.5116   H         1 RES1   0.0000
   278 H154     -1.5296    0.9074    4.8054   H         1 RES1   0.0000
   279 H155     -0.1007    1.1930    3.7771   H         1 RES1   0.0000
   280 H156      1.0003   -0.6839    4.5491   H         1 RES1   0.0000
   281 H157      0.2114   -0.6790    6.1318   H         1 RES1   0.0000
   282 H158     -1.8586   -1.4920    5.1995   H         1 RES1   0.0000
   283 H159     -1.3114   -1.2101    3.5458   H         1 RES1   0.0000
   284 H160     -0.2404   -3.3005    5.4875   H         1 RES1   0.0000
   285 H161     -1.4300   -3.5915    4.2260   H         1 RES1   0.0000
   286 H162      2.3452   -4.3760    3.4329   H         1 RES1   0.0000
   287 H163      1.7620   -4.0805    5.0762   H         1 RES1   0.0000
   288 H164      0.5668   -6.0779    5.0887   H         1 RES1   0.0000
   289 H165     -0.1180   -5.7292    3.5148   H         1 RES1   0.0000
   290 H166      1.0373   -7.7167    3.2162   H         1 RES1   0.0000
   291 H167      2.1228   -6.5262    2.5051   H         1 RES1   0.0000
   292 H168      2.3862   -7.5682    5.3554   H         1 RES1   0.0000
   293 H169      3.1044   -8.3818    3.9711   H         1 RES1   0.0000
   294 H170      3.8371   -5.6199    5.0183   H         1 RES1   0.0000
   295 H171      4.7810   -7.1027    5.0690   H         1 RES1   0.0000
   296 H172      4.4718   -7.0386    2.4292   H         1 RES1   0.0000
   297 H173      4.2489   -5.3155    2.6916   H         1 RES1   0.0000
   298 H174      6.6608   -6.9762    3.5354   H         1 RES1   0.0000
   299 H175      6.5731   -5.9067    2.1371   H         1 RES1   0.0000
   300 H176      6.2560   -3.9506    3.6930   H         1 RES1   0.0000
   301 H177      7.7754   -4.8072    3.9444   H         1 RES1   0.0000
   302 H178      6.4391   -5.0510    5.0664   H         1 RES1   0.0000
   303 H179      2.5586   -3.3538    1.6330   H         1 RES1   0.0000
   304 H180      1.3822   -4.6001    1.1696   H         1 RES1   0.0000
   305 H181      1.7306   -3.9962   -1.5938   H         1 RES1   0.0000
   306 H182      0.3179   -4.4958   -0.6463   H         1 RES1   0.0000
   307 H183     -0.2379   -4.2740   -4.7514   H         1 RES1   0.0000
   308 H184      1.0944   -4.4374   -3.6151   H         1 RES1   0.0000
   309 H185      0.0956   -6.3019   -2.6964   H         1 RES1   0.0000
   310 H186     -1.3521   -5.3588   -2.3557   H         1 RES1   0.0000
   311 H187     -1.7555   -5.8331   -5.0234   H         1 RES1   0.0000
   312 H188     -0.8123   -7.2575   -4.5946   H         1 RES1   0.0000
   313 H189     -2.4335   -7.7960   -2.7981   H         1 RES1   0.0000
   314 H190     -3.3269   -6.3030   -3.1361   H         1 RES1   0.0000
   315 H191     -3.5120   -7.2605   -5.5778   H         1 RES1   0.0000
   316 H192     -3.1407   -8.8072   -4.8278   H         1 RES1   0.0000
   317 H193     -5.4401   -6.9464   -4.0883   H         1 RES1   0.0000
   318 H194     -5.5726   -8.3919   -5.0882   H         1 RES1   0.0000
   319 H195     -4.9428   -9.8258   -3.2025   H         1 RES1   0.0000
   320 H196     -4.7022   -8.4184   -2.1654   H         1 RES1   0.0000
   321 H197     -7.3692   -9.1382   -3.4829   H         1 RES1   0.0000
   322 H198     -6.9395   -9.5181   -1.8145   H         1 RES1   0.0000
   323 H199     -7.0973   -7.8376   -2.3270   H         1 RES1   0.0000
   324 H200     -1.4077   -1.3380   -3.3298   H         1 RES1   0.0000
   325 H201     -0.8916   -2.1694   -4.8175   H         1 RES1   0.0000
   326 H202     -2.5936   -4.0312   -3.9849   H         1 RES1   0.0000
   327 H203     -3.3443   -2.6977   -3.1259   H         1 RES1   0.0000
   328 H204     -2.7182   -2.2879   -6.0422   H         1 RES1   0.0000
   329 H205     -3.9810   -3.4492   -5.6601   H         1 RES1   0.0000
   330 H206     -5.1199   -1.4264   -6.0050   H         1 RES1   0.0000
   331 H207     -5.1196   -1.6715   -4.2710   H         1 RES1   0.0000
   332 H208     -4.6217    0.6184   -4.5440   H         1 RES1   0.0000
   333 H209     -3.0589   -0.1062   -4.2070   H         1 RES1   0.0000
   334 H210     -2.9649   -0.2758   -6.9002   H         1 RES1   0.0000
   335 H211     -4.1532    1.0069   -6.7900   H         1 RES1   0.0000
   336 H212     -2.0425    2.0604   -7.0241   H         1 RES1   0.0000
   337 H213     -2.5278    2.3022   -5.3450   H         1 RES1   0.0000
   338 H214     -0.7113    0.0010   -6.1596   H         1 RES1   0.0000
   339 H215     -0.0620    1.5923   -5.7963   H         1 RES1   0.0000
   340 H216     -0.9192    0.6810   -4.5454   H         1 RES1   0.0000
@<TRIPOS>BOND
     1     1    20    1
     2     1    22    1
     3     1    25    1
     4     1   133    1
     5     1   135    1
     6     1   138    1
     7     1   246    1
     8     1   248    1
     9     1   251    1
    10     2     3    1
    11     2    43    1
    12     2    44    1
    13     2    45    1
    14     3     4    1
    15     3    46    1
    16     3    47    1
    17     4     5    1
    18     4    48    1
    19     4    49    1
    20     5     6    1
    21     5    50    1
    22     5    51    1
    23     6     7    1
    24     6    52    1
    25     6    53    1
    26     7     8    1
    27     7    54    1
    28     7    55    1
    29     8     9    1
    30     8    56    1
    31     8    57    1
    32     9    10    1
    33     9    58    1
    34     9    59    1
    35    10    11    1
    36    10    19    1
    37    11    12    1
    38    11    60    1
    39    11    61    1
    40    12    13    1
    41    12    62    1
    42    12    63    1
    43    13    14    1
    44    13    64    1
    45    13    65    1
    46    14    15    1
    47    14    66    1
    48    14    67    1
    49    15    16    1
    50    15    68    1
    51    15    69    1
    52    16    17    1
    53    16    70    1
    54    16    71    1
    55    17    18    1
    56    17    72    1
    57    17    73    1
    58    18    74    1
    59    18    75    1
    60    18    76    1
    61    19    20    2
    62    19    21    1
    63    21    22    1
    64    21    77    1
    65    21    78    1
    66    22    23    1
    67    23    24    1
    68    23    79    1
    69    23    80    1
    70    24    25    2
    71    24    26    1
    72    26    27    1
    73    26    35    1
    74    27    28    1
    75    27    81    1
    76    27    82    1
    77    28    29    1
    78    28    83    1
    79    28    84    1
    80    29    30    1
    81    29    85    1
    82    29    86    1
    83    30    31    1
    84    30    87    1
    85    30    88    1
    86    31    32    1
    87    31    89    1
    88    31    90    1
    89    32    33    1
    90    32    91    1
    91    32    92    1
    92    33    34    1
    93    33    93    1
    94    33    94    1
    95    34    95    1
    96    34    96    1
    97    34    97    1
    98    35    36    1
    99    35    98    1
   100    35    99    1
   101    36    37    1
   102    36   100    1
   103    36   101    1
   104    37    38    1
   105    37   102    1
   106    37   103    1
   107    38    39    1
   108    38   104    1
   109    38   105    1
   110    39    40    1
   111    39   106    1
   112    39   107    1
   113    40    41    1
   114    40   108    1
   115    40   109    1
   116    41    42    1
   117    41   110    1
   118    41   111    1
   119    42   112    1
   120    42   113    1
   121    42   114    1
   122   115   116    1
   123   115   156    1
   124   115   157    1
   125   115   158    1
   126   116   117    1
   127   116   159    1
   128   116   160    1
   129   117   118    1
   130   117   161    1
   131   117   162    1
   132   118   119    1
   133   118   163    1
   134   118   164    1
   135   119   120    1
   136   119   165    1
   137   119   166    1
   138   120   121    1
   139   120   167    1
   140   120   168    1
   141   121   122    1
   142   121   169    1
   143   121   170    1
   144   122   123    1
   145   122   171    1
   146   122   172    1
   147   123   124    1
   148   123   132    1
   149   124   125    1
   150   124   173    1
   151   124   174    1
   152   125   126    1
   153   125   175    1
   154   125   176    1
   155   126   127    1
   156   126   177    1
   157   126   178    1
   158   127   128    1
   159   127   179    1
   160   127   180    1
   161   128   129    1
   162   128   181    1
   163   128   182    1
   164   129   130    1
   165   129   183    1
   166   129   184    1
   167   130   131    1
   168   130   185    1
   169   130   186    1
   170   131   187    1
   171   131   188    1
   172   131   189    1
   173   132   133    2
   174   132   134    1
   175   134   135    1
   176   134   190    1
   177   134   191    1
   178   135   136    1
   179   136   137    1
   180   136   192    1
   181   136   193    1
   182   137   138    2
   183   137   139    1
   184   139   140    1
   185   139   148    1
   186   140   141    1
   187   140   194    1
   188   140   195    1
   189   141   142    1
   190   141   196    1
   191   141   197    1
   192   142   143    1
   193   142   198    1
   194   142   199    1
   195   143   144    1
   196   143   200    1
   197   143   201    1
   198   144   145    1
   199   144   202    1
   200   144   203    1
   201   145   146    1
   202   145   204    1
   203   145   205    1
   204   146   147    1
   205   146   206    1
   206   146   207    1
   207   147   208    1
   208   147   209    1
   209   147   210    1
   210   148   149    1
   211   148   211    1
   212   148   212    1
   213   149   150    1
   214   149   213    1
   215   149   214    1
   216   150   151    1
   217   150   215    1
   218   150   216    1
   219   151   152    1
   220   151   217    1
   221   151   218    1
   222   152   153    1
   223   152   219    1
   224   152   220    1
   225   153   154    1
   226   153   221    1
   227   153   222    1
   228   154   155    1
   229   154   223    1
   230   154   224    1
   231   155   225    1
   232   155   226    1
   233   155   227    1
   234   228   229    1
   235   228   269    1
   236   228   270    1
   237   228   271    1
   238   229   230    1
   239   229   272    1
   240   229   273    1
   241   230   231    1
   242   230   274    1
   243   230   275    1
   244   231   232    1
   245   231   276    1
   246   231   277    1
   247   232   233    1
   248   232   278    1
   249   232   279    1
   250   233   234    1
   251   233   280    1
   252   233   281    1
   253   234   235    1
   254   234   282    1
   255   234   283    1
   256   235   236    1
   257   235   284    1
   258   235   285    1
   259   236   237    1
   260   236   245    1
   261   237   238    1
   262   237   286    1
   263   237   287    1
   264   238   239    1
   265   238   288    1
   266   238   289    1
   267   239   240    1
   268   239   290    1
   269   239   291    1
   270   240   241    1
   271   240   292    1
   272   240   293    1
   273   241   242    1
   274   241   294    1
   275   241   295    1
   276   242   243    1
   277   242   296    1
   278   242   297    1
   279   243   244    1
   280   243   298    1
   281   243   299    1
   282   244   300    1
   283   244   301    1
   284   244   302    1
   285   245   246    2
   286   245   247    1
   287   247   248    1
   288   247   303    1
   289   247   304    1
   290   248   249    1
   291   249   250    1
   292   249   305    1
   293   249   306    1
   294   250   251    2
   295   250   252    1
   296   252   253    1
   297   252   261    1
   298   253   254    1
   299   253   307    1
   300   253   308    1
   301   254   255    1
   302   254   309    1
   303   254   310    1
   304   255   256    1
   305   255   311    1
   306   255   312    1
   307   256   257    1
   308   256   313    1
   309   256   314    1
   310   257   258    1
   311   257   315    1
   312   257   316    1
   313   258   259    1
   314   258   317    1
   315   258   318    1
   316   259   260    1
   317   259   319    1
   318   259   320    1
   319   260   321    1
   320   260   322    1
   321   260   323    1
   322   261   262    1
   323   261   324    1
   324   261   325    1
   325   262   263    1
   326   262   326    1
   327   262   327    1
   328   263   264    1
   329   263   328    1
   330   263   329    1
   331   264   265    1
   332   264   330    1
   333   264   331    1
   334   265   266    1
   335   265   332    1
   336   265   333    1
   337   266   267    1
   338   266   334    1
   339   266   335    1
   340   267   268    1
   341   267   336    1
   342   267   337    1
   343   268   338    1
   344   268   339    1
   345   268   340    1
@<TRIPOS>SUBSTRUCTURE
     1 RES1      340 GROUP             0 ****  ****    0  
