@<TRIPOS>MOLECULE
am_c3_9H2O_c0_0_nunpairedes_0_charge_3 Charge: 3 Unpaired_Electrons: 5 XTB_Unpaired_Electrons: 0 XTB_Charge: 3
   412   417     1     0     0
SMALL
NoCharges
****
Generated from Architector

@<TRIPOS>ATOM
     1 Sm1      -0.3007   -0.0075    0.0144   Sm        1 RES1   0.0000
     2 C1        5.5783    2.2673   -7.2484   C.3       1 RES1   0.0000
     3 C2        5.6447    2.2065   -5.7237   C.3       1 RES1   0.0000
     4 C3        5.2475    3.5200   -5.0366   C.3       1 RES1   0.0000
     5 C4        3.7897    3.5873   -4.5777   C.3       1 RES1   0.0000
     6 C5        2.7702    3.4254   -5.7023   C.3       1 RES1   0.0000
     7 C6        1.3314    3.6509   -5.2245   C.3       1 RES1   0.0000
     8 C7        0.2960    3.1757   -6.2602   C.3       1 RES1   0.0000
     9 C8       -0.7548    2.1786   -5.7546   C.3       1 RES1   0.0000
    10 C9       -0.1478    0.9530   -5.0700   C.3       1 RES1   0.0000
    11 C10      -1.0476   -0.2859   -5.0581   C.3       1 RES1   0.0000
    12 N1       -2.2256   -0.2456   -4.1720   N.am      1 RES1   0.0000
    13 C11      -3.4839   -0.7539   -4.7447   C.3       1 RES1   0.0000
    14 C12      -3.2044   -1.9560   -5.6775   C.3       1 RES1   0.0000
    15 C13      -4.1987   -3.1235   -5.6211   C.3       1 RES1   0.0000
    16 C14      -3.5918   -4.3612   -6.3139   C.3       1 RES1   0.0000
    17 C15      -3.6792   -5.6604   -5.5047   C.3       1 RES1   0.0000
    18 C16      -5.0885   -6.2097   -5.2965   C.3       1 RES1   0.0000
    19 C17      -5.0347   -7.5904   -4.6341   C.3       1 RES1   0.0000
    20 C18      -4.6947   -7.5814   -3.1377   C.3       1 RES1   0.0000
    21 C19      -5.9198   -7.7757   -2.2409   C.3       1 RES1   0.0000
    22 C20      -6.9991   -6.7181   -2.4383   C.3       1 RES1   0.0000
    23 C21      -1.9916   -0.0596   -2.8686   C.2       1 RES1   0.0000
    24 O1       -0.8359   -0.0394   -2.4077   O.2       1 RES1   0.0000
    25 C22      -3.1543    0.2448   -1.8902   C.3       1 RES1   0.0000
    26 O2       -2.7576   -0.1967   -0.5800   O.3       1 RES1   0.0000
    27 C23      -3.5777    0.2770    0.5025   C.3       1 RES1   0.0000
    28 C24      -2.9742    1.6140    0.9814   C.2       1 RES1   0.0000
    29 O3       -1.7267    1.6572    0.9440   O.2       1 RES1   0.0000
    30 N2       -3.7277    2.6627    1.3118   N.am      1 RES1   0.0000
    31 C25      -5.0373    2.5492    1.9589   C.3       1 RES1   0.0000
    32 C26      -6.2420    2.0535    1.1598   C.3       1 RES1   0.0000
    33 C27      -6.4981    2.8403   -0.1282   C.3       1 RES1   0.0000
    34 C28      -7.4854    3.9950    0.0536   C.3       1 RES1   0.0000
    35 C29      -8.8437    3.5837    0.6389   C.3       1 RES1   0.0000
    36 C30      -9.4661    2.3119    0.0540   C.3       1 RES1   0.0000
    37 C31      -9.6981    2.2692   -1.4589   C.3       1 RES1   0.0000
    38 C32     -10.9253    3.0434   -1.9445   C.3       1 RES1   0.0000
    39 C33     -10.7082    4.5364   -2.1910   C.3       1 RES1   0.0000
    40 C34      -9.7950    4.8216   -3.3774   C.3       1 RES1   0.0000
    41 C35      -3.1618    4.0007    1.0584   C.3       1 RES1   0.0000
    42 C36      -3.2291    5.0972    2.1238   C.3       1 RES1   0.0000
    43 C37      -2.0568    5.1654    3.1093   C.3       1 RES1   0.0000
    44 C38      -2.3535    4.4823    4.4389   C.3       1 RES1   0.0000
    45 C39      -3.3133    5.2593    5.3393   C.3       1 RES1   0.0000
    46 C40      -3.6313    4.4435    6.5904   C.3       1 RES1   0.0000
    47 C41      -4.6844    5.0708    7.5005   C.3       1 RES1   0.0000
    48 C42      -6.0449    5.3084    6.8453   C.3       1 RES1   0.0000
    49 C43      -6.6823    4.0485    6.2606   C.3       1 RES1   0.0000
    50 C44      -8.0570    4.3425    5.6658   C.3       1 RES1   0.0000
    51 H1        5.8201    1.2969   -7.6782   H         1 RES1   0.0000
    52 H2        6.3030    2.9887   -7.6196   H         1 RES1   0.0000
    53 H3        4.5932    2.5625   -7.6023   H         1 RES1   0.0000
    54 H4        6.6750    1.9641   -5.4524   H         1 RES1   0.0000
    55 H5        5.0111    1.3964   -5.3524   H         1 RES1   0.0000
    56 H6        5.4472    4.3502   -5.7130   H         1 RES1   0.0000
    57 H7        5.8745    3.6631   -4.1542   H         1 RES1   0.0000
    58 H8        3.6329    4.5501   -4.0845   H         1 RES1   0.0000
    59 H9        3.6111    2.8041   -3.8342   H         1 RES1   0.0000
    60 H10       2.8555    2.4185   -6.1095   H         1 RES1   0.0000
    61 H11       2.9942    4.1291   -6.5031   H         1 RES1   0.0000
    62 H12       1.2041    4.7202   -5.0309   H         1 RES1   0.0000
    63 H13       1.1944    3.1266   -4.2729   H         1 RES1   0.0000
    64 H14       0.8306    2.7054   -7.0842   H         1 RES1   0.0000
    65 H15      -0.2259    4.0401   -6.6705   H         1 RES1   0.0000
    66 H16      -1.3339    1.8649   -6.6279   H         1 RES1   0.0000
    67 H17      -1.4397    2.6820   -5.0685   H         1 RES1   0.0000
    68 H18       0.1591    1.1861   -4.0514   H         1 RES1   0.0000
    69 H19       0.7462    0.6613   -5.6232   H         1 RES1   0.0000
    70 H20      -0.4289   -1.1382   -4.7701   H         1 RES1   0.0000
    71 H21      -1.4005   -0.4517   -6.0710   H         1 RES1   0.0000
    72 H22      -3.9924    0.0547   -5.2782   H         1 RES1   0.0000
    73 H23      -4.1366   -1.0824   -3.9366   H         1 RES1   0.0000
    74 H24      -2.2393   -2.3696   -5.3893   H         1 RES1   0.0000
    75 H25      -3.1398   -1.6207   -6.7130   H         1 RES1   0.0000
    76 H26      -4.4316   -3.3631   -4.5808   H         1 RES1   0.0000
    77 H27      -5.1399   -2.8536   -6.0997   H         1 RES1   0.0000
    78 H28      -2.5312   -4.1750   -6.5182   H         1 RES1   0.0000
    79 H29      -4.0685   -4.5090   -7.2818   H         1 RES1   0.0000
    80 H30      -3.2048   -5.5205   -4.5312   H         1 RES1   0.0000
    81 H31      -3.1076   -6.4214   -6.0412   H         1 RES1   0.0000
    82 H32      -5.5692   -6.3092   -6.2699   H         1 RES1   0.0000
    83 H33      -5.6890   -5.5192   -4.7023   H         1 RES1   0.0000
    84 H34      -4.2908   -8.1814   -5.1696   H         1 RES1   0.0000
    85 H35      -5.9897   -8.0954   -4.7694   H         1 RES1   0.0000
    86 H36      -4.1925   -6.6503   -2.8660   H         1 RES1   0.0000
    87 H37      -3.9966   -8.3941   -2.9230   H         1 RES1   0.0000
    88 H38      -5.5987   -7.7785   -1.1942   H         1 RES1   0.0000
    89 H39      -6.3466   -8.7585   -2.4482   H         1 RES1   0.0000
    90 H40      -6.6099   -5.7221   -2.2402   H         1 RES1   0.0000
    91 H41      -7.8310   -6.9009   -1.7623   H         1 RES1   0.0000
    92 H42      -7.3782   -6.7479   -3.4556   H         1 RES1   0.0000
    93 H43      -4.1039   -0.2255   -2.1676   H         1 RES1   0.0000
    94 H44      -3.2919    1.3361   -1.9153   H         1 RES1   0.0000
    95 H45      -3.4749   -0.4681    1.3080   H         1 RES1   0.0000
    96 H46      -4.6216    0.3534    0.1853   H         1 RES1   0.0000
    97 H47      -5.2862    3.5412    2.3306   H         1 RES1   0.0000
    98 H48      -4.9024    1.8946    2.8237   H         1 RES1   0.0000
    99 H49      -7.0998    2.1622    1.8243   H         1 RES1   0.0000
   100 H50      -6.1749    0.9861    0.9539   H         1 RES1   0.0000
   101 H51      -6.8878    2.1699   -0.8917   H         1 RES1   0.0000
   102 H52      -5.5536    3.2418   -0.5016   H         1 RES1   0.0000
   103 H53      -7.6363    4.4639   -0.9186   H         1 RES1   0.0000
   104 H54      -7.0505    4.7539    0.7075   H         1 RES1   0.0000
   105 H55      -9.5308    4.4205    0.5133   H         1 RES1   0.0000
   106 H56      -8.7462    3.4349    1.7197   H         1 RES1   0.0000
   107 H57     -10.4283    2.1664    0.5469   H         1 RES1   0.0000
   108 H58      -8.8395    1.4605    0.3337   H         1 RES1   0.0000
   109 H59      -9.8470    1.2193   -1.7188   H         1 RES1   0.0000
   110 H60      -8.8099    2.6072   -1.9930   H         1 RES1   0.0000
   111 H61     -11.7286    2.9159   -1.2174   H         1 RES1   0.0000
   112 H62     -11.2691    2.5973   -2.8800   H         1 RES1   0.0000
   113 H63     -10.3051    5.0150   -1.2990   H         1 RES1   0.0000
   114 H64     -11.6824    4.9882   -2.3878   H         1 RES1   0.0000
   115 H65      -8.7872    4.4451   -3.2105   H         1 RES1   0.0000
   116 H66      -9.7280    5.8923   -3.5512   H         1 RES1   0.0000
   117 H67     -10.1888    4.3552   -4.2766   H         1 RES1   0.0000
   118 H68      -3.6943    4.3720    0.1745   H         1 RES1   0.0000
   119 H69      -2.1173    3.8389    0.7870   H         1 RES1   0.0000
   120 H70      -4.1538    5.0322    2.6917   H         1 RES1   0.0000
   121 H71      -3.2667    6.0391    1.5733   H         1 RES1   0.0000
   122 H72      -1.8203    6.2101    3.3058   H         1 RES1   0.0000
   123 H73      -1.1666    4.7202    2.6594   H         1 RES1   0.0000
   124 H74      -1.4200    4.3378    4.9855   H         1 RES1   0.0000
   125 H75      -2.7809    3.4987    4.2434   H         1 RES1   0.0000
   126 H76      -4.2360    5.4843    4.8047   H         1 RES1   0.0000
   127 H77      -2.8661    6.2119    5.6253   H         1 RES1   0.0000
   128 H78      -2.7098    4.3188    7.1629   H         1 RES1   0.0000
   129 H79      -3.9619    3.4483    6.2878   H         1 RES1   0.0000
   130 H80      -4.3112    6.0240    7.8729   H         1 RES1   0.0000
   131 H81      -4.8176    4.4144    8.3604   H         1 RES1   0.0000
   132 H82      -5.9534    6.0627    6.0612   H         1 RES1   0.0000
   133 H83      -6.7180    5.7155    7.6019   H         1 RES1   0.0000
   134 H84      -6.7813    3.2956    7.0458   H         1 RES1   0.0000
   135 H85      -6.0415    3.6308    5.4781   H         1 RES1   0.0000
   136 H86      -8.7227    4.7420    6.4278   H         1 RES1   0.0000
   137 H87      -8.5073    3.4345    5.2632   H         1 RES1   0.0000
   138 H88      -7.9803    5.0789    4.8648   H         1 RES1   0.0000
   139 C45      -7.2627   -3.6568    6.9293   C.3       1 RES1   0.0000
   140 C46      -7.3677   -3.8064    5.4159   C.3       1 RES1   0.0000
   141 C47      -7.7798   -2.5096    4.7065   C.3       1 RES1   0.0000
   142 C48      -6.6113   -1.7391    4.0903   C.3       1 RES1   0.0000
   143 C49      -5.6077   -1.2260    5.1199   C.3       1 RES1   0.0000
   144 C50      -4.4719   -0.4521    4.4545   C.3       1 RES1   0.0000
   145 C51      -3.5412    0.1969    5.4733   C.3       1 RES1   0.0000
   146 C52      -2.3013    0.8343    4.8460   C.3       1 RES1   0.0000
   147 C53      -1.2906   -0.1827    4.3014   C.3       1 RES1   0.0000
   148 C54       0.1472    0.1243    4.7251   C.3       1 RES1   0.0000
   149 N3        0.6865    1.3401    4.1132   N.am      1 RES1   0.0000
   150 C55       1.0112    2.4284    5.0215   C.3       1 RES1   0.0000
   151 C56       2.2332    2.1670    5.9131   C.3       1 RES1   0.0000
   152 C57       3.5461    2.0147    5.1442   C.3       1 RES1   0.0000
   153 C58       3.7974    0.5938    4.6285   C.3       1 RES1   0.0000
   154 C59       4.7118    0.5632    3.4042   C.3       1 RES1   0.0000
   155 C60       6.1254    1.0518    3.7057   C.3       1 RES1   0.0000
   156 C61       7.0041    1.1499    2.4603   C.3       1 RES1   0.0000
   157 C62       6.5152    2.2087    1.4677   C.3       1 RES1   0.0000
   158 C63       7.5766    2.5906    0.4314   C.3       1 RES1   0.0000
   159 C64       8.6688    3.4686    1.0293   C.3       1 RES1   0.0000
   160 C65       0.8594    1.3611    2.8006   C.2       1 RES1   0.0000
   161 O4        0.6147    0.3674    2.0850   O.2       1 RES1   0.0000
   162 C66       1.3360    2.6347    2.1003   C.3       1 RES1   0.0000
   163 O5        1.4550    2.3457    0.7155   O.3       1 RES1   0.0000
   164 C67       1.3584    3.4870   -0.1379   C.3       1 RES1   0.0000
   165 C68       0.1501    3.2498   -1.0438   C.2       1 RES1   0.0000
   166 O6       -0.2428    2.0649   -1.1092   O.2       1 RES1   0.0000
   167 N4       -0.5199    4.2240   -1.6598   N.am      1 RES1   0.0000
   168 C69       0.0097    5.5146   -2.1075   C.3       1 RES1   0.0000
   169 C70       0.7285    6.4443   -1.1268   C.3       1 RES1   0.0000
   170 C71      -0.1164    6.9078    0.0591   C.3       1 RES1   0.0000
   171 C72       0.3868    8.2256    0.6612   C.3       1 RES1   0.0000
   172 C73       1.8439    8.2236    1.1325   C.3       1 RES1   0.0000
   173 C74       2.1804    7.2628    2.2737   C.3       1 RES1   0.0000
   174 C75       1.4067    7.4677    3.5785   C.3       1 RES1   0.0000
   175 C76       1.6814    8.8007    4.2879   C.3       1 RES1   0.0000
   176 C77       0.7173    9.9411    3.9473   C.3       1 RES1   0.0000
   177 C78      -0.7047    9.6890    4.4383   C.3       1 RES1   0.0000
   178 C79      -1.7442    3.7309   -2.3214   C.3       1 RES1   0.0000
   179 C80      -2.7936    4.7621   -2.7264   C.3       1 RES1   0.0000
   180 C81      -4.1370    4.0949   -3.0860   C.3       1 RES1   0.0000
   181 C82      -4.3055    3.7131   -4.5614   C.3       1 RES1   0.0000
   182 C83      -4.4315    4.9370   -5.4803   C.3       1 RES1   0.0000
   183 C84      -3.6705    4.7741   -6.7945   C.3       1 RES1   0.0000
   184 C85      -3.7485    6.0199   -7.6801   C.3       1 RES1   0.0000
   185 C86      -3.2568    7.3108   -7.0226   C.3       1 RES1   0.0000
   186 C87      -1.8035    7.2627   -6.5571   C.3       1 RES1   0.0000
   187 C88      -1.3845    8.5964   -5.9525   C.3       1 RES1   0.0000
   188 H89      -6.9685   -4.5991    7.3816   H         1 RES1   0.0000
   189 H90      -8.2317   -3.3781    7.3338   H         1 RES1   0.0000
   190 H91      -6.5426   -2.8949    7.2168   H         1 RES1   0.0000
   191 H92      -8.1115   -4.5772    5.2084   H         1 RES1   0.0000
   192 H93      -6.4197   -4.1597    5.0022   H         1 RES1   0.0000
   193 H94      -8.3030   -1.8635    5.4122   H         1 RES1   0.0000
   194 H95      -8.4792   -2.7404    3.9013   H         1 RES1   0.0000
   195 H96      -7.0080   -0.8841    3.5324   H         1 RES1   0.0000
   196 H97      -6.0933   -2.3868    3.3779   H         1 RES1   0.0000
   197 H98      -5.1882   -2.0627    5.6768   H         1 RES1   0.0000
   198 H99      -6.1198   -0.5758    5.8308   H         1 RES1   0.0000
   199 H100     -4.9115    0.3220    3.8198   H         1 RES1   0.0000
   200 H101     -3.9032   -1.1228    3.8064   H         1 RES1   0.0000
   201 H102     -3.2213   -0.5458    6.2046   H         1 RES1   0.0000
   202 H103     -4.1013    0.9621    6.0134   H         1 RES1   0.0000
   203 H104     -1.8256    1.4408    5.6176   H         1 RES1   0.0000
   204 H105     -2.6058    1.5062    4.0422   H         1 RES1   0.0000
   205 H106     -1.3462   -0.2326    3.2088   H         1 RES1   0.0000
   206 H107     -1.5292   -1.1735    4.6843   H         1 RES1   0.0000
   207 H108      0.7843   -0.7227    4.4632   H         1 RES1   0.0000
   208 H109      0.1838    0.2503    5.8072   H         1 RES1   0.0000
   209 H110      0.1441    2.5877    5.6656   H         1 RES1   0.0000
   210 H111      1.1790    3.3377    4.4481   H         1 RES1   0.0000
   211 H112      2.0715    1.2881    6.5390   H         1 RES1   0.0000
   212 H113      2.3098    3.0261    6.5798   H         1 RES1   0.0000
   213 H114      4.3693    2.2885    5.8016   H         1 RES1   0.0000
   214 H115      3.5561    2.7211    4.3120   H         1 RES1   0.0000
   215 H116      2.8539    0.1193    4.3540   H         1 RES1   0.0000
   216 H117      4.2385   -0.0010    5.4298   H         1 RES1   0.0000
   217 H118      4.2666    1.1832    2.6222   H         1 RES1   0.0000
   218 H119      4.7649   -0.4608    3.0225   H         1 RES1   0.0000
   219 H120      6.5910    0.3663    4.4141   H         1 RES1   0.0000
   220 H121      6.0835    2.0349    4.1743   H         1 RES1   0.0000
   221 H122      7.0547    0.1801    1.9598   H         1 RES1   0.0000
   222 H123      8.0142    1.4028    2.7822   H         1 RES1   0.0000
   223 H124      6.2301    3.1111    2.0162   H         1 RES1   0.0000
   224 H125      5.6250    1.8385    0.9464   H         1 RES1   0.0000
   225 H126      7.0951    3.1381   -0.3844   H         1 RES1   0.0000
   226 H127      8.0114    1.6840    0.0055   H         1 RES1   0.0000
   227 H128      8.2364    4.3821    1.4320   H         1 RES1   0.0000
   228 H129      9.3984    3.7390    0.2725   H         1 RES1   0.0000
   229 H130      9.1918    2.9568    1.8318   H         1 RES1   0.0000
   230 H131      2.3067    2.9730    2.4838   H         1 RES1   0.0000
   231 H132      0.5812    3.4157    2.2626   H         1 RES1   0.0000
   232 H133      2.2799    3.5510   -0.7311   H         1 RES1   0.0000
   233 H134      1.2405    4.3963    0.4490   H         1 RES1   0.0000
   234 H135     -0.8460    6.0613   -2.4899   H         1 RES1   0.0000
   235 H136      0.6876    5.3186   -2.9460   H         1 RES1   0.0000
   236 H137      0.9776    7.3286   -1.7170   H         1 RES1   0.0000
   237 H138      1.6709    6.0154   -0.7906   H         1 RES1   0.0000
   238 H139     -0.1658    6.1446    0.8365   H         1 RES1   0.0000
   239 H140     -1.1387    7.0775   -0.2857   H         1 RES1   0.0000
   240 H141     -0.2648    8.4988    1.4916   H         1 RES1   0.0000
   241 H142      0.2915    9.0079   -0.0958   H         1 RES1   0.0000
   242 H143      2.0970    9.2352    1.4502   H         1 RES1   0.0000
   243 H144      2.4952    7.9853    0.2878   H         1 RES1   0.0000
   244 H145      3.2465    7.3670    2.4878   H         1 RES1   0.0000
   245 H146      2.0212    6.2325    1.9362   H         1 RES1   0.0000
   246 H147      1.6948    6.6555    4.2537   H         1 RES1   0.0000
   247 H148      0.3376    7.3622    3.3952   H         1 RES1   0.0000
   248 H149      2.7006    9.1171    4.0609   H         1 RES1   0.0000
   249 H150      1.6293    8.6413    5.3673   H         1 RES1   0.0000
   250 H151      0.7062   10.1280    2.8729   H         1 RES1   0.0000
   251 H152      1.0891   10.8483    4.4285   H         1 RES1   0.0000
   252 H153     -1.1662    8.8469    3.9240   H         1 RES1   0.0000
   253 H154     -1.3213   10.5664    4.2621   H         1 RES1   0.0000
   254 H155     -0.7040    9.4802    5.5057   H         1 RES1   0.0000
   255 H156     -2.2018    3.0564   -1.5876   H         1 RES1   0.0000
   256 H157     -1.4457    3.1220   -3.1815   H         1 RES1   0.0000
   257 H158     -2.4674    5.3464   -3.5857   H         1 RES1   0.0000
   258 H159     -2.9550    5.4380   -1.8846   H         1 RES1   0.0000
   259 H160     -4.9475    4.7804   -2.8337   H         1 RES1   0.0000
   260 H161     -4.2691    3.1983   -2.4719   H         1 RES1   0.0000
   261 H162     -5.2011    3.0944   -4.6490   H         1 RES1   0.0000
   262 H163     -3.4620    3.0999   -4.8802   H         1 RES1   0.0000
   263 H164     -4.0401    5.8098   -4.9605   H         1 RES1   0.0000
   264 H165     -5.4810    5.1399   -5.6986   H         1 RES1   0.0000
   265 H166     -4.0782    3.9262   -7.3498   H         1 RES1   0.0000
   266 H167     -2.6241    4.5469   -6.5766   H         1 RES1   0.0000
   267 H168     -4.7851    6.1650   -7.9911   H         1 RES1   0.0000
   268 H169     -3.1572    5.8381   -8.5790   H         1 RES1   0.0000
   269 H170     -3.8974    7.5676   -6.1771   H         1 RES1   0.0000
   270 H171     -3.3578    8.1167   -7.7505   H         1 RES1   0.0000
   271 H172     -1.1594    7.0241   -7.4046   H         1 RES1   0.0000
   272 H173     -1.6718    6.4748   -5.8113   H         1 RES1   0.0000
   273 H174     -1.4803    9.3910   -6.6870   H         1 RES1   0.0000
   274 H175     -0.3514    8.5689   -5.6135   H         1 RES1   0.0000
   275 H176     -2.0200    8.8462   -5.1049   H         1 RES1   0.0000
   276 C89      -7.3355   -0.6907   -5.6881   C.3       1 RES1   0.0000
   277 C90      -7.6655   -0.0191   -4.3576   C.3       1 RES1   0.0000
   278 C91      -8.2765   -0.9817   -3.3233   C.3       1 RES1   0.0000
   279 C92      -7.3346   -1.3221   -2.1622   C.3       1 RES1   0.0000
   280 C93      -6.4519   -2.5372   -2.4576   C.3       1 RES1   0.0000
   281 C94      -5.3673   -2.7403   -1.3955   C.3       1 RES1   0.0000
   282 C95      -4.4333   -3.9319   -1.6734   C.3       1 RES1   0.0000
   283 C96      -2.9342   -3.6332   -1.5002   C.3       1 RES1   0.0000
   284 C97      -2.1327   -3.4175   -2.7893   C.3       1 RES1   0.0000
   285 C98      -0.8724   -4.2735   -2.9156   C.3       1 RES1   0.0000
   286 N5        0.3743   -3.8489   -2.2588   N.am      1 RES1   0.0000
   287 C99       1.5217   -4.5930   -2.7691   C.3       1 RES1   0.0000
   288 C100      2.1440   -3.9634   -4.0298   C.3       1 RES1   0.0000
   289 C101      3.3417   -3.0367   -3.7621   C.3       1 RES1   0.0000
   290 C102      3.0034   -1.5370   -3.7651   C.3       1 RES1   0.0000
   291 C103      3.9796   -0.6820   -2.9473   C.3       1 RES1   0.0000
   292 C104      5.4504   -0.9074   -3.2935   C.3       1 RES1   0.0000
   293 C105      6.3754   -0.2611   -2.2594   C.3       1 RES1   0.0000
   294 C106      6.4541   -1.0516   -0.9412   C.3       1 RES1   0.0000
   295 C107      7.7954   -1.7643   -0.7421   C.3       1 RES1   0.0000
   296 C108      8.0391   -2.8732   -1.7593   C.3       1 RES1   0.0000
   297 C109      0.4823   -2.8888   -1.3539   C.2       1 RES1   0.0000
   298 O7       -0.4410   -2.1235   -1.0287   O.2       1 RES1   0.0000
   299 C110      1.8232   -2.6898   -0.6291   C.3       1 RES1   0.0000
   300 O8        1.6591   -1.8134    0.4833   O.3       1 RES1   0.0000
   301 C111      1.3317   -2.5009    1.7023   C.3       1 RES1   0.0000
   302 C112     -0.1685   -2.8299    1.7057   C.2       1 RES1   0.0000
   303 O9       -0.9515   -1.8868    1.4526   O.2       1 RES1   0.0000
   304 N6       -0.5727   -4.0804    1.8927   N.am      1 RES1   0.0000
   305 C113      0.2279   -5.1809    2.4286   C.3       1 RES1   0.0000
   306 C114      1.0049   -6.0746    1.4424   C.3       1 RES1   0.0000
   307 C115      0.1603   -6.8939    0.4546   C.3       1 RES1   0.0000
   308 C116      0.6194   -8.3483    0.2489   C.3       1 RES1   0.0000
   309 C117      2.0754   -8.5960   -0.1606   C.3       1 RES1   0.0000
   310 C118      2.5670   -7.8994   -1.4299   C.3       1 RES1   0.0000
   311 C119      1.8145   -8.2228   -2.7249   C.3       1 RES1   0.0000
   312 C120      1.9906   -9.6586   -3.2373   C.3       1 RES1   0.0000
   313 C121      0.8682  -10.6261   -2.8580   C.3       1 RES1   0.0000
   314 C122     -0.4554  -10.2916   -3.5381   C.3       1 RES1   0.0000
   315 C123     -1.9296   -4.4167    1.4718   C.3       1 RES1   0.0000
   316 C124     -2.9190   -4.9961    2.4771   C.3       1 RES1   0.0000
   317 C125     -3.4716   -3.9766    3.4685   C.3       1 RES1   0.0000
   318 C126     -2.5484   -3.7058    4.6534   C.3       1 RES1   0.0000
   319 C127     -2.5138   -4.8664    5.6418   C.3       1 RES1   0.0000
   320 C128     -1.3979   -4.7023    6.6687   C.3       1 RES1   0.0000
   321 C129     -1.3631   -5.8405    7.6907   C.3       1 RES1   0.0000
   322 C130     -1.2914   -7.2417    7.0820   C.3       1 RES1   0.0000
   323 C131     -0.0853   -7.4601    6.1722   C.3       1 RES1   0.0000
   324 C132     -0.1137   -8.8469    5.5390   C.3       1 RES1   0.0000
   325 H177     -6.8722    0.0200   -6.3708   H         1 RES1   0.0000
   326 H178     -8.2457   -1.0611   -6.1528   H         1 RES1   0.0000
   327 H179     -6.6600   -1.5317   -5.5425   H         1 RES1   0.0000
   328 H180     -8.3643    0.7973   -4.5523   H         1 RES1   0.0000
   329 H181     -6.7563    0.4332   -3.9477   H         1 RES1   0.0000
   330 H182     -8.5773   -1.9039   -3.8197   H         1 RES1   0.0000
   331 H183     -9.1823   -0.5339   -2.9173   H         1 RES1   0.0000
   332 H184     -7.9167   -1.5272   -1.2631   H         1 RES1   0.0000
   333 H185     -6.7042   -0.4510   -1.9501   H         1 RES1   0.0000
   334 H186     -5.9852   -2.4120   -3.4344   H         1 RES1   0.0000
   335 H187     -7.0887   -3.4221   -2.5115   H         1 RES1   0.0000
   336 H188     -5.8520   -2.8751   -0.4245   H         1 RES1   0.0000
   337 H189     -4.7788   -1.8240   -1.3215   H         1 RES1   0.0000
   338 H190     -4.6204   -4.3117   -2.6745   H         1 RES1   0.0000
   339 H191     -4.6961   -4.7343   -0.9846   H         1 RES1   0.0000
   340 H192     -2.4908   -4.4887   -1.0001   H         1 RES1   0.0000
   341 H193     -2.8049   -2.7647   -0.8515   H         1 RES1   0.0000
   342 H194     -1.8685   -2.3719   -2.9040   H         1 RES1   0.0000
   343 H195     -2.7517   -3.7078   -3.6292   H         1 RES1   0.0000
   344 H196     -0.6346   -4.3685   -3.9804   H         1 RES1   0.0000
   345 H197     -1.0916   -5.2828   -2.5443   H         1 RES1   0.0000
   346 H198      1.1620   -5.5963   -3.0071   H         1 RES1   0.0000
   347 H199      2.2862   -4.6974   -2.0012   H         1 RES1   0.0000
   348 H200      1.3765   -3.4202   -4.5862   H         1 RES1   0.0000
   349 H201      2.4825   -4.7833   -4.6645   H         1 RES1   0.0000
   350 H202      4.0861   -3.2096   -4.5394   H         1 RES1   0.0000
   351 H203      3.8139   -3.3198   -2.8193   H         1 RES1   0.0000
   352 H204      1.9893   -1.3673   -3.3812   H         1 RES1   0.0000
   353 H205      3.0103   -1.1890   -4.7998   H         1 RES1   0.0000
   354 H206      3.8428   -0.8746   -1.8782   H         1 RES1   0.0000
   355 H207      3.7317    0.3706   -3.1106   H         1 RES1   0.0000
   356 H208      5.6544   -0.4880   -4.2783   H         1 RES1   0.0000
   357 H209      5.6683   -1.9735   -3.3333   H         1 RES1   0.0000
   358 H210      6.0355    0.7584   -2.0656   H         1 RES1   0.0000
   359 H211      7.3765   -0.1814   -2.6830   H         1 RES1   0.0000
   360 H212      5.6591   -1.8027   -0.9059   H         1 RES1   0.0000
   361 H213      6.2957   -0.3754   -0.0979   H         1 RES1   0.0000
   362 H214      7.8226   -2.1906    0.2655   H         1 RES1   0.0000
   363 H215      8.6022   -1.0311   -0.8059   H         1 RES1   0.0000
   364 H216      7.2539   -3.6261   -1.7040   H         1 RES1   0.0000
   365 H217      8.9904   -3.3582   -1.5597   H         1 RES1   0.0000
   366 H218      8.0699   -2.4741   -2.7701   H         1 RES1   0.0000
   367 H219      2.5407   -2.2115   -1.3026   H         1 RES1   0.0000
   368 H220      2.2439   -3.6369   -0.2859   H         1 RES1   0.0000
   369 H221      1.5405   -1.7811    2.4984   H         1 RES1   0.0000
   370 H222      1.9665   -3.3794    1.8198   H         1 RES1   0.0000
   371 H223     -0.4629   -5.8214    2.9786   H         1 RES1   0.0000
   372 H224      0.9304   -4.7732    3.1586   H         1 RES1   0.0000
   373 H225      1.5610   -6.7706    2.0715   H         1 RES1   0.0000
   374 H226      1.7386   -5.4828    0.8915   H         1 RES1   0.0000
   375 H227      0.1270   -6.3877   -0.5127   H         1 RES1   0.0000
   376 H228     -0.8605   -6.9694    0.8304   H         1 RES1   0.0000
   377 H229     -0.0466   -8.7892   -0.4957   H         1 RES1   0.0000
   378 H230      0.4568   -8.8947    1.1803   H         1 RES1   0.0000
   379 H231      2.1977   -9.6724   -0.2849   H         1 RES1   0.0000
   380 H232      2.7331   -8.2947    0.6593   H         1 RES1   0.0000
   381 H233      3.6162   -8.1689   -1.5701   H         1 RES1   0.0000
   382 H234      2.5375   -6.8182   -1.2634   H         1 RES1   0.0000
   383 H235      2.1948   -7.5436   -3.4935   H         1 RES1   0.0000
   384 H236      0.7535   -8.0071   -2.5947   H         1 RES1   0.0000
   385 H237      2.9408  -10.0503   -2.8732   H         1 RES1   0.0000
   386 H238      2.0513   -9.6390   -4.3275   H         1 RES1   0.0000
   387 H239      0.7335  -10.6507   -1.7762   H         1 RES1   0.0000
   388 H240      1.1694  -11.6271   -3.1705   H         1 RES1   0.0000
   389 H241     -0.8688   -9.3500   -3.1799   H         1 RES1   0.0000
   390 H242     -1.1865  -11.0715   -3.3437   H         1 RES1   0.0000
   391 H243     -0.3171  -10.2168   -4.6143   H         1 RES1   0.0000
   392 H244     -1.8048   -5.1493    0.6733   H         1 RES1   0.0000
   393 H245     -2.3578   -3.5000    1.0664   H         1 RES1   0.0000
   394 H246     -2.4968   -5.8469    3.0099   H         1 RES1   0.0000
   395 H247     -3.7470   -5.3788    1.8743   H         1 RES1   0.0000
   396 H248     -4.4261   -4.3411    3.8493   H         1 RES1   0.0000
   397 H249     -3.6675   -3.0475    2.9272   H         1 RES1   0.0000
   398 H250     -2.9007   -2.8200    5.1817   H         1 RES1   0.0000
   399 H251     -1.5374   -3.5007    4.2921   H         1 RES1   0.0000
   400 H252     -2.3668   -5.8023    5.1054   H         1 RES1   0.0000
   401 H253     -3.4725   -4.9332    6.1582   H         1 RES1   0.0000
   402 H254     -1.5359   -3.7582    7.2015   H         1 RES1   0.0000
   403 H255     -0.4363   -4.6413    6.1516   H         1 RES1   0.0000
   404 H256     -2.2611   -5.7813    8.3082   H         1 RES1   0.0000
   405 H257     -0.5015   -5.6905    8.3443   H         1 RES1   0.0000
   406 H258     -2.2074   -7.4505    6.5256   H         1 RES1   0.0000
   407 H259     -1.2465   -7.9640    7.8976   H         1 RES1   0.0000
   408 H260      0.8312   -7.3397    6.7519   H         1 RES1   0.0000
   409 H261     -0.0746   -6.7103    5.3768   H         1 RES1   0.0000
   410 H262     -0.1319   -9.6178    6.3059   H         1 RES1   0.0000
   411 H263      0.7653   -9.0089    4.9158   H         1 RES1   0.0000
   412 H264     -1.0038   -8.9683    4.9208   H         1 RES1   0.0000
@<TRIPOS>BOND
     1     1    24    1
     2     1    26    1
     3     1    29    1
     4     1   161    1
     5     1   163    1
     6     1   166    1
     7     1   298    1
     8     1   300    1
     9     1   303    1
    10     2     3    1
    11     2    51    1
    12     2    52    1
    13     2    53    1
    14     3     4    1
    15     3    54    1
    16     3    55    1
    17     4     5    1
    18     4    56    1
    19     4    57    1
    20     5     6    1
    21     5    58    1
    22     5    59    1
    23     6     7    1
    24     6    60    1
    25     6    61    1
    26     7     8    1
    27     7    62    1
    28     7    63    1
    29     8     9    1
    30     8    64    1
    31     8    65    1
    32     9    10    1
    33     9    66    1
    34     9    67    1
    35    10    11    1
    36    10    68    1
    37    10    69    1
    38    11    12    1
    39    11    70    1
    40    11    71    1
    41    12    13    1
    42    12    23    1
    43    13    14    1
    44    13    72    1
    45    13    73    1
    46    14    15    1
    47    14    74    1
    48    14    75    1
    49    15    16    1
    50    15    76    1
    51    15    77    1
    52    16    17    1
    53    16    78    1
    54    16    79    1
    55    17    18    1
    56    17    80    1
    57    17    81    1
    58    18    19    1
    59    18    82    1
    60    18    83    1
    61    19    20    1
    62    19    84    1
    63    19    85    1
    64    20    21    1
    65    20    86    1
    66    20    87    1
    67    21    22    1
    68    21    88    1
    69    21    89    1
    70    22    90    1
    71    22    91    1
    72    22    92    1
    73    23    24    2
    74    23    25    1
    75    25    26    1
    76    25    93    1
    77    25    94    1
    78    26    27    1
    79    27    28    1
    80    27    95    1
    81    27    96    1
    82    28    29    2
    83    28    30    1
    84    30    31    1
    85    30    41    1
    86    31    32    1
    87    31    97    1
    88    31    98    1
    89    32    33    1
    90    32    99    1
    91    32   100    1
    92    33    34    1
    93    33   101    1
    94    33   102    1
    95    34    35    1
    96    34   103    1
    97    34   104    1
    98    35    36    1
    99    35   105    1
   100    35   106    1
   101    36    37    1
   102    36   107    1
   103    36   108    1
   104    37    38    1
   105    37   109    1
   106    37   110    1
   107    38    39    1
   108    38   111    1
   109    38   112    1
   110    39    40    1
   111    39   113    1
   112    39   114    1
   113    40   115    1
   114    40   116    1
   115    40   117    1
   116    41    42    1
   117    41   118    1
   118    41   119    1
   119    42    43    1
   120    42   120    1
   121    42   121    1
   122    43    44    1
   123    43   122    1
   124    43   123    1
   125    44    45    1
   126    44   124    1
   127    44   125    1
   128    45    46    1
   129    45   126    1
   130    45   127    1
   131    46    47    1
   132    46   128    1
   133    46   129    1
   134    47    48    1
   135    47   130    1
   136    47   131    1
   137    48    49    1
   138    48   132    1
   139    48   133    1
   140    49    50    1
   141    49   134    1
   142    49   135    1
   143    50   136    1
   144    50   137    1
   145    50   138    1
   146   139   140    1
   147   139   188    1
   148   139   189    1
   149   139   190    1
   150   140   141    1
   151   140   191    1
   152   140   192    1
   153   141   142    1
   154   141   193    1
   155   141   194    1
   156   142   143    1
   157   142   195    1
   158   142   196    1
   159   143   144    1
   160   143   197    1
   161   143   198    1
   162   144   145    1
   163   144   199    1
   164   144   200    1
   165   145   146    1
   166   145   201    1
   167   145   202    1
   168   146   147    1
   169   146   203    1
   170   146   204    1
   171   147   148    1
   172   147   205    1
   173   147   206    1
   174   148   149    1
   175   148   207    1
   176   148   208    1
   177   149   150    1
   178   149   160    1
   179   150   151    1
   180   150   209    1
   181   150   210    1
   182   151   152    1
   183   151   211    1
   184   151   212    1
   185   152   153    1
   186   152   213    1
   187   152   214    1
   188   153   154    1
   189   153   215    1
   190   153   216    1
   191   154   155    1
   192   154   217    1
   193   154   218    1
   194   155   156    1
   195   155   219    1
   196   155   220    1
   197   156   157    1
   198   156   221    1
   199   156   222    1
   200   157   158    1
   201   157   223    1
   202   157   224    1
   203   158   159    1
   204   158   225    1
   205   158   226    1
   206   159   227    1
   207   159   228    1
   208   159   229    1
   209   160   161    2
   210   160   162    1
   211   162   163    1
   212   162   230    1
   213   162   231    1
   214   163   164    1
   215   164   165    1
   216   164   232    1
   217   164   233    1
   218   165   166    2
   219   165   167    1
   220   167   168    1
   221   167   178    1
   222   168   169    1
   223   168   234    1
   224   168   235    1
   225   169   170    1
   226   169   236    1
   227   169   237    1
   228   170   171    1
   229   170   238    1
   230   170   239    1
   231   171   172    1
   232   171   240    1
   233   171   241    1
   234   172   173    1
   235   172   242    1
   236   172   243    1
   237   173   174    1
   238   173   244    1
   239   173   245    1
   240   174   175    1
   241   174   246    1
   242   174   247    1
   243   175   176    1
   244   175   248    1
   245   175   249    1
   246   176   177    1
   247   176   250    1
   248   176   251    1
   249   177   252    1
   250   177   253    1
   251   177   254    1
   252   178   179    1
   253   178   255    1
   254   178   256    1
   255   179   180    1
   256   179   257    1
   257   179   258    1
   258   180   181    1
   259   180   259    1
   260   180   260    1
   261   181   182    1
   262   181   261    1
   263   181   262    1
   264   182   183    1
   265   182   263    1
   266   182   264    1
   267   183   184    1
   268   183   265    1
   269   183   266    1
   270   184   185    1
   271   184   267    1
   272   184   268    1
   273   185   186    1
   274   185   269    1
   275   185   270    1
   276   186   187    1
   277   186   271    1
   278   186   272    1
   279   187   273    1
   280   187   274    1
   281   187   275    1
   282   276   277    1
   283   276   325    1
   284   276   326    1
   285   276   327    1
   286   277   278    1
   287   277   328    1
   288   277   329    1
   289   278   279    1
   290   278   330    1
   291   278   331    1
   292   279   280    1
   293   279   332    1
   294   279   333    1
   295   280   281    1
   296   280   334    1
   297   280   335    1
   298   281   282    1
   299   281   336    1
   300   281   337    1
   301   282   283    1
   302   282   338    1
   303   282   339    1
   304   283   284    1
   305   283   340    1
   306   283   341    1
   307   284   285    1
   308   284   342    1
   309   284   343    1
   310   285   286    1
   311   285   344    1
   312   285   345    1
   313   286   287    1
   314   286   297    1
   315   287   288    1
   316   287   346    1
   317   287   347    1
   318   288   289    1
   319   288   348    1
   320   288   349    1
   321   289   290    1
   322   289   350    1
   323   289   351    1
   324   290   291    1
   325   290   352    1
   326   290   353    1
   327   291   292    1
   328   291   354    1
   329   291   355    1
   330   292   293    1
   331   292   356    1
   332   292   357    1
   333   293   294    1
   334   293   358    1
   335   293   359    1
   336   294   295    1
   337   294   360    1
   338   294   361    1
   339   295   296    1
   340   295   362    1
   341   295   363    1
   342   296   364    1
   343   296   365    1
   344   296   366    1
   345   297   298    2
   346   297   299    1
   347   299   300    1
   348   299   367    1
   349   299   368    1
   350   300   301    1
   351   301   302    1
   352   301   369    1
   353   301   370    1
   354   302   303    2
   355   302   304    1
   356   304   305    1
   357   304   315    1
   358   305   306    1
   359   305   371    1
   360   305   372    1
   361   306   307    1
   362   306   373    1
   363   306   374    1
   364   307   308    1
   365   307   375    1
   366   307   376    1
   367   308   309    1
   368   308   377    1
   369   308   378    1
   370   309   310    1
   371   309   379    1
   372   309   380    1
   373   310   311    1
   374   310   381    1
   375   310   382    1
   376   311   312    1
   377   311   383    1
   378   311   384    1
   379   312   313    1
   380   312   385    1
   381   312   386    1
   382   313   314    1
   383   313   387    1
   384   313   388    1
   385   314   389    1
   386   314   390    1
   387   314   391    1
   388   315   316    1
   389   315   392    1
   390   315   393    1
   391   316   317    1
   392   316   394    1
   393   316   395    1
   394   317   318    1
   395   317   396    1
   396   317   397    1
   397   318   319    1
   398   318   398    1
   399   318   399    1
   400   319   320    1
   401   319   400    1
   402   319   401    1
   403   320   321    1
   404   320   402    1
   405   320   403    1
   406   321   322    1
   407   321   404    1
   408   321   405    1
   409   322   323    1
   410   322   406    1
   411   322   407    1
   412   323   324    1
   413   323   408    1
   414   323   409    1
   415   324   410    1
   416   324   411    1
   417   324   412    1
@<TRIPOS>SUBSTRUCTURE
     1 RES1      412 GROUP             0 ****  ****    0  
