@<TRIPOS>MOLECULE
cn9_YICLED_0_nunpairedes_0_charge_3 Charge: 3 Unpaired_Electrons: 5 XTB_Unpaired_Electrons: 0 XTB_Charge: 3
   286   291     1     0     0
SMALL
NoCharges
****
Generated from Architector

@<TRIPOS>ATOM
     1 Sm1      -0.1065   -0.7158   -0.3012   Sm        1 RES1   0.0000
     2 C1        2.6247    0.0961   -3.0000   C.3       1 RES1   0.0000
     3 C2        1.1084    0.0043   -3.2216   C.3       1 RES1   0.0000
     4 C3        0.7427    0.9245   -4.3880   C.3       1 RES1   0.0000
     5 C4        0.7441   -1.4621   -3.5057   C.3       1 RES1   0.0000
     6 C5       -0.6643   -1.9826   -3.1762   C.3       1 RES1   0.0000
     7 C6       -0.5598   -3.4988   -2.9804   C.3       1 RES1   0.0000
     8 C7       -1.8392   -4.2966   -2.7341   C.3       1 RES1   0.0000
     9 C8       -2.7340   -4.3768   -3.9729   C.3       1 RES1   0.0000
    10 C9       -1.4409   -5.7147   -2.2898   C.3       1 RES1   0.0000
    11 C10      -0.6662   -5.8267   -0.9630   C.3       1 RES1   0.0000
    12 C11      -1.4815   -6.3399    0.2398   C.3       1 RES1   0.0000
    13 C12      -1.7415   -5.2787    1.3186   C.3       1 RES1   0.0000
    14 N1       -2.7998   -4.3520    0.9287   N.am      1 RES1   0.0000
    15 C13      -4.1577   -4.7846    1.1980   C.3       1 RES1   0.0000
    16 C14      -2.4847   -3.2266    0.2933   C.2       1 RES1   0.0000
    17 O1       -1.3106   -2.8198    0.1862   O.2       1 RES1   0.0000
    18 C15      -3.6446   -2.4456   -0.3269   C.3       1 RES1   0.0000
    19 O2       -3.0788   -1.5700   -1.2688   O.3       1 RES1   0.0000
    20 C16      -3.9751   -0.6497   -1.8519   C.3       1 RES1   0.0000
    21 C17      -3.1076    0.3754   -2.5858   C.2       1 RES1   0.0000
    22 O3       -1.9352    0.5382   -2.2157   O.2       1 RES1   0.0000
    23 N2       -3.6627    1.0462   -3.5961   N.am      1 RES1   0.0000
    24 C18      -5.0459    0.9083   -4.0010   C.3       1 RES1   0.0000
    25 C19      -2.7761    1.6935   -4.5587   C.3       1 RES1   0.0000
    26 C20      -3.0732    3.1394   -4.9310   C.3       1 RES1   0.0000
    27 C21      -2.8233    4.1180   -3.7844   C.3       1 RES1   0.0000
    28 C22      -3.9945    4.2049   -2.8061   C.3       1 RES1   0.0000
    29 C23      -3.9803    5.4933   -1.9621   C.3       1 RES1   0.0000
    30 C24      -5.4164    5.8878   -1.6388   C.3       1 RES1   0.0000
    31 C25      -3.1200    5.3358   -0.6988   C.3       1 RES1   0.0000
    32 C26      -2.7801    6.6700   -0.0230   C.3       1 RES1   0.0000
    33 C27      -2.1619    6.5292    1.3711   C.3       1 RES1   0.0000
    34 C28      -0.8864    5.6895    1.4001   C.3       1 RES1   0.0000
    35 C29      -0.3824    5.4588    2.8208   C.3       1 RES1   0.0000
    36 C30       0.2116    6.2987    0.5364   C.3       1 RES1   0.0000
    37 H1        2.9414    1.1194   -2.8329   H         1 RES1   0.0000
    38 H2        3.1209   -0.2492   -3.9023   H         1 RES1   0.0000
    39 H3        2.9618   -0.5096   -2.1606   H         1 RES1   0.0000
    40 H4        0.5523    0.3387   -2.3104   H         1 RES1   0.0000
    41 H5        1.4864    0.8474   -5.1769   H         1 RES1   0.0000
    42 H6        0.6994    1.9694   -4.0814   H         1 RES1   0.0000
    43 H7       -0.2159    0.6460   -4.8097   H         1 RES1   0.0000
    44 H8        1.4241   -2.0516   -2.9036   H         1 RES1   0.0000
    45 H9        0.9601   -1.6779   -4.5452   H         1 RES1   0.0000
    46 H10      -1.3764   -1.7491   -3.9737   H         1 RES1   0.0000
    47 H11      -1.0305   -1.5468   -2.2220   H         1 RES1   0.0000
    48 H12       0.0871   -3.6520   -2.1171   H         1 RES1   0.0000
    49 H13      -0.0673   -3.9379   -3.8449   H         1 RES1   0.0000
    50 H14      -2.3994   -3.8091   -1.9393   H         1 RES1   0.0000
    51 H15      -2.2202   -4.8563   -4.8030   H         1 RES1   0.0000
    52 H16      -3.0514   -3.3872   -4.2952   H         1 RES1   0.0000
    53 H17      -3.6274   -4.9616   -3.7631   H         1 RES1   0.0000
    54 H18      -0.8266   -6.1414   -3.0826   H         1 RES1   0.0000
    55 H19      -2.3355   -6.3340   -2.2431   H         1 RES1   0.0000
    56 H20      -0.2216   -4.8696   -0.6886   H         1 RES1   0.0000
    57 H21       0.1728   -6.5029   -1.1244   H         1 RES1   0.0000
    58 H22      -0.9422   -7.1582    0.7193   H         1 RES1   0.0000
    59 H23      -2.4299   -6.7512   -0.1057   H         1 RES1   0.0000
    60 H24      -0.8253   -4.7114    1.4949   H         1 RES1   0.0000
    61 H25      -2.0432   -5.7715    2.2448   H         1 RES1   0.0000
    62 H26      -4.1202   -5.7577    1.6824   H         1 RES1   0.0000
    63 H27      -4.7577   -4.8905    0.2944   H         1 RES1   0.0000
    64 H28      -4.6616   -4.0851    1.8674   H         1 RES1   0.0000
    65 H29      -4.1927   -1.8837    0.4407   H         1 RES1   0.0000
    66 H30      -4.3583   -3.1309   -0.8045   H         1 RES1   0.0000
    67 H31      -4.5582   -0.1264   -1.0800   H         1 RES1   0.0000
    68 H32      -4.6632   -1.1596   -2.5422   H         1 RES1   0.0000
    69 H33      -5.7215    0.8971   -3.1489   H         1 RES1   0.0000
    70 H34      -5.1910    0.0022   -4.5882   H         1 RES1   0.0000
    71 H35      -5.3019    1.7675   -4.6173   H         1 RES1   0.0000
    72 H36      -2.7736    1.0835   -5.4702   H         1 RES1   0.0000
    73 H37      -1.7858    1.6625   -4.1079   H         1 RES1   0.0000
    74 H38      -4.0944    3.2642   -5.2914   H         1 RES1   0.0000
    75 H39      -2.4059    3.3720   -5.7646   H         1 RES1   0.0000
    76 H40      -2.6606    5.1068   -4.2144   H         1 RES1   0.0000
    77 H41      -1.9059    3.8323   -3.2600   H         1 RES1   0.0000
    78 H42      -4.0062    3.3224   -2.1576   H         1 RES1   0.0000
    79 H43      -4.9226    4.2079   -3.3807   H         1 RES1   0.0000
    80 H44      -3.5343    6.2877   -2.5702   H         1 RES1   0.0000
    81 H45      -5.9183    5.0931   -1.0908   H         1 RES1   0.0000
    82 H46      -5.9494    6.0701   -2.5672   H         1 RES1   0.0000
    83 H47      -5.4524    6.7950   -1.0467   H         1 RES1   0.0000
    84 H48      -2.1948    4.8340   -0.9962   H         1 RES1   0.0000
    85 H49      -3.6349    4.6857    0.0175   H         1 RES1   0.0000
    86 H50      -3.6936    7.2526    0.0833   H         1 RES1   0.0000
    87 H51      -2.1119    7.2387   -0.6690   H         1 RES1   0.0000
    88 H52      -2.9040    6.0725    2.0291   H         1 RES1   0.0000
    89 H53      -1.9464    7.5246    1.7574   H         1 RES1   0.0000
    90 H54      -1.1540    4.7192    0.9790   H         1 RES1   0.0000
    91 H55      -1.1355    4.9808    3.4387   H         1 RES1   0.0000
    92 H56      -0.1238    6.4025    3.2849   H         1 RES1   0.0000
    93 H57       0.4984    4.8231    2.8132   H         1 RES1   0.0000
    94 H58       0.3165    7.3544    0.7617   H         1 RES1   0.0000
    95 H59      -0.0199    6.2202   -0.5219   H         1 RES1   0.0000
    96 H60       1.1618    5.8072    0.7222   H         1 RES1   0.0000
    97 C31       0.6769    8.6704    4.7346   C.3       1 RES1   0.0000
    98 C32       0.8914    9.1254    3.2934   C.3       1 RES1   0.0000
    99 C33       0.2185   10.4759    3.0630   C.3       1 RES1   0.0000
   100 C34       2.3845    9.1901    2.9554   C.3       1 RES1   0.0000
   101 C35       3.0589    7.8074    2.8925   C.3       1 RES1   0.0000
   102 C36       3.8800    7.6533    1.6094   C.3       1 RES1   0.0000
   103 C37       4.9574    6.5637    1.6574   C.3       1 RES1   0.0000
   104 C38       5.7074    6.5538    0.3278   C.3       1 RES1   0.0000
   105 C39       4.4114    5.1821    2.0490   C.3       1 RES1   0.0000
   106 C40       3.5677    4.4943    0.9621   C.3       1 RES1   0.0000
   107 C41       4.2959    3.3252    0.2858   C.3       1 RES1   0.0000
   108 C42       3.9230    3.1072   -1.1889   C.3       1 RES1   0.0000
   109 N3        2.4939    3.2513   -1.4601   N.am      1 RES1   0.0000
   110 C43       2.0532    4.3264   -2.3308   C.3       1 RES1   0.0000
   111 C44       1.6169    2.3817   -0.9666   C.2       1 RES1   0.0000
   112 O4        1.9052    1.2987   -0.4369   O.2       1 RES1   0.0000
   113 C45       0.1389    2.7726   -1.0229   C.3       1 RES1   0.0000
   114 O5       -0.5163    1.7474   -0.3022   O.3       1 RES1   0.0000
   115 C46      -1.7210    2.1288    0.3314   C.3       1 RES1   0.0000
   116 C47      -2.0952    0.8979    1.1305   C.2       1 RES1   0.0000
   117 O6       -1.9900   -0.1957    0.5598   O.2       1 RES1   0.0000
   118 N4       -2.5193    0.9599    2.3783   N.am      1 RES1   0.0000
   119 C48      -2.8438    2.2375    2.9745   C.3       1 RES1   0.0000
   120 C49      -3.1011   -0.2778    2.9111   C.3       1 RES1   0.0000
   121 C50      -2.3623   -1.3529    3.7414   C.3       1 RES1   0.0000
   122 C51      -1.1213   -2.1504    3.2825   C.3       1 RES1   0.0000
   123 C52      -0.2016   -2.3953    4.4965   C.3       1 RES1   0.0000
   124 C53       0.6146   -3.6908    4.5744   C.3       1 RES1   0.0000
   125 C54       1.7120   -3.7440    3.5162   C.3       1 RES1   0.0000
   126 C55       1.1517   -3.8778    6.0175   C.3       1 RES1   0.0000
   127 C56       1.8613   -2.6894    6.6939   C.3       1 RES1   0.0000
   128 C57       3.3863   -2.6413    6.5074   C.3       1 RES1   0.0000
   129 C58       3.9207   -1.2238    6.2628   C.3       1 RES1   0.0000
   130 C59       3.8829   -0.3776    7.5341   C.3       1 RES1   0.0000
   131 C60       5.3467   -1.2725    5.7211   C.3       1 RES1   0.0000
   132 H61      -0.3834    8.5607    4.9547   H         1 RES1   0.0000
   133 H62       1.0846    9.4153    5.4108   H         1 RES1   0.0000
   134 H63       1.1789    7.7254    4.9340   H         1 RES1   0.0000
   135 H64       0.4221    8.4078    2.6082   H         1 RES1   0.0000
   136 H65       0.6801   11.2359    3.6876   H         1 RES1   0.0000
   137 H66      -0.8406   10.4158    3.3101   H         1 RES1   0.0000
   138 H67       0.3146   10.7760    2.0208   H         1 RES1   0.0000
   139 H68       2.8906    9.8107    3.6951   H         1 RES1   0.0000
   140 H69       2.4929    9.6866    1.9883   H         1 RES1   0.0000
   141 H70       2.2894    7.0301    2.9159   H         1 RES1   0.0000
   142 H71       3.7117    7.6696    3.7588   H         1 RES1   0.0000
   143 H72       4.3954    8.5937    1.4048   H         1 RES1   0.0000
   144 H73       3.1994    7.4713    0.7722   H         1 RES1   0.0000
   145 H74       5.6660    6.8403    2.4430   H         1 RES1   0.0000
   146 H75       5.0264    6.3987   -0.5056   H         1 RES1   0.0000
   147 H76       6.4711    5.7831    0.3025   H         1 RES1   0.0000
   148 H77       6.1926    7.5132    0.1774   H         1 RES1   0.0000
   149 H78       3.8063    5.3141    2.9431   H         1 RES1   0.0000
   150 H79       5.2501    4.5429    2.3331   H         1 RES1   0.0000
   151 H80       3.3022    5.2365    0.2092   H         1 RES1   0.0000
   152 H81       2.6372    4.1132    1.3977   H         1 RES1   0.0000
   153 H82       4.1250    2.4084    0.8566   H         1 RES1   0.0000
   154 H83       5.3690    3.5118    0.3012   H         1 RES1   0.0000
   155 H84       4.2664    2.1122   -1.4878   H         1 RES1   0.0000
   156 H85       4.4429    3.8448   -1.7993   H         1 RES1   0.0000
   157 H86       2.8691    5.0204   -2.5076   H         1 RES1   0.0000
   158 H87       1.2294    4.8939   -1.9003   H         1 RES1   0.0000
   159 H88       1.7349    3.9222   -3.2973   H         1 RES1   0.0000
   160 H89      -0.2785    2.8486   -2.0348   H         1 RES1   0.0000
   161 H90       0.0180    3.7384   -0.5244   H         1 RES1   0.0000
   162 H91      -2.5078    2.3405   -0.4093   H         1 RES1   0.0000
   163 H92      -1.5546    3.0189    0.9382   H         1 RES1   0.0000
   164 H93      -3.7924    2.6215    2.5876   H         1 RES1   0.0000
   165 H94      -2.0681    2.9664    2.7583   H         1 RES1   0.0000
   166 H95      -2.9092    2.1320    4.0450   H         1 RES1   0.0000
   167 H96      -3.5755   -0.7621    2.0567   H         1 RES1   0.0000
   168 H97      -3.8696    0.0763    3.5819   H         1 RES1   0.0000
   169 H98      -3.1596   -2.0772    3.9249   H         1 RES1   0.0000
   170 H99      -2.1239   -0.9367    4.7169   H         1 RES1   0.0000
   171 H100     -0.5815   -1.6266    2.4829   H         1 RES1   0.0000
   172 H101     -1.4329   -3.1101    2.8796   H         1 RES1   0.0000
   173 H102     -0.8151   -2.3898    5.3981   H         1 RES1   0.0000
   174 H103      0.5051   -1.5725    4.5542   H         1 RES1   0.0000
   175 H104     -0.0544   -4.5380    4.3907   H         1 RES1   0.0000
   176 H105      2.4591   -2.9761    3.6946   H         1 RES1   0.0000
   177 H106      1.2934   -3.6052    2.5173   H         1 RES1   0.0000
   178 H107      2.2073   -4.7110    3.5476   H         1 RES1   0.0000
   179 H108      1.8254   -4.7350    6.0315   H         1 RES1   0.0000
   180 H109      0.2925   -4.1447    6.6376   H         1 RES1   0.0000
   181 H110      1.6421   -2.7368    7.7600   H         1 RES1   0.0000
   182 H111      1.4329   -1.7524    6.3397   H         1 RES1   0.0000
   183 H112      3.6676   -3.2811    5.6706   H         1 RES1   0.0000
   184 H113      3.8765   -3.0461    7.3926   H         1 RES1   0.0000
   185 H114      3.2818   -0.7473    5.5019   H         1 RES1   0.0000
   186 H115      4.5467   -0.7993    8.2842   H         1 RES1   0.0000
   187 H116      2.8808   -0.3397    7.9547   H         1 RES1   0.0000
   188 H117      4.2202    0.6362    7.3243   H         1 RES1   0.0000
   189 H118      6.0012   -1.7796    6.4230   H         1 RES1   0.0000
   190 H119      5.7308   -0.2664    5.5745   H         1 RES1   0.0000
   191 H120      5.3912   -1.8047    4.7720   H         1 RES1   0.0000
   192 C61      -8.0943   -2.7827    2.8690   C.3       1 RES1   0.0000
   193 C62      -7.1781   -1.5605    2.9270   C.3       1 RES1   0.0000
   194 C63      -7.5074   -0.5686    1.8063   C.3       1 RES1   0.0000
   195 C64      -7.1959   -0.8589    4.3090   C.3       1 RES1   0.0000
   196 C65      -5.8167   -0.2278    4.5286   C.3       1 RES1   0.0000
   197 C66      -5.4420    0.5133    5.8351   C.3       1 RES1   0.0000
   198 C67      -4.8933    1.9446    5.5890   C.3       1 RES1   0.0000
   199 C68      -5.9580    2.9924    5.9387   C.3       1 RES1   0.0000
   200 C69      -3.5653    2.3396    6.3084   C.3       1 RES1   0.0000
   201 C70      -2.3010    1.4484    6.0933   C.3       1 RES1   0.0000
   202 C71      -0.9805    2.0847    5.5252   C.3       1 RES1   0.0000
   203 C72      -0.2365    0.9754    4.7430   C.3       1 RES1   0.0000
   204 N5        1.0352    1.1380    4.0023   N.am      1 RES1   0.0000
   205 C73       2.1294    1.7912    4.6846   C.3       1 RES1   0.0000
   206 C74       1.1636    0.4971    2.8306   C.2       1 RES1   0.0000
   207 O7        0.1954    0.2516    2.0880   O.2       1 RES1   0.0000
   208 C75       2.5254   -0.0384    2.3415   C.3       1 RES1   0.0000
   209 O8        2.2245   -0.9532    1.2772   O.3       1 RES1   0.0000
   210 C76       3.3238   -1.6875    0.7399   C.3       1 RES1   0.0000
   211 C77       2.8042   -2.4066   -0.5278   C.2       1 RES1   0.0000
   212 O9        1.5826   -2.2815   -0.7753   O.2       1 RES1   0.0000
   213 N6        3.6388   -3.1029   -1.2938   N.am      1 RES1   0.0000
   214 C78       5.0560   -3.2681   -1.0108   C.3       1 RES1   0.0000
   215 C79       3.1529   -3.9472   -2.4122   C.3       1 RES1   0.0000
   216 C80       3.9234   -3.9076   -3.7503   C.3       1 RES1   0.0000
   217 C81       3.3279   -3.1140   -4.9248   C.3       1 RES1   0.0000
   218 C82       2.1351   -3.7814   -5.6323   C.3       1 RES1   0.0000
   219 C83       1.5494   -3.0822   -6.8980   C.3       1 RES1   0.0000
   220 C84       2.5341   -2.0521   -7.4398   C.3       1 RES1   0.0000
   221 C85       0.1758   -2.4122   -6.7053   C.3       1 RES1   0.0000
   222 C86      -0.5805   -2.1690   -8.0234   C.3       1 RES1   0.0000
   223 C87      -1.3382   -0.8249   -8.0053   C.3       1 RES1   0.0000
   224 C88      -2.8848   -0.8166   -8.0748   C.3       1 RES1   0.0000
   225 C89      -3.3806   -0.5033   -9.4846   C.3       1 RES1   0.0000
   226 C90      -3.5647   -2.0875   -7.5690   C.3       1 RES1   0.0000
   227 H121     -7.9797   -3.2897    1.9114   H         1 RES1   0.0000
   228 H122     -9.1395   -2.5113    2.9858   H         1 RES1   0.0000
   229 H123     -7.8306   -3.4896    3.6528   H         1 RES1   0.0000
   230 H124     -6.1557   -1.9335    2.7505   H         1 RES1   0.0000
   231 H125     -8.5683   -0.3321    1.8117   H         1 RES1   0.0000
   232 H126     -7.2584   -0.9873    0.8303   H         1 RES1   0.0000
   233 H127     -6.9467    0.3572    1.9376   H         1 RES1   0.0000
   234 H128     -7.3878   -1.5825    5.0996   H         1 RES1   0.0000
   235 H129     -7.9931   -0.1164    4.3263   H         1 RES1   0.0000
   236 H130     -5.6864    0.4599    3.6883   H         1 RES1   0.0000
   237 H131     -5.1350   -1.0741    4.4302   H         1 RES1   0.0000
   238 H132     -4.6960   -0.0754    6.3737   H         1 RES1   0.0000
   239 H133     -6.3187    0.5653    6.4748   H         1 RES1   0.0000
   240 H134     -4.7468    2.0432    4.5125   H         1 RES1   0.0000
   241 H135     -6.1203    3.0557    7.0100   H         1 RES1   0.0000
   242 H136     -6.9085    2.7325    5.4793   H         1 RES1   0.0000
   243 H137     -5.6705    3.9798    5.5788   H         1 RES1   0.0000
   244 H138     -3.7706    2.3608    7.3770   H         1 RES1   0.0000
   245 H139     -3.3579    3.3703    6.0065   H         1 RES1   0.0000
   246 H140     -2.5983    0.6318    5.4431   H         1 RES1   0.0000
   247 H141     -2.0276    0.9964    7.0463   H         1 RES1   0.0000
   248 H142     -0.3599    2.4235    6.3573   H         1 RES1   0.0000
   249 H143     -1.1837    2.9575    4.9054   H         1 RES1   0.0000
   250 H144     -0.9108    0.5897    3.9880   H         1 RES1   0.0000
   251 H145     -0.0268    0.2014    5.4910   H         1 RES1   0.0000
   252 H146      1.8749    2.8476    4.7800   H         1 RES1   0.0000
   253 H147      3.0529    1.7154    4.1196   H         1 RES1   0.0000
   254 H148      2.2908    1.3744    5.6784   H         1 RES1   0.0000
   255 H149      3.0491   -0.5494    3.1638   H         1 RES1   0.0000
   256 H150      3.1406    0.7869    1.9607   H         1 RES1   0.0000
   257 H151      3.6739   -2.4341    1.4718   H         1 RES1   0.0000
   258 H152      4.1473   -1.0076    0.4885   H         1 RES1   0.0000
   259 H153      5.3767   -2.6906   -0.1500   H         1 RES1   0.0000
   260 H154      5.6350   -2.9312   -1.8714   H         1 RES1   0.0000
   261 H155      5.2865   -4.3214   -0.8384   H         1 RES1   0.0000
   262 H156      2.1052   -3.7111   -2.5770   H         1 RES1   0.0000
   263 H157      3.1901   -4.9760   -2.0440   H         1 RES1   0.0000
   264 H158      4.0329   -4.9413   -4.0732   H         1 RES1   0.0000
   265 H159      4.9287   -3.5248   -3.5868   H         1 RES1   0.0000
   266 H160      4.1349   -3.0403   -5.6517   H         1 RES1   0.0000
   267 H161      3.0995   -2.1115   -4.5804   H         1 RES1   0.0000
   268 H162      1.3265   -3.9397   -4.9250   H         1 RES1   0.0000
   269 H163      2.4755   -4.7702   -5.9403   H         1 RES1   0.0000
   270 H164      1.4003   -3.8602   -7.6502   H         1 RES1   0.0000
   271 H165      2.7030   -1.2816   -6.6908   H         1 RES1   0.0000
   272 H166      2.1611   -1.5605   -8.3336   H         1 RES1   0.0000
   273 H167      3.4829   -2.5213   -7.6776   H         1 RES1   0.0000
   274 H168      0.3383   -1.4354   -6.2544   H         1 RES1   0.0000
   275 H169     -0.4492   -2.9952   -6.0266   H         1 RES1   0.0000
   276 H170     -1.2534   -2.9984   -8.2201   H         1 RES1   0.0000
   277 H171      0.1389   -2.1467   -8.8404   H         1 RES1   0.0000
   278 H172     -0.9775   -0.2209   -8.8390   H         1 RES1   0.0000
   279 H173     -1.0532   -0.2944   -7.0913   H         1 RES1   0.0000
   280 H174     -3.2147    0.0159   -7.4355   H         1 RES1   0.0000
   281 H175     -3.0151   -1.2356  -10.1980   H         1 RES1   0.0000
   282 H176     -3.0408    0.4802   -9.8007   H         1 RES1   0.0000
   283 H177     -4.4682   -0.5097   -9.5081   H         1 RES1   0.0000
   284 H178     -3.4676   -2.8935   -8.2901   H         1 RES1   0.0000
   285 H179     -4.6298   -1.9049   -7.4455   H         1 RES1   0.0000
   286 H180     -3.1564   -2.4157   -6.6156   H         1 RES1   0.0000
@<TRIPOS>BOND
     1     1    17    1
     2     1    19    1
     3     1    22    1
     4     1   112    1
     5     1   114    1
     6     1   117    1
     7     1   207    1
     8     1   209    1
     9     1   212    1
    10     2     3    1
    11     2    37    1
    12     2    38    1
    13     2    39    1
    14     3     4    1
    15     3     5    1
    16     3    40    1
    17     4    41    1
    18     4    42    1
    19     4    43    1
    20     5     6    1
    21     5    44    1
    22     5    45    1
    23     6     7    1
    24     6    46    1
    25     6    47    1
    26     7     8    1
    27     7    48    1
    28     7    49    1
    29     8     9    1
    30     8    10    1
    31     8    50    1
    32     9    51    1
    33     9    52    1
    34     9    53    1
    35    10    11    1
    36    10    54    1
    37    10    55    1
    38    11    12    1
    39    11    56    1
    40    11    57    1
    41    12    13    1
    42    12    58    1
    43    12    59    1
    44    13    14    1
    45    13    60    1
    46    13    61    1
    47    14    15    1
    48    14    16    1
    49    15    62    1
    50    15    63    1
    51    15    64    1
    52    16    17    2
    53    16    18    1
    54    18    19    1
    55    18    65    1
    56    18    66    1
    57    19    20    1
    58    20    21    1
    59    20    67    1
    60    20    68    1
    61    21    22    2
    62    21    23    1
    63    23    24    1
    64    23    25    1
    65    24    69    1
    66    24    70    1
    67    24    71    1
    68    25    26    1
    69    25    72    1
    70    25    73    1
    71    26    27    1
    72    26    74    1
    73    26    75    1
    74    27    28    1
    75    27    76    1
    76    27    77    1
    77    28    29    1
    78    28    78    1
    79    28    79    1
    80    29    30    1
    81    29    31    1
    82    29    80    1
    83    30    81    1
    84    30    82    1
    85    30    83    1
    86    31    32    1
    87    31    84    1
    88    31    85    1
    89    32    33    1
    90    32    86    1
    91    32    87    1
    92    33    34    1
    93    33    88    1
    94    33    89    1
    95    34    35    1
    96    34    36    1
    97    34    90    1
    98    35    91    1
    99    35    92    1
   100    35    93    1
   101    36    94    1
   102    36    95    1
   103    36    96    1
   104    97    98    1
   105    97   132    1
   106    97   133    1
   107    97   134    1
   108    98    99    1
   109    98   100    1
   110    98   135    1
   111    99   136    1
   112    99   137    1
   113    99   138    1
   114   100   101    1
   115   100   139    1
   116   100   140    1
   117   101   102    1
   118   101   141    1
   119   101   142    1
   120   102   103    1
   121   102   143    1
   122   102   144    1
   123   103   104    1
   124   103   105    1
   125   103   145    1
   126   104   146    1
   127   104   147    1
   128   104   148    1
   129   105   106    1
   130   105   149    1
   131   105   150    1
   132   106   107    1
   133   106   151    1
   134   106   152    1
   135   107   108    1
   136   107   153    1
   137   107   154    1
   138   108   109    1
   139   108   155    1
   140   108   156    1
   141   109   110    1
   142   109   111    1
   143   110   157    1
   144   110   158    1
   145   110   159    1
   146   111   112    2
   147   111   113    1
   148   113   114    1
   149   113   160    1
   150   113   161    1
   151   114   115    1
   152   115   116    1
   153   115   162    1
   154   115   163    1
   155   116   117    2
   156   116   118    1
   157   118   119    1
   158   118   120    1
   159   119   164    1
   160   119   165    1
   161   119   166    1
   162   120   121    1
   163   120   167    1
   164   120   168    1
   165   121   122    1
   166   121   169    1
   167   121   170    1
   168   122   123    1
   169   122   171    1
   170   122   172    1
   171   123   124    1
   172   123   173    1
   173   123   174    1
   174   124   125    1
   175   124   126    1
   176   124   175    1
   177   125   176    1
   178   125   177    1
   179   125   178    1
   180   126   127    1
   181   126   179    1
   182   126   180    1
   183   127   128    1
   184   127   181    1
   185   127   182    1
   186   128   129    1
   187   128   183    1
   188   128   184    1
   189   129   130    1
   190   129   131    1
   191   129   185    1
   192   130   186    1
   193   130   187    1
   194   130   188    1
   195   131   189    1
   196   131   190    1
   197   131   191    1
   198   192   193    1
   199   192   227    1
   200   192   228    1
   201   192   229    1
   202   193   194    1
   203   193   195    1
   204   193   230    1
   205   194   231    1
   206   194   232    1
   207   194   233    1
   208   195   196    1
   209   195   234    1
   210   195   235    1
   211   196   197    1
   212   196   236    1
   213   196   237    1
   214   197   198    1
   215   197   238    1
   216   197   239    1
   217   198   199    1
   218   198   200    1
   219   198   240    1
   220   199   241    1
   221   199   242    1
   222   199   243    1
   223   200   201    1
   224   200   244    1
   225   200   245    1
   226   201   202    1
   227   201   246    1
   228   201   247    1
   229   202   203    1
   230   202   248    1
   231   202   249    1
   232   203   204    1
   233   203   250    1
   234   203   251    1
   235   204   205    1
   236   204   206    1
   237   205   252    1
   238   205   253    1
   239   205   254    1
   240   206   207    2
   241   206   208    1
   242   208   209    1
   243   208   255    1
   244   208   256    1
   245   209   210    1
   246   210   211    1
   247   210   257    1
   248   210   258    1
   249   211   212    2
   250   211   213    1
   251   213   214    1
   252   213   215    1
   253   214   259    1
   254   214   260    1
   255   214   261    1
   256   215   216    1
   257   215   262    1
   258   215   263    1
   259   216   217    1
   260   216   264    1
   261   216   265    1
   262   217   218    1
   263   217   266    1
   264   217   267    1
   265   218   219    1
   266   218   268    1
   267   218   269    1
   268   219   220    1
   269   219   221    1
   270   219   270    1
   271   220   271    1
   272   220   272    1
   273   220   273    1
   274   221   222    1
   275   221   274    1
   276   221   275    1
   277   222   223    1
   278   222   276    1
   279   222   277    1
   280   223   224    1
   281   223   278    1
   282   223   279    1
   283   224   225    1
   284   224   226    1
   285   224   280    1
   286   225   281    1
   287   225   282    1
   288   225   283    1
   289   226   284    1
   290   226   285    1
   291   226   286    1
@<TRIPOS>SUBSTRUCTURE
     1 RES1      286 GROUP             0 ****  ****    0  
