@<TRIPOS>MOLECULE
capped_square_antiprismatic_0_nunpairedes_0_charge_3 Charge: 3 Unpaired_Electrons: 5 XTB_Unpaired_Electrons: 0 XTB_Charge: 3
   260   263     1     0     0
SMALL
NoCharges
****
Generated from Architector

@<TRIPOS>ATOM
     1 Sm1       0.3395    0.2386   -0.0861   Sm        1 RES1   0.0000
     2 C1       -7.1971    3.7277    3.4307   C.3       1 RES1   0.0000
     3 C2       -6.7513    2.7919    2.3106   C.3       1 RES1   0.0000
     4 C3       -5.2687    2.3698    2.3712   C.3       1 RES1   0.0000
     5 C4       -4.3579    3.4607    1.7940   C.3       1 RES1   0.0000
     6 N1       -2.9025    3.2565    1.7423   N.am      1 RES1   0.0000
     7 C5       -2.1161    4.4205    2.1827   C.3       1 RES1   0.0000
     8 C6       -1.8591    4.4785    3.6995   C.3       1 RES1   0.0000
     9 C7       -0.3694    4.6193    4.0316   C.3       1 RES1   0.0000
    10 C8       -0.1009    4.5308    5.5298   C.3       1 RES1   0.0000
    11 C9       -2.2507    2.2537    1.1342   C.2       1 RES1   0.0000
    12 O1       -1.0077    2.2141    1.0949   O.2       1 RES1   0.0000
    13 C10      -2.9919    1.1469    0.4001   C.3       1 RES1   0.0000
    14 C11      -3.4832    1.6004   -0.9888   C.3       1 RES1   0.0000
    15 C12      -2.8345    0.7501   -2.0792   C.2       1 RES1   0.0000
    16 O2       -1.6549    0.3774   -1.9238   O.2       1 RES1   0.0000
    17 N2       -3.5538    0.4495   -3.1646   N.am      1 RES1   0.0000
    18 C13      -4.9775    0.7547   -3.3095   C.3       1 RES1   0.0000
    19 C14      -5.3531    2.2165   -3.5770   C.3       1 RES1   0.0000
    20 C15      -4.9595    2.7289   -4.9601   C.3       1 RES1   0.0000
    21 C16      -5.5196    4.1242   -5.2088   C.3       1 RES1   0.0000
    22 C17      -3.0274   -0.5394   -4.1101   C.3       1 RES1   0.0000
    23 C18      -3.0372   -0.1377   -5.5853   C.3       1 RES1   0.0000
    24 C19      -1.8757    0.7666   -5.9801   C.3       1 RES1   0.0000
    25 C20      -1.8561    1.0296   -7.4805   C.3       1 RES1   0.0000
    26 H1       -8.2613    3.9344    3.3295   H         1 RES1   0.0000
    27 H2       -6.6663    4.6765    3.3984   H         1 RES1   0.0000
    28 H3       -7.0334    3.2667    4.4023   H         1 RES1   0.0000
    29 H4       -6.9702    3.2551    1.3448   H         1 RES1   0.0000
    30 H5       -7.3568    1.8843    2.3724   H         1 RES1   0.0000
    31 H6       -5.1929    1.4363    1.8154   H         1 RES1   0.0000
    32 H7       -5.0145    2.1716    3.4115   H         1 RES1   0.0000
    33 H8       -4.5040    4.3378    2.4242   H         1 RES1   0.0000
    34 H9       -4.7138    3.7189    0.7914   H         1 RES1   0.0000
    35 H10      -2.6426    5.3223    1.8619   H         1 RES1   0.0000
    36 H11      -1.1584    4.3777    1.6575   H         1 RES1   0.0000
    37 H12      -2.2429    3.5703    4.1549   H         1 RES1   0.0000
    38 H13      -2.3873    5.3205    4.1476   H         1 RES1   0.0000
    39 H14      -0.0084    5.5863    3.6780   H         1 RES1   0.0000
    40 H15       0.1979    3.8461    3.5037   H         1 RES1   0.0000
    41 H16      -0.6275    5.3212    6.0576   H         1 RES1   0.0000
    42 H17       0.9621    4.6391    5.7280   H         1 RES1   0.0000
    43 H18      -0.4215    3.5776    5.9405   H         1 RES1   0.0000
    44 H19      -3.8092    0.7244    0.9746   H         1 RES1   0.0000
    45 H20      -2.2414    0.3481    0.2625   H         1 RES1   0.0000
    46 H21      -3.1816    2.6361   -1.1694   H         1 RES1   0.0000
    47 H22      -4.5695    1.5679   -1.0368   H         1 RES1   0.0000
    48 H23      -5.5153    0.4043   -2.4212   H         1 RES1   0.0000
    49 H24      -5.3407    0.1665   -4.1513   H         1 RES1   0.0000
    50 H25      -4.9291    2.8793   -2.8255   H         1 RES1   0.0000
    51 H26      -6.4390    2.2760   -3.4905   H         1 RES1   0.0000
    52 H27      -5.3491    2.0581   -5.7277   H         1 RES1   0.0000
    53 H28      -3.8720    2.7519   -5.0458   H         1 RES1   0.0000
    54 H29      -6.6061    4.1014   -5.2095   H         1 RES1   0.0000
    55 H30      -5.1889    4.5046   -6.1712   H         1 RES1   0.0000
    56 H31      -5.1903    4.8148   -4.4374   H         1 RES1   0.0000
    57 H32      -3.6361   -1.4412   -3.9966   H         1 RES1   0.0000
    58 H33      -2.0101   -0.7722   -3.7903   H         1 RES1   0.0000
    59 H34      -3.9769    0.3461   -5.8429   H         1 RES1   0.0000
    60 H35      -2.9795   -1.0528   -6.1778   H         1 RES1   0.0000
    61 H36      -0.9421    0.2842   -5.6810   H         1 RES1   0.0000
    62 H37      -1.9583    1.7161   -5.4467   H         1 RES1   0.0000
    63 H38      -1.7470    0.0969   -8.0281   H         1 RES1   0.0000
    64 H39      -1.0265    1.6810   -7.7441   H         1 RES1   0.0000
    65 H40      -2.7802    1.5046   -7.7999   H         1 RES1   0.0000
    66 C21       4.3848   -4.1681   -3.8104   C.3       1 RES1   0.0000
    67 C22       3.9996   -4.0096   -2.3419   C.3       1 RES1   0.0000
    68 C23       5.2354   -3.8271   -1.4658   C.3       1 RES1   0.0000
    69 C24       4.9818   -3.6222    0.0365   C.3       1 RES1   0.0000
    70 N3        4.1604   -2.4586    0.3442   N.am      1 RES1   0.0000
    71 C25       4.7644   -1.1283    0.5641   C.3       1 RES1   0.0000
    72 C26       6.2855   -1.0527    0.6991   C.3       1 RES1   0.0000
    73 C27       6.8168    0.3995    0.7115   C.3       1 RES1   0.0000
    74 C28       7.2074    0.9717    2.0701   C.3       1 RES1   0.0000
    75 C29       2.8218   -2.4542    0.3127   C.2       1 RES1   0.0000
    76 O3        2.2022   -1.3678    0.3870   O.2       1 RES1   0.0000
    77 C30       2.0514   -3.7672    0.2990   C.3       1 RES1   0.0000
    78 C31       0.9574   -3.8164   -0.7860   C.3       1 RES1   0.0000
    79 C32      -0.3374   -3.1023   -0.4599   C.2       1 RES1   0.0000
    80 O4       -0.3869   -1.8551   -0.6243   O.2       1 RES1   0.0000
    81 N4       -1.4398   -3.7621   -0.1018   N.am      1 RES1   0.0000
    82 C33      -2.6585   -2.9597   -0.0484   C.3       1 RES1   0.0000
    83 C34      -3.2651   -2.7596   -1.4471   C.3       1 RES1   0.0000
    84 C35      -4.1685   -3.8813   -1.9671   C.3       1 RES1   0.0000
    85 C36      -5.3466   -4.1672   -1.0424   C.3       1 RES1   0.0000
    86 C37      -1.6248   -5.2004    0.0718   C.3       1 RES1   0.0000
    87 C38      -2.1077   -5.6056    1.4707   C.3       1 RES1   0.0000
    88 C39      -1.0275   -5.4880    2.5443   C.3       1 RES1   0.0000
    89 C40      -0.0032   -6.6132    2.4685   C.3       1 RES1   0.0000
    90 H41       3.5009   -4.2650   -4.4380   H         1 RES1   0.0000
    91 H42       4.9957   -5.0544   -3.9485   H         1 RES1   0.0000
    92 H43       4.9580   -3.3105   -4.1550   H         1 RES1   0.0000
    93 H44       3.4384   -4.8923   -2.0303   H         1 RES1   0.0000
    94 H45       3.3587   -3.1287   -2.2474   H         1 RES1   0.0000
    95 H46       5.7776   -2.9700   -1.8551   H         1 RES1   0.0000
    96 H47       5.8811   -4.6994   -1.5739   H         1 RES1   0.0000
    97 H48       5.9477   -3.4943    0.5218   H         1 RES1   0.0000
    98 H49       4.5277   -4.5178    0.4593   H         1 RES1   0.0000
    99 H50       4.2983   -0.7303    1.4707   H         1 RES1   0.0000
   100 H51       4.4471   -0.4785   -0.2597   H         1 RES1   0.0000
   101 H52       6.7434   -1.5617   -0.1478   H         1 RES1   0.0000
   102 H53       6.6190   -1.5584    1.6048   H         1 RES1   0.0000
   103 H54       7.7161    0.4271    0.0971   H         1 RES1   0.0000
   104 H55       6.0807    1.0584    0.2465   H         1 RES1   0.0000
   105 H56       6.3451    1.1873    2.6933   H         1 RES1   0.0000
   106 H57       7.7478    1.9042    1.9280   H         1 RES1   0.0000
   107 H58       7.8634    0.2921    2.6048   H         1 RES1   0.0000
   108 H59       1.5875   -3.8801    1.2826   H         1 RES1   0.0000
   109 H60       2.7135   -4.6117    0.1390   H         1 RES1   0.0000
   110 H61       0.7709   -4.8556   -1.0388   H         1 RES1   0.0000
   111 H62       1.3429   -3.3194   -1.6786   H         1 RES1   0.0000
   112 H63      -2.3772   -1.9827    0.3668   H         1 RES1   0.0000
   113 H64      -3.3732   -3.4336    0.6203   H         1 RES1   0.0000
   114 H65      -2.4358   -2.5979   -2.1380   H         1 RES1   0.0000
   115 H66      -3.8530   -1.8416   -1.4158   H         1 RES1   0.0000
   116 H67      -3.5923   -4.7906   -2.1313   H         1 RES1   0.0000
   117 H68      -4.5494   -3.5719   -2.9433   H         1 RES1   0.0000
   118 H69      -5.0236   -4.6414   -0.1166   H         1 RES1   0.0000
   119 H70      -6.0449   -4.8415   -1.5287   H         1 RES1   0.0000
   120 H71      -5.8782   -3.2447   -0.8104   H         1 RES1   0.0000
   121 H72      -0.6929   -5.7222   -0.1271   H         1 RES1   0.0000
   122 H73      -2.3636   -5.5456   -0.6603   H         1 RES1   0.0000
   123 H74      -2.4237   -6.6484    1.4091   H         1 RES1   0.0000
   124 H75      -2.9806   -5.0171    1.7617   H         1 RES1   0.0000
   125 H76      -1.5167   -5.5296    3.5177   H         1 RES1   0.0000
   126 H77      -0.5334   -4.5203    2.4553   H         1 RES1   0.0000
   127 H78      -0.4986   -7.5791    2.4760   H         1 RES1   0.0000
   128 H79       0.6596   -6.5766    3.3268   H         1 RES1   0.0000
   129 H80       0.6009   -6.5529    1.5677   H         1 RES1   0.0000
   130 C41      -3.2681   -4.4055    6.0009   C.3       1 RES1   0.0000
   131 C42      -3.3779   -2.9263    5.6479   C.3       1 RES1   0.0000
   132 C43      -3.1622   -2.6835    4.1543   C.3       1 RES1   0.0000
   133 C44      -3.4076   -1.2444    3.6925   C.3       1 RES1   0.0000
   134 N5       -2.4744   -0.2938    4.2829   N.am      1 RES1   0.0000
   135 C45      -2.8290    0.2232    5.6025   C.3       1 RES1   0.0000
   136 C46      -3.2060    1.7131    5.5709   C.3       1 RES1   0.0000
   137 C47      -4.5376    2.0595    6.2350   C.3       1 RES1   0.0000
   138 C48      -4.7476    3.5720    6.2249   C.3       1 RES1   0.0000
   139 C49      -1.4291    0.1283    3.5668   C.2       1 RES1   0.0000
   140 O5       -1.2618   -0.2257    2.3784   O.2       1 RES1   0.0000
   141 C50      -0.4582    1.0902    4.2125   C.3       1 RES1   0.0000
   142 C51       1.0026    0.6104    4.2819   C.3       1 RES1   0.0000
   143 C52       1.7522    1.0289    3.0355   C.2       1 RES1   0.0000
   144 O6        1.2733    0.7562    1.9151   O.2       1 RES1   0.0000
   145 N6        2.8962    1.7037    3.1468   N.am      1 RES1   0.0000
   146 C53       3.5773    2.0782    4.3827   C.3       1 RES1   0.0000
   147 C54       4.0388    0.9672    5.3412   C.3       1 RES1   0.0000
   148 C55       4.7405   -0.2423    4.7149   C.3       1 RES1   0.0000
   149 C56       3.7995   -1.3597    4.2831   C.3       1 RES1   0.0000
   150 C57       3.4656    2.2731    1.9287   C.3       1 RES1   0.0000
   151 C58       3.2177    3.7833    1.8321   C.3       1 RES1   0.0000
   152 C59       3.9891    4.4198    0.6763   C.3       1 RES1   0.0000
   153 C60       3.5351    3.9242   -0.6930   C.3       1 RES1   0.0000
   154 H81      -3.4379   -4.5494    7.0647   H         1 RES1   0.0000
   155 H82      -2.2742   -4.7794    5.7678   H         1 RES1   0.0000
   156 H83      -4.0040   -4.9965    5.4591   H         1 RES1   0.0000
   157 H84      -2.6381   -2.3742    6.2292   H         1 RES1   0.0000
   158 H85      -4.3700   -2.5760    5.9370   H         1 RES1   0.0000
   159 H86      -3.8535   -3.3208    3.6008   H         1 RES1   0.0000
   160 H87      -2.1455   -2.9664    3.8794   H         1 RES1   0.0000
   161 H88      -4.4254   -0.9312    3.9317   H         1 RES1   0.0000
   162 H89      -3.2800   -1.1963    2.6101   H         1 RES1   0.0000
   163 H90      -2.0190    0.0414    6.3098   H         1 RES1   0.0000
   164 H91      -3.6868   -0.3454    5.9514   H         1 RES1   0.0000
   165 H92      -3.2556    2.0155    4.5239   H         1 RES1   0.0000
   166 H93      -2.4416    2.3164    6.0616   H         1 RES1   0.0000
   167 H94      -4.5392    1.7013    7.2644   H         1 RES1   0.0000
   168 H95      -5.3628    1.5750    5.7085   H         1 RES1   0.0000
   169 H96      -3.9806    4.0733    6.8099   H         1 RES1   0.0000
   170 H97      -5.7092    3.8288    6.6586   H         1 RES1   0.0000
   171 H98      -4.7130    3.9663    5.2104   H         1 RES1   0.0000
   172 H99      -0.7721    1.3497    5.2136   H         1 RES1   0.0000
   173 H100     -0.5015    1.9860    3.5951   H         1 RES1   0.0000
   174 H101      1.0432   -0.4741    4.3871   H         1 RES1   0.0000
   175 H102      1.4556    1.0573    5.1588   H         1 RES1   0.0000
   176 H103      2.9606    2.7836    4.9481   H         1 RES1   0.0000
   177 H104      4.4712    2.6140    4.0644   H         1 RES1   0.0000
   178 H105      3.2229    0.6058    5.9665   H         1 RES1   0.0000
   179 H106      4.7443    1.4636    6.0125   H         1 RES1   0.0000
   180 H107      5.4239   -0.6464    5.4625   H         1 RES1   0.0000
   181 H108      5.3467    0.0738    3.8691   H         1 RES1   0.0000
   182 H109      3.1663   -1.6557    5.1138   H         1 RES1   0.0000
   183 H110      4.3782   -2.2252    3.9771   H         1 RES1   0.0000
   184 H111      3.1716   -1.0574    3.4494   H         1 RES1   0.0000
   185 H112      2.9979    1.7671    1.0760   H         1 RES1   0.0000
   186 H113      4.5373    2.0723    1.9111   H         1 RES1   0.0000
   187 H114      3.5249    4.2715    2.7587   H         1 RES1   0.0000
   188 H115      2.1481    3.9617    1.6997   H         1 RES1   0.0000
   189 H116      5.0553    4.2281    0.7970   H         1 RES1   0.0000
   190 H117      3.8516    5.4997    0.7310   H         1 RES1   0.0000
   191 H118      3.9591    2.9508   -0.9292   H         1 RES1   0.0000
   192 H119      3.8477    4.6215   -1.4673   H         1 RES1   0.0000
   193 H120      2.4521    3.8320   -0.7202   H         1 RES1   0.0000
   194 C61       0.0274    5.9009   -6.6699   C.3       1 RES1   0.0000
   195 C62      -0.6668    4.6335   -6.1817   C.3       1 RES1   0.0000
   196 C63      -1.0224    4.6889   -4.6935   C.3       1 RES1   0.0000
   197 C64       0.2342    4.7710   -3.8108   C.3       1 RES1   0.0000
   198 N7        0.1225    4.1383   -2.5006   N.am      1 RES1   0.0000
   199 C65      -0.0389    5.0307   -1.3511   C.3       1 RES1   0.0000
   200 C66      -1.0916    6.1424   -1.4922   C.3       1 RES1   0.0000
   201 C67      -2.5277    5.7708   -1.1078   C.3       1 RES1   0.0000
   202 C68      -3.3703    5.1928   -2.2337   C.3       1 RES1   0.0000
   203 C69       0.3511    2.8399   -2.2909   C.2       1 RES1   0.0000
   204 O7        0.4441    2.3546   -1.1422   O.2       1 RES1   0.0000
   205 C70       0.4926    1.9219   -3.4833   C.3       1 RES1   0.0000
   206 C71       1.9414    1.8097   -3.9495   C.3       1 RES1   0.0000
   207 C72       2.8354    0.9430   -3.0727   C.2       1 RES1   0.0000
   208 O8        2.3929    0.3510   -2.0719   O.2       1 RES1   0.0000
   209 N8        4.1022    0.8457   -3.5198   N.am      1 RES1   0.0000
   210 C73       4.5976    1.6183   -4.6596   C.3       1 RES1   0.0000
   211 C74       4.9875    3.0798   -4.3840   C.3       1 RES1   0.0000
   212 C75       6.2478    3.2960   -3.5482   C.3       1 RES1   0.0000
   213 C76       6.5495    4.7790   -3.3554   C.3       1 RES1   0.0000
   214 C77       4.9441   -0.2937   -3.1452   C.3       1 RES1   0.0000
   215 C78       6.4006    0.0706   -2.8430   C.3       1 RES1   0.0000
   216 C79       7.3944   -1.0876   -2.9608   C.3       1 RES1   0.0000
   217 C80       8.8341   -0.5848   -3.0215   C.3       1 RES1   0.0000
   218 H121      0.2072    5.8421   -7.7410   H         1 RES1   0.0000
   219 H122      0.9885    6.0403   -6.1794   H         1 RES1   0.0000
   220 H123     -0.5884    6.7760   -6.4740   H         1 RES1   0.0000
   221 H124     -0.0194    3.7735   -6.3757   H         1 RES1   0.0000
   222 H125     -1.5865    4.4927   -6.7530   H         1 RES1   0.0000
   223 H126     -1.6059    3.8039   -4.4313   H         1 RES1   0.0000
   224 H127     -1.6611    5.5545   -4.5283   H         1 RES1   0.0000
   225 H128      0.4927    5.8130   -3.6288   H         1 RES1   0.0000
   226 H129      1.0680    4.3351   -4.3588   H         1 RES1   0.0000
   227 H130      0.9264    5.5157   -1.1613   H         1 RES1   0.0000
   228 H131     -0.2651    4.3924   -0.4915   H         1 RES1   0.0000
   229 H132     -1.0898    6.5616   -2.4981   H         1 RES1   0.0000
   230 H133     -0.7674    6.9438   -0.8236   H         1 RES1   0.0000
   231 H134     -3.0165    6.6807   -0.7576   H         1 RES1   0.0000
   232 H135     -2.4982    5.0633   -0.2810   H         1 RES1   0.0000
   233 H136     -3.4852    5.9181   -3.0328   H         1 RES1   0.0000
   234 H137     -4.3653    4.9636   -1.8596   H         1 RES1   0.0000
   235 H138     -2.9239    4.2899   -2.6419   H         1 RES1   0.0000
   236 H139     -0.1129    2.2700   -4.3128   H         1 RES1   0.0000
   237 H140      0.1320    0.9348   -3.1764   H         1 RES1   0.0000
   238 H141      2.3809    2.8008   -4.0284   H         1 RES1   0.0000
   239 H142      1.9498    1.3497   -4.9441   H         1 RES1   0.0000
   240 H143      3.8566    1.6161   -5.4595   H         1 RES1   0.0000
   241 H144      5.4687    1.0912   -5.0434   H         1 RES1   0.0000
   242 H145      4.1738    3.6129   -3.8917   H         1 RES1   0.0000
   243 H146      5.1389    3.5412   -5.3618   H         1 RES1   0.0000
   244 H147      7.1034    2.8394   -4.0480   H         1 RES1   0.0000
   245 H148      6.1251    2.8350   -2.5673   H         1 RES1   0.0000
   246 H149      6.7527    5.2541   -4.3112   H         1 RES1   0.0000
   247 H150      7.4267    4.9002   -2.7245   H         1 RES1   0.0000
   248 H151      5.7182    5.2975   -2.8799   H         1 RES1   0.0000
   249 H152      4.9242   -0.9872   -3.9952   H         1 RES1   0.0000
   250 H153      4.4585   -0.7813   -2.3008   H         1 RES1   0.0000
   251 H154      6.4776    0.5150   -1.8548   H         1 RES1   0.0000
   252 H155      6.7376    0.8175   -3.5545   H         1 RES1   0.0000
   253 H156      7.1844   -1.6605   -3.8629   H         1 RES1   0.0000
   254 H157      7.3088   -1.7673   -2.1137   H         1 RES1   0.0000
   255 H158      9.5231   -1.4260   -3.0493   H         1 RES1   0.0000
   256 H159      9.0567    0.0288   -2.1508   H         1 RES1   0.0000
   257 H160      9.0123    0.0080   -3.9158   H         1 RES1   0.0000
   258 O9        0.2491   -2.3850    2.2677   O.3       1 RES1   0.0000
   259 H161      1.1215   -1.9871    2.3072   H         1 RES1   0.0000
   260 H162     -0.3912   -1.6588    2.3004   H         1 RES1   0.0000
@<TRIPOS>BOND
     1     1    12    1
     2     1    16    1
     3     1    76    1
     4     1    80    1
     5     1   140    1
     6     1   144    1
     7     1   204    1
     8     1   208    1
     9     1   258    1
    10     2     3    1
    11     2    26    1
    12     2    27    1
    13     2    28    1
    14     3     4    1
    15     3    29    1
    16     3    30    1
    17     4     5    1
    18     4    31    1
    19     4    32    1
    20     5     6    1
    21     5    33    1
    22     5    34    1
    23     6     7    1
    24     6    11    1
    25     7     8    1
    26     7    35    1
    27     7    36    1
    28     8     9    1
    29     8    37    1
    30     8    38    1
    31     9    10    1
    32     9    39    1
    33     9    40    1
    34    10    41    1
    35    10    42    1
    36    10    43    1
    37    11    12    2
    38    11    13    1
    39    13    14    1
    40    13    44    1
    41    13    45    1
    42    14    15    1
    43    14    46    1
    44    14    47    1
    45    15    16    2
    46    15    17    1
    47    17    18    1
    48    17    22    1
    49    18    19    1
    50    18    48    1
    51    18    49    1
    52    19    20    1
    53    19    50    1
    54    19    51    1
    55    20    21    1
    56    20    52    1
    57    20    53    1
    58    21    54    1
    59    21    55    1
    60    21    56    1
    61    22    23    1
    62    22    57    1
    63    22    58    1
    64    23    24    1
    65    23    59    1
    66    23    60    1
    67    24    25    1
    68    24    61    1
    69    24    62    1
    70    25    63    1
    71    25    64    1
    72    25    65    1
    73    66    67    1
    74    66    90    1
    75    66    91    1
    76    66    92    1
    77    67    68    1
    78    67    93    1
    79    67    94    1
    80    68    69    1
    81    68    95    1
    82    68    96    1
    83    69    70    1
    84    69    97    1
    85    69    98    1
    86    70    71    1
    87    70    75    1
    88    71    72    1
    89    71    99    1
    90    71   100    1
    91    72    73    1
    92    72   101    1
    93    72   102    1
    94    73    74    1
    95    73   103    1
    96    73   104    1
    97    74   105    1
    98    74   106    1
    99    74   107    1
   100    75    76    2
   101    75    77    1
   102    77    78    1
   103    77   108    1
   104    77   109    1
   105    78    79    1
   106    78   110    1
   107    78   111    1
   108    79    80    2
   109    79    81    1
   110    81    82    1
   111    81    86    1
   112    82    83    1
   113    82   112    1
   114    82   113    1
   115    83    84    1
   116    83   114    1
   117    83   115    1
   118    84    85    1
   119    84   116    1
   120    84   117    1
   121    85   118    1
   122    85   119    1
   123    85   120    1
   124    86    87    1
   125    86   121    1
   126    86   122    1
   127    87    88    1
   128    87   123    1
   129    87   124    1
   130    88    89    1
   131    88   125    1
   132    88   126    1
   133    89   127    1
   134    89   128    1
   135    89   129    1
   136   130   131    1
   137   130   154    1
   138   130   155    1
   139   130   156    1
   140   131   132    1
   141   131   157    1
   142   131   158    1
   143   132   133    1
   144   132   159    1
   145   132   160    1
   146   133   134    1
   147   133   161    1
   148   133   162    1
   149   134   135    1
   150   134   139    1
   151   135   136    1
   152   135   163    1
   153   135   164    1
   154   136   137    1
   155   136   165    1
   156   136   166    1
   157   137   138    1
   158   137   167    1
   159   137   168    1
   160   138   169    1
   161   138   170    1
   162   138   171    1
   163   139   140    2
   164   139   141    1
   165   141   142    1
   166   141   172    1
   167   141   173    1
   168   142   143    1
   169   142   174    1
   170   142   175    1
   171   143   144    2
   172   143   145    1
   173   145   146    1
   174   145   150    1
   175   146   147    1
   176   146   176    1
   177   146   177    1
   178   147   148    1
   179   147   178    1
   180   147   179    1
   181   148   149    1
   182   148   180    1
   183   148   181    1
   184   149   182    1
   185   149   183    1
   186   149   184    1
   187   150   151    1
   188   150   185    1
   189   150   186    1
   190   151   152    1
   191   151   187    1
   192   151   188    1
   193   152   153    1
   194   152   189    1
   195   152   190    1
   196   153   191    1
   197   153   192    1
   198   153   193    1
   199   194   195    1
   200   194   218    1
   201   194   219    1
   202   194   220    1
   203   195   196    1
   204   195   221    1
   205   195   222    1
   206   196   197    1
   207   196   223    1
   208   196   224    1
   209   197   198    1
   210   197   225    1
   211   197   226    1
   212   198   199    1
   213   198   203    1
   214   199   200    1
   215   199   227    1
   216   199   228    1
   217   200   201    1
   218   200   229    1
   219   200   230    1
   220   201   202    1
   221   201   231    1
   222   201   232    1
   223   202   233    1
   224   202   234    1
   225   202   235    1
   226   203   204    2
   227   203   205    1
   228   205   206    1
   229   205   236    1
   230   205   237    1
   231   206   207    1
   232   206   238    1
   233   206   239    1
   234   207   208    2
   235   207   209    1
   236   209   210    1
   237   209   214    1
   238   210   211    1
   239   210   240    1
   240   210   241    1
   241   211   212    1
   242   211   242    1
   243   211   243    1
   244   212   213    1
   245   212   244    1
   246   212   245    1
   247   213   246    1
   248   213   247    1
   249   213   248    1
   250   214   215    1
   251   214   249    1
   252   214   250    1
   253   215   216    1
   254   215   251    1
   255   215   252    1
   256   216   217    1
   257   216   253    1
   258   216   254    1
   259   217   255    1
   260   217   256    1
   261   217   257    1
   262   258   259    1
   263   258   260    1
@<TRIPOS>SUBSTRUCTURE
     1 RES1      260 GROUP             0 ****  ****    0  
