@<TRIPOS>MOLECULE
tri_tri_mer_capped_0_nunpairedes_0_charge_3 Charge: 3 Unpaired_Electrons: 5 XTB_Unpaired_Electrons: 0 XTB_Charge: 3
   448   453     1     0     0
SMALL
NoCharges
****
Generated from Architector

@<TRIPOS>ATOM
     1 Sm1      -0.0724   -0.4448    0.1763   Sm        1 RES1   0.0000
     2 C1       -6.5306   -3.3114   -1.8918   C.3       1 RES1   0.0000
     3 C2       -6.2403   -1.8155   -1.8942   C.3       1 RES1   0.0000
     4 C3       -6.3046   -1.1883   -0.5006   C.3       1 RES1   0.0000
     5 C4       -5.0430   -1.3673    0.3527   C.3       1 RES1   0.0000
     6 C5       -4.8884   -2.7494    1.0029   C.3       1 RES1   0.0000
     7 C6       -4.2146   -2.7129    2.3818   C.3       1 RES1   0.0000
     8 C7       -2.6973   -2.4908    2.3890   C.3       1 RES1   0.0000
     9 C8       -2.1675   -2.2432    3.8228   C.3       1 RES1   0.0000
    10 N1       -1.5520   -0.9218    4.0721   N.am      1 RES1   0.0000
    11 C9       -1.7447   -0.4157    5.4539   C.3       1 RES1   0.0000
    12 C10      -1.7366    1.0829    5.8177   C.3       1 RES1   0.0000
    13 C11      -2.0967    1.2582    7.3083   C.3       1 RES1   0.0000
    14 C12      -2.5012    2.6804    7.8030   C.3       1 RES1   0.0000
    15 C13      -4.0200    2.8224    7.9649   C.3       1 RES1   0.0000
    16 C14      -4.8109    2.8596    6.6597   C.3       1 RES1   0.0000
    17 C15      -6.1845    3.5183    6.8205   C.3       1 RES1   0.0000
    18 C16      -7.1493    2.7281    7.6941   C.3       1 RES1   0.0000
    19 C17      -1.8722    3.8228    6.9814   C.3       1 RES1   0.0000
    20 C18      -2.4563    5.2369    7.1706   C.3       1 RES1   0.0000
    21 C19      -2.0572    5.9292    8.4727   C.3       1 RES1   0.0000
    22 C20      -2.6900    7.3181    8.6234   C.3       1 RES1   0.0000
    23 C21      -2.3341    8.3388    7.5389   C.3       1 RES1   0.0000
    24 C22      -0.8525    8.6874    7.4861   C.3       1 RES1   0.0000
    25 C23      -0.5993   -0.5805    3.2077   C.2       1 RES1   0.0000
    26 O1       -0.2698   -1.2990    2.2491   O.2       1 RES1   0.0000
    27 C24       0.0982    0.7626    3.3924   C.3       1 RES1   0.0000
    28 O2        0.6189    1.2667    2.1582   O.3       1 RES1   0.0000
    29 C25       1.9887    1.6640    2.2448   C.3       1 RES1   0.0000
    30 C26       2.8596    0.4378    1.9411   C.2       1 RES1   0.0000
    31 O3        2.2652   -0.4761    1.3373   O.2       1 RES1   0.0000
    32 N2        4.1134    0.3296    2.3666   N.am      1 RES1   0.0000
    33 C27       4.7208   -1.0072    2.4323   C.3       1 RES1   0.0000
    34 C28       5.1988   -1.3558    3.8511   C.3       1 RES1   0.0000
    35 C29       5.3511   -2.8610    4.2277   C.3       1 RES1   0.0000
    36 C30       5.5327   -3.9227    3.1162   C.3       1 RES1   0.0000
    37 C31       6.7524   -4.8639    3.1986   C.3       1 RES1   0.0000
    38 C32       7.8276   -4.4751    2.1890   C.3       1 RES1   0.0000
    39 C33       8.9424   -5.4928    1.9672   C.3       1 RES1   0.0000
    40 C34       9.7708   -5.7469    3.2175   C.3       1 RES1   0.0000
    41 C35       5.0677    1.3969    2.6624   C.3       1 RES1   0.0000
    42 C36       4.8054    2.8230    2.1902   C.3       1 RES1   0.0000
    43 C37       4.5720    3.0354    0.6891   C.3       1 RES1   0.0000
    44 C38       5.0167    4.4399    0.2437   C.3       1 RES1   0.0000
    45 C39       4.7350    4.7101   -1.2413   C.3       1 RES1   0.0000
    46 C40       5.5481    3.8426   -2.2018   C.3       1 RES1   0.0000
    47 C41       5.6381    4.4525   -3.6009   C.3       1 RES1   0.0000
    48 C42       4.2905    4.5193   -4.3082   C.3       1 RES1   0.0000
    49 C43       4.3919    5.5453    1.1227   C.3       1 RES1   0.0000
    50 C44       5.4230    6.6039    1.5408   C.3       1 RES1   0.0000
    51 C45       5.1243    7.2179    2.9090   C.3       1 RES1   0.0000
    52 C46       3.9169    8.1489    2.8956   C.3       1 RES1   0.0000
    53 C47       3.6215    8.7417    4.2721   C.3       1 RES1   0.0000
    54 C48       4.7092    9.6940    4.7547   C.3       1 RES1   0.0000
    55 H1       -6.5336   -3.7053   -2.9062   H         1 RES1   0.0000
    56 H2       -7.5104   -3.4932   -1.4558   H         1 RES1   0.0000
    57 H3       -5.7907   -3.8541   -1.3109   H         1 RES1   0.0000
    58 H4       -6.9735   -1.3258   -2.5389   H         1 RES1   0.0000
    59 H5       -5.2558   -1.6200   -2.3235   H         1 RES1   0.0000
    60 H6       -7.1646   -1.5928    0.0357   H         1 RES1   0.0000
    61 H7       -6.4796   -0.1153   -0.6168   H         1 RES1   0.0000
    62 H8       -5.1054   -0.6241    1.1477   H         1 RES1   0.0000
    63 H9       -4.1579   -1.1319   -0.2409   H         1 RES1   0.0000
    64 H10      -4.3361   -3.4245    0.3498   H         1 RES1   0.0000
    65 H11      -5.8849   -3.1705    1.1484   H         1 RES1   0.0000
    66 H12      -4.4346   -3.6483    2.8976   H         1 RES1   0.0000
    67 H13      -4.6891   -1.9194    2.9493   H         1 RES1   0.0000
    68 H14      -2.4715   -1.6468    1.7385   H         1 RES1   0.0000
    69 H15      -2.2020   -3.3692    1.9638   H         1 RES1   0.0000
    70 H16      -1.4176   -2.9992    4.0591   H         1 RES1   0.0000
    71 H17      -2.9942   -2.3632    4.5183   H         1 RES1   0.0000
    72 H18      -0.9851   -0.9042    6.0755   H         1 RES1   0.0000
    73 H19      -2.7173   -0.8011    5.7691   H         1 RES1   0.0000
    74 H20      -2.4584    1.6311    5.2188   H         1 RES1   0.0000
    75 H21      -0.7509    1.5262    5.6778   H         1 RES1   0.0000
    76 H22      -1.2215    0.9336    7.8705   H         1 RES1   0.0000
    77 H23      -2.9122    0.5831    7.5705   H         1 RES1   0.0000
    78 H24      -2.0879    2.7603    8.8130   H         1 RES1   0.0000
    79 H25      -4.2054    3.7416    8.5174   H         1 RES1   0.0000
    80 H26      -4.3674    1.9992    8.5884   H         1 RES1   0.0000
    81 H27      -4.9295    1.8448    6.2798   H         1 RES1   0.0000
    82 H28      -4.2475    3.4411    5.9250   H         1 RES1   0.0000
    83 H29      -6.6338    3.6529    5.8319   H         1 RES1   0.0000
    84 H30      -6.0424    4.5141    7.2467   H         1 RES1   0.0000
    85 H31      -7.3779    1.7657    7.2443   H         1 RES1   0.0000
    86 H32      -8.0807    3.2753    7.8086   H         1 RES1   0.0000
    87 H33      -6.7322    2.5645    8.6833   H         1 RES1   0.0000
    88 H34      -1.9540    3.5978    5.9160   H         1 RES1   0.0000
    89 H35      -0.8082    3.8659    7.2248   H         1 RES1   0.0000
    90 H36      -3.5435    5.2215    7.0905   H         1 RES1   0.0000
    91 H37      -2.0926    5.8490    6.3393   H         1 RES1   0.0000
    92 H38      -0.9693    6.0113    8.5177   H         1 RES1   0.0000
    93 H39      -2.3717    5.3126    9.3178   H         1 RES1   0.0000
    94 H40      -2.3834    7.7217    9.5892   H         1 RES1   0.0000
    95 H41      -3.7768    7.2007    8.6463   H         1 RES1   0.0000
    96 H42      -2.8961    9.2487    7.7523   H         1 RES1   0.0000
    97 H43      -2.6706    7.9791    6.5641   H         1 RES1   0.0000
    98 H44      -0.5174    9.0598    8.4491   H         1 RES1   0.0000
    99 H45      -0.6761    9.4633    6.7466   H         1 RES1   0.0000
   100 H46      -0.2479    7.8233    7.2240   H         1 RES1   0.0000
   101 H47       0.8996    0.6390    4.1246   H         1 RES1   0.0000
   102 H48      -0.6346    1.4877    3.7345   H         1 RES1   0.0000
   103 H49       2.1987    2.0743    3.2352   H         1 RES1   0.0000
   104 H50       2.1279    2.4406    1.4877   H         1 RES1   0.0000
   105 H51       5.5820   -1.0321    1.7724   H         1 RES1   0.0000
   106 H52       3.9690   -1.7034    2.0819   H         1 RES1   0.0000
   107 H53       4.4875   -0.9418    4.5681   H         1 RES1   0.0000
   108 H54       6.1592   -0.8688    4.0116   H         1 RES1   0.0000
   109 H55       4.4633   -3.1344    4.7993   H         1 RES1   0.0000
   110 H56       6.1914   -2.9311    4.9197   H         1 RES1   0.0000
   111 H57       5.5543   -3.4124    2.1568   H         1 RES1   0.0000
   112 H58       4.6540   -4.5671    3.1256   H         1 RES1   0.0000
   113 H59       6.4195   -5.8791    2.9787   H         1 RES1   0.0000
   114 H60       7.1529   -4.8806    4.2098   H         1 RES1   0.0000
   115 H61       8.2858   -3.5415    2.5038   H         1 RES1   0.0000
   116 H62       7.3439   -4.3141    1.2227   H         1 RES1   0.0000
   117 H63       9.5942   -5.0979    1.1829   H         1 RES1   0.0000
   118 H64       8.5249   -6.4319    1.6004   H         1 RES1   0.0000
   119 H65      10.6242   -6.3784    2.9851   H         1 RES1   0.0000
   120 H66       9.1775   -6.2429    3.9809   H         1 RES1   0.0000
   121 H67      10.1435   -4.8075    3.6191   H         1 RES1   0.0000
   122 H68       6.0037    1.0811    2.1949   H         1 RES1   0.0000
   123 H69       5.2438    1.4285    3.7396   H         1 RES1   0.0000
   124 H70       5.7101    3.3757    2.4568   H         1 RES1   0.0000
   125 H71       3.9970    3.2738    2.7585   H         1 RES1   0.0000
   126 H72       5.1420    2.2986    0.1256   H         1 RES1   0.0000
   127 H73       3.5219    2.9113    0.4181   H         1 RES1   0.0000
   128 H74       6.1023    4.4907    0.3758   H         1 RES1   0.0000
   129 H75       4.9988    5.7516   -1.4292   H         1 RES1   0.0000
   130 H76       3.6653    4.6023   -1.4436   H         1 RES1   0.0000
   131 H77       5.1222    2.8369   -2.2717   H         1 RES1   0.0000
   132 H78       6.5600    3.7420   -1.8088   H         1 RES1   0.0000
   133 H79       6.3297    3.8631   -4.2045   H         1 RES1   0.0000
   134 H80       6.0494    5.4592   -3.5223   H         1 RES1   0.0000
   135 H81       3.8148    3.5384   -4.3136   H         1 RES1   0.0000
   136 H82       4.4113    4.8419   -5.3384   H         1 RES1   0.0000
   137 H83       3.6319    5.2276   -3.8135   H         1 RES1   0.0000
   138 H84       3.9808    5.1215    2.0386   H         1 RES1   0.0000
   139 H85       3.5583    6.0134    0.5958   H         1 RES1   0.0000
   140 H86       5.4856    7.3948    0.7913   H         1 RES1   0.0000
   141 H87       6.4037    6.1260    1.5943   H         1 RES1   0.0000
   142 H88       6.0039    7.7745    3.2290   H         1 RES1   0.0000
   143 H89       4.9670    6.4156    3.6380   H         1 RES1   0.0000
   144 H90       3.0432    7.5952    2.5390   H         1 RES1   0.0000
   145 H91       4.1051    8.9590    2.1896   H         1 RES1   0.0000
   146 H92       3.5019    7.9308    4.9959   H         1 RES1   0.0000
   147 H93       2.6771    9.2867    4.2235   H         1 RES1   0.0000
   148 H94       5.6405    9.1674    4.9444   H         1 RES1   0.0000
   149 H95       4.4043   10.1776    5.6786   H         1 RES1   0.0000
   150 H96       4.8949   10.4684    4.0143   H         1 RES1   0.0000
   151 C49      -0.0961   -4.3305    7.0421   C.3       1 RES1   0.0000
   152 C50       0.7112   -3.0640    7.2826   C.3       1 RES1   0.0000
   153 C51       1.9196   -2.9541    6.3480   C.3       1 RES1   0.0000
   154 C52       1.5865   -2.5545    4.8979   C.3       1 RES1   0.0000
   155 C53       1.4928   -3.6879    3.8500   C.3       1 RES1   0.0000
   156 C54       2.1600   -3.2578    2.5275   C.3       1 RES1   0.0000
   157 C55       1.7253   -3.9379    1.2184   C.3       1 RES1   0.0000
   158 C56       2.8221   -3.9139    0.1304   C.3       1 RES1   0.0000
   159 N3        3.3508   -2.6176   -0.3751   N.am      1 RES1   0.0000
   160 C57       4.8045   -2.7060   -0.6250   C.3       1 RES1   0.0000
   161 C58       5.6615   -1.4429   -0.7932   C.3       1 RES1   0.0000
   162 C59       7.1039   -1.7291   -0.3248   C.3       1 RES1   0.0000
   163 C60       8.1465   -0.5651   -0.2530   C.3       1 RES1   0.0000
   164 C61       9.0583   -0.7865    0.9723   C.3       1 RES1   0.0000
   165 C62       8.3848   -0.7300    2.3462   C.3       1 RES1   0.0000
   166 C63       9.3663   -0.4961    3.4996   C.3       1 RES1   0.0000
   167 C64      10.1750   -1.7397    3.8387   C.3       1 RES1   0.0000
   168 C65       7.5435    0.8605   -0.3556   C.3       1 RES1   0.0000
   169 C66       8.1574    1.9847    0.5015   C.3       1 RES1   0.0000
   170 C67       9.4975    2.5645    0.0509   C.3       1 RES1   0.0000
   171 C68      10.1135    3.4139    1.1680   C.3       1 RES1   0.0000
   172 C69       9.2756    4.6147    1.6111   C.3       1 RES1   0.0000
   173 C70       9.1573    5.6791    0.5294   C.3       1 RES1   0.0000
   174 C71       2.4613   -1.7260   -0.8108   C.2       1 RES1   0.0000
   175 O4        1.2360   -1.9516   -0.7343   O.2       1 RES1   0.0000
   176 C72       2.8558   -0.3915   -1.4783   C.3       1 RES1   0.0000
   177 O5        2.0359    0.6821   -0.9774   O.3       1 RES1   0.0000
   178 C73       1.7976    1.6746   -1.9703   C.3       1 RES1   0.0000
   179 C74       0.6897    1.1336   -2.8778   C.2       1 RES1   0.0000
   180 O6        0.1276    0.1080   -2.4562   O.2       1 RES1   0.0000
   181 N4        0.4099    1.6715   -4.0611   N.am      1 RES1   0.0000
   182 C75      -0.3075    0.8366   -5.0333   C.3       1 RES1   0.0000
   183 C76       0.4538    0.6847   -6.3620   C.3       1 RES1   0.0000
   184 C77       0.2135   -0.6108   -7.1855   C.3       1 RES1   0.0000
   185 C78      -1.1945   -1.2560   -7.1871   C.3       1 RES1   0.0000
   186 C79      -2.0057   -1.3317   -8.5019   C.3       1 RES1   0.0000
   187 C80      -3.4292   -0.7809   -8.3462   C.3       1 RES1   0.0000
   188 C81      -4.4615   -1.3692   -9.3089   C.3       1 RES1   0.0000
   189 C82      -4.0500   -1.2272  -10.7667   C.3       1 RES1   0.0000
   190 C83       0.6969    3.0281   -4.5200   C.3       1 RES1   0.0000
   191 C84       0.8853    4.1696   -3.5161   C.3       1 RES1   0.0000
   192 C85      -0.2612    4.4671   -2.5369   C.3       1 RES1   0.0000
   193 C86      -0.3689    5.9724   -2.2051   C.3       1 RES1   0.0000
   194 C87      -1.5154    6.2996   -1.2354   C.3       1 RES1   0.0000
   195 C88      -2.9174    6.0689   -1.8008   C.3       1 RES1   0.0000
   196 C89      -3.9879    6.9095   -1.0990   C.3       1 RES1   0.0000
   197 C90      -4.2420    6.4819    0.3420   C.3       1 RES1   0.0000
   198 C91       0.9473    6.5588   -1.6670   C.3       1 RES1   0.0000
   199 C92       0.9314    8.1014   -1.6346   C.3       1 RES1   0.0000
   200 C93       2.2225    8.7266   -2.1750   C.3       1 RES1   0.0000
   201 C94       3.4090    8.4975   -1.2412   C.3       1 RES1   0.0000
   202 C95       4.7619    8.8015   -1.8832   C.3       1 RES1   0.0000
   203 C96       4.9827   10.2776   -2.1851   C.3       1 RES1   0.0000
   204 H97      -0.9278   -4.3945    7.7384   H         1 RES1   0.0000
   205 H98       0.5418   -5.1981    7.1881   H         1 RES1   0.0000
   206 H99      -0.4863   -4.3597    6.0279   H         1 RES1   0.0000
   207 H100      1.0620   -3.0614    8.3168   H         1 RES1   0.0000
   208 H101      0.0731   -2.1809    7.1727   H         1 RES1   0.0000
   209 H102      2.4532   -3.9044    6.3616   H         1 RES1   0.0000
   210 H103      2.5919   -2.2022    6.7668   H         1 RES1   0.0000
   211 H104      2.3511   -1.8502    4.5625   H         1 RES1   0.0000
   212 H105      0.6427   -2.0113    4.9007   H         1 RES1   0.0000
   213 H106      0.4494   -3.9444    3.6673   H         1 RES1   0.0000
   214 H107      1.9868   -4.5809    4.2375   H         1 RES1   0.0000
   215 H108      3.2244   -3.4254    2.6529   H         1 RES1   0.0000
   216 H109      1.9804   -2.1933    2.3976   H         1 RES1   0.0000
   217 H110      0.8042   -3.4681    0.8535   H         1 RES1   0.0000
   218 H111      1.5180   -4.9978    1.3963   H         1 RES1   0.0000
   219 H112      2.4566   -4.4717   -0.7354   H         1 RES1   0.0000
   220 H113      3.6742   -4.4599    0.5342   H         1 RES1   0.0000
   221 H114      4.9452   -3.3557   -1.4961   H         1 RES1   0.0000
   222 H115      5.2089   -3.2540    0.2285   H         1 RES1   0.0000
   223 H116      5.2503   -0.6475   -0.1748   H         1 RES1   0.0000
   224 H117      5.6816   -1.1312   -1.8378   H         1 RES1   0.0000
   225 H118      7.5165   -2.5014   -0.9751   H         1 RES1   0.0000
   226 H119      7.0352   -2.1600    0.6718   H         1 RES1   0.0000
   227 H120      8.7968   -0.6732   -1.1263   H         1 RES1   0.0000
   228 H121      9.8457   -0.0380    0.9411   H         1 RES1   0.0000
   229 H122      9.5349   -1.7581    0.8461   H         1 RES1   0.0000
   230 H123      7.8527   -1.6592    2.5416   H         1 RES1   0.0000
   231 H124      7.6495    0.0734    2.3554   H         1 RES1   0.0000
   232 H125      8.7994   -0.1926    4.3846   H         1 RES1   0.0000
   233 H126     10.0347    0.3302    3.2499   H         1 RES1   0.0000
   234 H127      9.5209   -2.5308    4.1961   H         1 RES1   0.0000
   235 H128     10.8957   -1.5291    4.6214   H         1 RES1   0.0000
   236 H129     10.7137   -2.0983    2.9683   H         1 RES1   0.0000
   237 H130      6.4851    0.8307   -0.0837   H         1 RES1   0.0000
   238 H131      7.5869    1.1811   -1.4024   H         1 RES1   0.0000
   239 H132      8.2707    1.6638    1.5348   H         1 RES1   0.0000
   240 H133      7.4301    2.7994    0.5035   H         1 RES1   0.0000
   241 H134      9.3591    3.1623   -0.8509   H         1 RES1   0.0000
   242 H135     10.1884    1.7584   -0.2000   H         1 RES1   0.0000
   243 H136     11.0827    3.7794    0.8337   H         1 RES1   0.0000
   244 H137     10.2873    2.7660    2.0313   H         1 RES1   0.0000
   245 H138      9.7552    5.0574    2.4845   H         1 RES1   0.0000
   246 H139      8.2849    4.2818    1.9306   H         1 RES1   0.0000
   247 H140     10.1444    5.9871    0.2014   H         1 RES1   0.0000
   248 H141      8.6450    6.5596    0.9054   H         1 RES1   0.0000
   249 H142      8.6121    5.3087   -0.3336   H         1 RES1   0.0000
   250 H143      2.6691   -0.5212   -2.5504   H         1 RES1   0.0000
   251 H144      3.8900   -0.0985   -1.3280   H         1 RES1   0.0000
   252 H145      2.7135    1.8850   -2.5347   H         1 RES1   0.0000
   253 H146      1.4791    2.5700   -1.4337   H         1 RES1   0.0000
   254 H147     -0.4439   -0.1333   -4.5571   H         1 RES1   0.0000
   255 H148     -1.2775    1.2894   -5.2431   H         1 RES1   0.0000
   256 H149      1.5239    0.7000   -6.1472   H         1 RES1   0.0000
   257 H150      0.2313    1.5422   -6.9920   H         1 RES1   0.0000
   258 H151      0.9194   -1.3556   -6.8119   H         1 RES1   0.0000
   259 H152      0.5190   -0.3913   -8.2107   H         1 RES1   0.0000
   260 H153     -1.8028   -0.7628   -6.4325   H         1 RES1   0.0000
   261 H154     -1.0716   -2.2867   -6.8661   H         1 RES1   0.0000
   262 H155     -2.0772   -2.3755   -8.8033   H         1 RES1   0.0000
   263 H156     -1.4885   -0.8182   -9.3075   H         1 RES1   0.0000
   264 H157     -3.4218    0.2945   -8.4997   H         1 RES1   0.0000
   265 H158     -3.7745   -0.9779   -7.3268   H         1 RES1   0.0000
   266 H159     -5.4035   -0.8385   -9.1475   H         1 RES1   0.0000
   267 H160     -4.6347   -2.4201   -9.0718   H         1 RES1   0.0000
   268 H161     -4.8640   -1.5238  -11.4215   H         1 RES1   0.0000
   269 H162     -3.1913   -1.8559  -10.9836   H         1 RES1   0.0000
   270 H163     -3.7931   -0.1947  -10.9891   H         1 RES1   0.0000
   271 H164     -0.1495    3.3031   -5.1548   H         1 RES1   0.0000
   272 H165      1.5812    3.0029   -5.1621   H         1 RES1   0.0000
   273 H166      1.0067    5.0497   -4.1516   H         1 RES1   0.0000
   274 H167      1.8164    4.0524   -2.9686   H         1 RES1   0.0000
   275 H168     -1.2071    4.1629   -2.9831   H         1 RES1   0.0000
   276 H169     -0.1386    3.8950   -1.6133   H         1 RES1   0.0000
   277 H170     -0.5762    6.4900   -3.1468   H         1 RES1   0.0000
   278 H171     -1.4352    7.3592   -0.9930   H         1 RES1   0.0000
   279 H172     -1.3793    5.7478   -0.3018   H         1 RES1   0.0000
   280 H173     -3.1946    5.0116   -1.7395   H         1 RES1   0.0000
   281 H174     -2.9158    6.3470   -2.8544   H         1 RES1   0.0000
   282 H175     -4.9226    6.8348   -1.6589   H         1 RES1   0.0000
   283 H176     -3.6818    7.9573   -1.1135   H         1 RES1   0.0000
   284 H177     -4.4929    5.4214    0.3907   H         1 RES1   0.0000
   285 H178     -5.0722    7.0419    0.7649   H         1 RES1   0.0000
   286 H179     -3.3653    6.6669    0.9566   H         1 RES1   0.0000
   287 H180      1.7665    6.2580   -2.3211   H         1 RES1   0.0000
   288 H181      1.1560    6.1590   -0.6690   H         1 RES1   0.0000
   289 H182      0.7714    8.4569   -0.6139   H         1 RES1   0.0000
   290 H183      0.0988    8.4597   -2.2450   H         1 RES1   0.0000
   291 H184      2.0601    9.7966   -2.3086   H         1 RES1   0.0000
   292 H185      2.4352    8.3028   -3.1607   H         1 RES1   0.0000
   293 H186      3.4005    7.4511   -0.9295   H         1 RES1   0.0000
   294 H187      3.2820    9.1098   -0.3463   H         1 RES1   0.0000
   295 H188      4.8544    8.2218   -2.8053   H         1 RES1   0.0000
   296 H189      5.5492    8.4661   -1.2044   H         1 RES1   0.0000
   297 H190      4.3019   10.6286   -2.9548   H         1 RES1   0.0000
   298 H191      5.9995   10.4375   -2.5342   H         1 RES1   0.0000
   299 H192      4.8353   10.8800   -1.2919   H         1 RES1   0.0000
   300 C97       3.7275   -5.2998   -4.2389   C.3       1 RES1   0.0000
   301 C98       4.1864   -3.8548   -4.3738   C.3       1 RES1   0.0000
   302 C99       3.0963   -2.9341   -4.9231   C.3       1 RES1   0.0000
   303 C100      1.8800   -2.7931   -3.9930   C.3       1 RES1   0.0000
   304 C101      0.7117   -3.7483   -4.2935   C.3       1 RES1   0.0000
   305 C102     -0.6467   -3.0372   -4.3640   C.3       1 RES1   0.0000
   306 C103     -1.2956   -2.7291   -3.0109   C.3       1 RES1   0.0000
   307 C104     -2.7076   -2.1182   -3.1665   C.3       1 RES1   0.0000
   308 N5       -2.8482   -0.6521   -3.0230   N.am      1 RES1   0.0000
   309 C105     -3.5363    0.0085   -4.1491   C.3       1 RES1   0.0000
   310 C106     -4.3585    1.2990   -4.0061   C.3       1 RES1   0.0000
   311 C107     -4.7892    1.7741   -5.4242   C.3       1 RES1   0.0000
   312 C108     -4.2575    3.1470   -5.9668   C.3       1 RES1   0.0000
   313 C109     -3.6599    3.0308   -7.3843   C.3       1 RES1   0.0000
   314 C110     -2.2226    2.5113   -7.4789   C.3       1 RES1   0.0000
   315 C111     -1.5290    2.9591   -8.7702   C.3       1 RES1   0.0000
   316 C112     -2.0560    2.2676  -10.0170   C.3       1 RES1   0.0000
   317 C113     -3.2965    3.8690   -5.0060   C.3       1 RES1   0.0000
   318 C114     -2.5363    5.0870   -5.5619   C.3       1 RES1   0.0000
   319 C115     -3.3617    6.3141   -5.9351   C.3       1 RES1   0.0000
   320 C116     -2.4906    7.3500   -6.6564   C.3       1 RES1   0.0000
   321 C117     -1.3665    7.9685   -5.8214   C.3       1 RES1   0.0000
   322 C118     -1.8789    8.8946   -4.7276   C.3       1 RES1   0.0000
   323 C119     -2.3770   -0.1305   -1.9025   C.2       1 RES1   0.0000
   324 O7       -1.9186   -0.8479   -0.9876   O.2       1 RES1   0.0000
   325 C120     -2.3724    1.3944   -1.7072   C.3       1 RES1   0.0000
   326 O8       -1.4127    1.7874   -0.7207   O.3       1 RES1   0.0000
   327 C121     -1.9406    2.6105    0.3165   C.3       1 RES1   0.0000
   328 C122     -2.4493    1.7084    1.4441   C.2       1 RES1   0.0000
   329 O9       -2.0742    0.5184    1.3883   O.2       1 RES1   0.0000
   330 N6       -3.2946    2.1398    2.3720   N.am      1 RES1   0.0000
   331 C123     -4.0807    1.1210    3.0874   C.3       1 RES1   0.0000
   332 C124     -5.5090    1.5590    3.4309   C.3       1 RES1   0.0000
   333 C125     -6.4354    0.3926    3.8400   C.3       1 RES1   0.0000
   334 C126     -5.8238   -0.5730    4.8819   C.3       1 RES1   0.0000
   335 C127     -6.6155   -0.9161    6.1608   C.3       1 RES1   0.0000
   336 C128     -5.7443   -0.8079    7.4182   C.3       1 RES1   0.0000
   337 C129     -6.3077   -1.5491    8.6317   C.3       1 RES1   0.0000
   338 C130     -7.7363   -1.1455    8.9709   C.3       1 RES1   0.0000
   339 C131     -3.4791    3.5143    2.8351   C.3       1 RES1   0.0000
   340 C132     -2.3645    4.5480    2.6527   C.3       1 RES1   0.0000
   341 C133     -0.9853    4.1818    3.2294   C.3       1 RES1   0.0000
   342 C134     -0.2102    5.3663    3.8509   C.3       1 RES1   0.0000
   343 C135      1.2408    4.9823    4.2205   C.3       1 RES1   0.0000
   344 C136      1.3458    4.3017    5.5870   C.3       1 RES1   0.0000
   345 C137      2.7670    4.0184    6.0965   C.3       1 RES1   0.0000
   346 C138      3.3033    2.6481    5.6990   C.3       1 RES1   0.0000
   347 C139     -0.2437    6.6365    2.9714   C.3       1 RES1   0.0000
   348 C140     -1.1509    7.7077    3.5898   C.3       1 RES1   0.0000
   349 C141     -0.9678    9.0963    2.9829   C.3       1 RES1   0.0000
   350 C142     -1.4259    9.1720    1.5312   C.3       1 RES1   0.0000
   351 C143     -1.5113   10.6034    1.0096   C.3       1 RES1   0.0000
   352 C144     -0.1633   11.3091    0.9422   C.3       1 RES1   0.0000
   353 H193      4.5438   -5.9309   -3.8962   H         1 RES1   0.0000
   354 H194      3.3920   -5.6711   -5.2034   H         1 RES1   0.0000
   355 H195      2.9047   -5.3844   -3.5333   H         1 RES1   0.0000
   356 H196      5.0534   -3.8161   -5.0363   H         1 RES1   0.0000
   357 H197      4.5128   -3.4728   -3.4014   H         1 RES1   0.0000
   358 H198      2.7800   -3.3039   -5.8994   H         1 RES1   0.0000
   359 H199      3.5415   -1.9479   -5.0809   H         1 RES1   0.0000
   360 H200      1.5023   -1.7714   -4.0718   H         1 RES1   0.0000
   361 H201      2.2146   -2.9302   -2.9646   H         1 RES1   0.0000
   362 H202      0.6601   -4.5466   -3.5531   H         1 RES1   0.0000
   363 H203      0.8814   -4.2211   -5.2621   H         1 RES1   0.0000
   364 H204     -1.3320   -3.6665   -4.9384   H         1 RES1   0.0000
   365 H205     -0.5045   -2.1090   -4.9123   H         1 RES1   0.0000
   366 H206     -0.6357   -2.0879   -2.4234   H         1 RES1   0.0000
   367 H207     -1.4062   -3.6665   -2.4606   H         1 RES1   0.0000
   368 H208     -3.3534   -2.5772   -2.4170   H         1 RES1   0.0000
   369 H209     -3.0805   -2.3841   -4.1543   H         1 RES1   0.0000
   370 H210     -4.2522   -0.7278   -4.5213   H         1 RES1   0.0000
   371 H211     -2.7861    0.1690   -4.9233   H         1 RES1   0.0000
   372 H212     -3.8298    2.1067   -3.5202   H         1 RES1   0.0000
   373 H213     -5.2425    1.0937   -3.4014   H         1 RES1   0.0000
   374 H214     -5.8720    1.8204   -5.4477   H         1 RES1   0.0000
   375 H215     -4.5256    1.0052   -6.1443   H         1 RES1   0.0000
   376 H216     -5.1334    3.7970   -6.0682   H         1 RES1   0.0000
   377 H217     -3.6817    4.0289   -7.8212   H         1 RES1   0.0000
   378 H218     -4.3199    2.4096   -7.9887   H         1 RES1   0.0000
   379 H219     -2.2003    1.4268   -7.4004   H         1 RES1   0.0000
   380 H220     -1.6413    2.9110   -6.6507   H         1 RES1   0.0000
   381 H221     -0.4551    2.7660   -8.6920   H         1 RES1   0.0000
   382 H222     -1.6471    4.0403   -8.8725   H         1 RES1   0.0000
   383 H223     -1.8286    1.2067   -9.9904   H         1 RES1   0.0000
   384 H224     -1.5891    2.6833  -10.9041   H         1 RES1   0.0000
   385 H225     -3.1300    2.3936  -10.1046   H         1 RES1   0.0000
   386 H226     -2.5255    3.1616   -4.6753   H         1 RES1   0.0000
   387 H227     -3.8589    4.1895   -4.1224   H         1 RES1   0.0000
   388 H228     -1.9651    4.8078   -6.4453   H         1 RES1   0.0000
   389 H229     -1.8109    5.3775   -4.7978   H         1 RES1   0.0000
   390 H230     -3.8189    6.7493   -5.0456   H         1 RES1   0.0000
   391 H231     -4.1700    6.0153   -6.6044   H         1 RES1   0.0000
   392 H232     -3.1333    8.1545   -7.0121   H         1 RES1   0.0000
   393 H233     -2.0526    6.8689   -7.5354   H         1 RES1   0.0000
   394 H234     -0.7315    8.5466   -6.4935   H         1 RES1   0.0000
   395 H235     -0.7382    7.1838   -5.3919   H         1 RES1   0.0000
   396 H236     -2.4797    9.6870   -5.1618   H         1 RES1   0.0000
   397 H237     -1.0501    9.3577   -4.2001   H         1 RES1   0.0000
   398 H238     -2.4909    8.3612   -4.0062   H         1 RES1   0.0000
   399 H239     -2.0640    1.8558   -2.6494   H         1 RES1   0.0000
   400 H240     -3.3730    1.7346   -1.4175   H         1 RES1   0.0000
   401 H241     -2.7339    3.2599   -0.0684   H         1 RES1   0.0000
   402 H242     -1.1030    3.2225    0.6544   H         1 RES1   0.0000
   403 H243     -3.5714    0.8368    4.0042   H         1 RES1   0.0000
   404 H244     -4.1107    0.2430    2.4451   H         1 RES1   0.0000
   405 H245     -5.9633    2.0484    2.5684   H         1 RES1   0.0000
   406 H246     -5.4853    2.2712    4.2511   H         1 RES1   0.0000
   407 H247     -6.6994   -0.1655    2.9381   H         1 RES1   0.0000
   408 H248     -7.3647    0.8290    4.2155   H         1 RES1   0.0000
   409 H249     -4.8564   -0.1770    5.1819   H         1 RES1   0.0000
   410 H250     -5.6387   -1.5199    4.3842   H         1 RES1   0.0000
   411 H251     -6.9813   -1.9394    6.0806   H         1 RES1   0.0000
   412 H252     -7.4889   -0.2773    6.2624   H         1 RES1   0.0000
   413 H253     -5.6193    0.2416    7.6823   H         1 RES1   0.0000
   414 H254     -4.7525   -1.2223    7.2055   H         1 RES1   0.0000
   415 H255     -5.6642   -1.3357    9.4886   H         1 RES1   0.0000
   416 H256     -6.2630   -2.6248    8.4501   H         1 RES1   0.0000
   417 H257     -8.0361   -1.5887    9.9164   H         1 RES1   0.0000
   418 H258     -8.4245   -1.4855    8.2016   H         1 RES1   0.0000
   419 H259     -7.8190   -0.0653    9.0648   H         1 RES1   0.0000
   420 H260     -3.6559    3.4337    3.9111   H         1 RES1   0.0000
   421 H261     -4.3925    3.9193    2.3923   H         1 RES1   0.0000
   422 H262     -2.7359    5.4280    3.1812   H         1 RES1   0.0000
   423 H263     -2.2676    4.8354    1.6088   H         1 RES1   0.0000
   424 H264     -1.1211    3.4363    4.0142   H         1 RES1   0.0000
   425 H265     -0.3610    3.7291    2.4534   H         1 RES1   0.0000
   426 H266     -0.7166    5.6135    4.7883   H         1 RES1   0.0000
   427 H267      1.8292    5.8987    4.2740   H         1 RES1   0.0000
   428 H268      1.6749    4.3670    3.4290   H         1 RES1   0.0000
   429 H269      0.7802    3.3668    5.5863   H         1 RES1   0.0000
   430 H270      0.8711    4.9731    6.3025   H         1 RES1   0.0000
   431 H271      2.7544    4.0665    7.1859   H         1 RES1   0.0000
   432 H272      3.4519    4.7939    5.7502   H         1 RES1   0.0000
   433 H273      2.6048    1.8635    5.9862   H         1 RES1   0.0000
   434 H274      4.2484    2.4485    6.1961   H         1 RES1   0.0000
   435 H275      3.4762    2.5946    4.6299   H         1 RES1   0.0000
   436 H276     -0.5641    6.4035    1.9549   H         1 RES1   0.0000
   437 H277      0.7608    7.0570    2.8922   H         1 RES1   0.0000
   438 H278     -0.9175    7.7705    4.6552   H         1 RES1   0.0000
   439 H279     -2.2017    7.4164    3.4949   H         1 RES1   0.0000
   440 H280      0.0818    9.3812    3.0636   H         1 RES1   0.0000
   441 H281     -1.5497    9.8022    3.5770   H         1 RES1   0.0000
   442 H282     -2.4165    8.7174    1.4544   H         1 RES1   0.0000
   443 H283     -0.7400    8.5930    0.9103   H         1 RES1   0.0000
   444 H284     -2.1854   11.1724    1.6515   H         1 RES1   0.0000
   445 H285     -1.9507   10.5834    0.0109   H         1 RES1   0.0000
   446 H286      0.2517   11.4618    1.9349   H         1 RES1   0.0000
   447 H287     -0.2815   12.2815    0.4723   H         1 RES1   0.0000
   448 H288      0.5480   10.7331    0.3531   H         1 RES1   0.0000
@<TRIPOS>BOND
     1     1    26    1
     2     1    28    1
     3     1    31    1
     4     1   175    1
     5     1   177    1
     6     1   180    1
     7     1   324    1
     8     1   326    1
     9     1   329    1
    10     2     3    1
    11     2    55    1
    12     2    56    1
    13     2    57    1
    14     3     4    1
    15     3    58    1
    16     3    59    1
    17     4     5    1
    18     4    60    1
    19     4    61    1
    20     5     6    1
    21     5    62    1
    22     5    63    1
    23     6     7    1
    24     6    64    1
    25     6    65    1
    26     7     8    1
    27     7    66    1
    28     7    67    1
    29     8     9    1
    30     8    68    1
    31     8    69    1
    32     9    10    1
    33     9    70    1
    34     9    71    1
    35    10    11    1
    36    10    25    1
    37    11    12    1
    38    11    72    1
    39    11    73    1
    40    12    13    1
    41    12    74    1
    42    12    75    1
    43    13    14    1
    44    13    76    1
    45    13    77    1
    46    14    15    1
    47    14    19    1
    48    14    78    1
    49    15    16    1
    50    15    79    1
    51    15    80    1
    52    16    17    1
    53    16    81    1
    54    16    82    1
    55    17    18    1
    56    17    83    1
    57    17    84    1
    58    18    85    1
    59    18    86    1
    60    18    87    1
    61    19    20    1
    62    19    88    1
    63    19    89    1
    64    20    21    1
    65    20    90    1
    66    20    91    1
    67    21    22    1
    68    21    92    1
    69    21    93    1
    70    22    23    1
    71    22    94    1
    72    22    95    1
    73    23    24    1
    74    23    96    1
    75    23    97    1
    76    24    98    1
    77    24    99    1
    78    24   100    1
    79    25    26    2
    80    25    27    1
    81    27    28    1
    82    27   101    1
    83    27   102    1
    84    28    29    1
    85    29    30    1
    86    29   103    1
    87    29   104    1
    88    30    31    2
    89    30    32    1
    90    32    33    1
    91    32    41    1
    92    33    34    1
    93    33   105    1
    94    33   106    1
    95    34    35    1
    96    34   107    1
    97    34   108    1
    98    35    36    1
    99    35   109    1
   100    35   110    1
   101    36    37    1
   102    36   111    1
   103    36   112    1
   104    37    38    1
   105    37   113    1
   106    37   114    1
   107    38    39    1
   108    38   115    1
   109    38   116    1
   110    39    40    1
   111    39   117    1
   112    39   118    1
   113    40   119    1
   114    40   120    1
   115    40   121    1
   116    41    42    1
   117    41   122    1
   118    41   123    1
   119    42    43    1
   120    42   124    1
   121    42   125    1
   122    43    44    1
   123    43   126    1
   124    43   127    1
   125    44    45    1
   126    44    49    1
   127    44   128    1
   128    45    46    1
   129    45   129    1
   130    45   130    1
   131    46    47    1
   132    46   131    1
   133    46   132    1
   134    47    48    1
   135    47   133    1
   136    47   134    1
   137    48   135    1
   138    48   136    1
   139    48   137    1
   140    49    50    1
   141    49   138    1
   142    49   139    1
   143    50    51    1
   144    50   140    1
   145    50   141    1
   146    51    52    1
   147    51   142    1
   148    51   143    1
   149    52    53    1
   150    52   144    1
   151    52   145    1
   152    53    54    1
   153    53   146    1
   154    53   147    1
   155    54   148    1
   156    54   149    1
   157    54   150    1
   158   151   152    1
   159   151   204    1
   160   151   205    1
   161   151   206    1
   162   152   153    1
   163   152   207    1
   164   152   208    1
   165   153   154    1
   166   153   209    1
   167   153   210    1
   168   154   155    1
   169   154   211    1
   170   154   212    1
   171   155   156    1
   172   155   213    1
   173   155   214    1
   174   156   157    1
   175   156   215    1
   176   156   216    1
   177   157   158    1
   178   157   217    1
   179   157   218    1
   180   158   159    1
   181   158   219    1
   182   158   220    1
   183   159   160    1
   184   159   174    1
   185   160   161    1
   186   160   221    1
   187   160   222    1
   188   161   162    1
   189   161   223    1
   190   161   224    1
   191   162   163    1
   192   162   225    1
   193   162   226    1
   194   163   164    1
   195   163   168    1
   196   163   227    1
   197   164   165    1
   198   164   228    1
   199   164   229    1
   200   165   166    1
   201   165   230    1
   202   165   231    1
   203   166   167    1
   204   166   232    1
   205   166   233    1
   206   167   234    1
   207   167   235    1
   208   167   236    1
   209   168   169    1
   210   168   237    1
   211   168   238    1
   212   169   170    1
   213   169   239    1
   214   169   240    1
   215   170   171    1
   216   170   241    1
   217   170   242    1
   218   171   172    1
   219   171   243    1
   220   171   244    1
   221   172   173    1
   222   172   245    1
   223   172   246    1
   224   173   247    1
   225   173   248    1
   226   173   249    1
   227   174   175    2
   228   174   176    1
   229   176   177    1
   230   176   250    1
   231   176   251    1
   232   177   178    1
   233   178   179    1
   234   178   252    1
   235   178   253    1
   236   179   180    2
   237   179   181    1
   238   181   182    1
   239   181   190    1
   240   182   183    1
   241   182   254    1
   242   182   255    1
   243   183   184    1
   244   183   256    1
   245   183   257    1
   246   184   185    1
   247   184   258    1
   248   184   259    1
   249   185   186    1
   250   185   260    1
   251   185   261    1
   252   186   187    1
   253   186   262    1
   254   186   263    1
   255   187   188    1
   256   187   264    1
   257   187   265    1
   258   188   189    1
   259   188   266    1
   260   188   267    1
   261   189   268    1
   262   189   269    1
   263   189   270    1
   264   190   191    1
   265   190   271    1
   266   190   272    1
   267   191   192    1
   268   191   273    1
   269   191   274    1
   270   192   193    1
   271   192   275    1
   272   192   276    1
   273   193   194    1
   274   193   198    1
   275   193   277    1
   276   194   195    1
   277   194   278    1
   278   194   279    1
   279   195   196    1
   280   195   280    1
   281   195   281    1
   282   196   197    1
   283   196   282    1
   284   196   283    1
   285   197   284    1
   286   197   285    1
   287   197   286    1
   288   198   199    1
   289   198   287    1
   290   198   288    1
   291   199   200    1
   292   199   289    1
   293   199   290    1
   294   200   201    1
   295   200   291    1
   296   200   292    1
   297   201   202    1
   298   201   293    1
   299   201   294    1
   300   202   203    1
   301   202   295    1
   302   202   296    1
   303   203   297    1
   304   203   298    1
   305   203   299    1
   306   300   301    1
   307   300   353    1
   308   300   354    1
   309   300   355    1
   310   301   302    1
   311   301   356    1
   312   301   357    1
   313   302   303    1
   314   302   358    1
   315   302   359    1
   316   303   304    1
   317   303   360    1
   318   303   361    1
   319   304   305    1
   320   304   362    1
   321   304   363    1
   322   305   306    1
   323   305   364    1
   324   305   365    1
   325   306   307    1
   326   306   366    1
   327   306   367    1
   328   307   308    1
   329   307   368    1
   330   307   369    1
   331   308   309    1
   332   308   323    1
   333   309   310    1
   334   309   370    1
   335   309   371    1
   336   310   311    1
   337   310   372    1
   338   310   373    1
   339   311   312    1
   340   311   374    1
   341   311   375    1
   342   312   313    1
   343   312   317    1
   344   312   376    1
   345   313   314    1
   346   313   377    1
   347   313   378    1
   348   314   315    1
   349   314   379    1
   350   314   380    1
   351   315   316    1
   352   315   381    1
   353   315   382    1
   354   316   383    1
   355   316   384    1
   356   316   385    1
   357   317   318    1
   358   317   386    1
   359   317   387    1
   360   318   319    1
   361   318   388    1
   362   318   389    1
   363   319   320    1
   364   319   390    1
   365   319   391    1
   366   320   321    1
   367   320   392    1
   368   320   393    1
   369   321   322    1
   370   321   394    1
   371   321   395    1
   372   322   396    1
   373   322   397    1
   374   322   398    1
   375   323   324    2
   376   323   325    1
   377   325   326    1
   378   325   399    1
   379   325   400    1
   380   326   327    1
   381   327   328    1
   382   327   401    1
   383   327   402    1
   384   328   329    2
   385   328   330    1
   386   330   331    1
   387   330   339    1
   388   331   332    1
   389   331   403    1
   390   331   404    1
   391   332   333    1
   392   332   405    1
   393   332   406    1
   394   333   334    1
   395   333   407    1
   396   333   408    1
   397   334   335    1
   398   334   409    1
   399   334   410    1
   400   335   336    1
   401   335   411    1
   402   335   412    1
   403   336   337    1
   404   336   413    1
   405   336   414    1
   406   337   338    1
   407   337   415    1
   408   337   416    1
   409   338   417    1
   410   338   418    1
   411   338   419    1
   412   339   340    1
   413   339   420    1
   414   339   421    1
   415   340   341    1
   416   340   422    1
   417   340   423    1
   418   341   342    1
   419   341   424    1
   420   341   425    1
   421   342   343    1
   422   342   347    1
   423   342   426    1
   424   343   344    1
   425   343   427    1
   426   343   428    1
   427   344   345    1
   428   344   429    1
   429   344   430    1
   430   345   346    1
   431   345   431    1
   432   345   432    1
   433   346   433    1
   434   346   434    1
   435   346   435    1
   436   347   348    1
   437   347   436    1
   438   347   437    1
   439   348   349    1
   440   348   438    1
   441   348   439    1
   442   349   350    1
   443   349   440    1
   444   349   441    1
   445   350   351    1
   446   350   442    1
   447   350   443    1
   448   351   352    1
   449   351   444    1
   450   351   445    1
   451   352   446    1
   452   352   447    1
   453   352   448    1
@<TRIPOS>SUBSTRUCTURE
     1 RES1      448 GROUP             0 ****  ****    0  
