@<TRIPOS>MOLECULE
am_c3_9H2O_c0_0_nunpairedes_0_charge_3 Charge: 3 Unpaired_Electrons: 5 XTB_Unpaired_Electrons: 0 XTB_Charge: 3
   160   171     1     0     0
SMALL
NoCharges
****
Generated from Architector

@<TRIPOS>ATOM
     1 Sm1      -0.0010   -0.0320   -0.1209   Sm        1 RES1   0.0000
     2 C1       -0.7901    4.1081   -4.2207   C.3       1 RES1   0.0000
     3 N1       -1.2262    3.0046   -3.3727   N.am      1 RES1   0.0000
     4 C2       -0.4884    2.5841   -2.3335   C.2       1 RES1   0.0000
     5 O1       -0.8820    1.7660   -1.4867   O.2       1 RES1   0.0000
     6 C3        0.9484    3.1133   -2.2406   C.3       1 RES1   0.0000
     7 C4        1.4679    3.1007   -0.8034   C.2       1 RES1   0.0000
     8 O2        1.3698    2.0747   -0.1137   O.2       1 RES1   0.0000
     9 N2        2.0350    4.2204   -0.3259   N.am      1 RES1   0.0000
    10 C5        2.1595    5.4572   -1.0873   C.3       1 RES1   0.0000
    11 C6        2.5552    4.2522    1.0113   C.ar      1 RES1   0.0000
    12 C7        3.7903    4.8389    1.2617   C.ar      1 RES1   0.0000
    13 C8        4.2394    4.9715    2.5638   C.ar      1 RES1   0.0000
    14 C9        3.4723    4.5034    3.6172   C.ar      1 RES1   0.0000
    15 C10       2.2678    3.8718    3.3617   C.ar      1 RES1   0.0000
    16 C11       1.8029    3.7522    2.0653   C.ar      1 RES1   0.0000
    17 C12      -2.4656    2.3895   -3.7417   C.ar      1 RES1   0.0000
    18 C13      -2.8244    2.3421   -5.0865   C.ar      1 RES1   0.0000
    19 C14      -4.0533    1.8416   -5.4722   C.ar      1 RES1   0.0000
    20 C15      -4.9430    1.3658   -4.5226   C.ar      1 RES1   0.0000
    21 C16      -4.5627    1.3479   -3.1923   C.ar      1 RES1   0.0000
    22 C17      -3.3364    1.8580   -2.7991   C.ar      1 RES1   0.0000
    23 H1       -0.4316    4.9415   -3.6168   H         1 RES1   0.0000
    24 H2       -1.6399    4.4852   -4.7852   H         1 RES1   0.0000
    25 H3       -0.0052    3.7950   -4.9121   H         1 RES1   0.0000
    26 H4        1.0709    4.0781   -2.7120   H         1 RES1   0.0000
    27 H5        1.5335    2.3771   -2.8073   H         1 RES1   0.0000
    28 H6        1.1879    5.7784   -1.4705   H         1 RES1   0.0000
    29 H7        2.8700    5.3541   -1.9120   H         1 RES1   0.0000
    30 H8        2.5202    6.2349   -0.4164   H         1 RES1   0.0000
    31 H9        4.4055    5.2016    0.4545   H         1 RES1   0.0000
    32 H10       5.1775    5.4660    2.7600   H         1 RES1   0.0000
    33 H11       3.7850    4.6572    4.6364   H         1 RES1   0.0000
    34 H12       1.6621    3.4967    4.1720   H         1 RES1   0.0000
    35 H13       0.8655    3.2618    1.8604   H         1 RES1   0.0000
    36 H14      -2.1548    2.7019   -5.8475   H         1 RES1   0.0000
    37 H15      -4.3267    1.8465   -6.5150   H         1 RES1   0.0000
    38 H16      -5.9273    1.0291   -4.8073   H         1 RES1   0.0000
    39 H17      -5.2404    0.9700   -2.4396   H         1 RES1   0.0000
    40 H18      -3.0555    1.8451   -1.7623   H         1 RES1   0.0000
    41 C18       2.3712   -0.0744    5.3859   C.3       1 RES1   0.0000
    42 N3        2.4435   -0.0230    3.9299   N.am      1 RES1   0.0000
    43 C19       1.3815   -0.1111    3.1140   C.2       1 RES1   0.0000
    44 O3        1.4874   -0.1334    1.8767   O.2       1 RES1   0.0000
    45 C20      -0.0412   -0.1668    3.6733   C.3       1 RES1   0.0000
    46 C21      -0.7579   -1.3491    3.0341   C.2       1 RES1   0.0000
    47 O4       -0.8813   -1.3495    1.7993   O.2       1 RES1   0.0000
    48 N4       -1.2255   -2.3176    3.8302   N.am      1 RES1   0.0000
    49 C22      -0.9534   -2.3341    5.2595   C.3       1 RES1   0.0000
    50 C23      -2.0573   -3.3681    3.3328   C.ar      1 RES1   0.0000
    51 C24      -1.8115   -3.9479    2.0938   C.ar      1 RES1   0.0000
    52 C25      -2.6089   -4.9813    1.6307   C.ar      1 RES1   0.0000
    53 C26      -3.6435   -5.4627    2.4128   C.ar      1 RES1   0.0000
    54 C27      -3.8871   -4.8953    3.6544   C.ar      1 RES1   0.0000
    55 C28      -3.1125   -3.8411    4.1099   C.ar      1 RES1   0.0000
    56 C29       3.7581    0.2419    3.4083   C.ar      1 RES1   0.0000
    57 C30       4.8910   -0.1944    4.0932   C.ar      1 RES1   0.0000
    58 C31       6.1532    0.1757    3.6596   C.ar      1 RES1   0.0000
    59 C32       6.3036    0.9579    2.5286   C.ar      1 RES1   0.0000
    60 C33       5.1818    1.3637    1.8291   C.ar      1 RES1   0.0000
    61 C34       3.9158    1.0246    2.2684   C.ar      1 RES1   0.0000
    62 H19       1.4023    0.2490    5.7583   H         1 RES1   0.0000
    63 H20       3.1218    0.6048    5.7931   H         1 RES1   0.0000
    64 H21       2.5722   -1.0811    5.7690   H         1 RES1   0.0000
    65 H22      -0.5065    0.7196    3.2309   H         1 RES1   0.0000
    66 H23      -0.1451   -0.1161    4.7461   H         1 RES1   0.0000
    67 H24       0.0933   -2.0984    5.4446   H         1 RES1   0.0000
    68 H25      -1.1420   -3.3363    5.6398   H         1 RES1   0.0000
    69 H26      -1.5908   -1.6332    5.8042   H         1 RES1   0.0000
    70 H27      -0.9872   -3.6021    1.4939   H         1 RES1   0.0000
    71 H28      -2.3910   -5.4312    0.6706   H         1 RES1   0.0000
    72 H29      -4.2417   -6.2925    2.0703   H         1 RES1   0.0000
    73 H30      -4.6735   -5.3023    4.2734   H         1 RES1   0.0000
    74 H31      -3.3437   -3.4016    5.0678   H         1 RES1   0.0000
    75 H32       4.8178   -0.8183    4.9680   H         1 RES1   0.0000
    76 H33       7.0230   -0.1405    4.2119   H         1 RES1   0.0000
    77 H34       7.2784    1.2727    2.1991   H         1 RES1   0.0000
    78 H35       5.2808    1.9684    0.9409   H         1 RES1   0.0000
    79 H36       3.0529    1.3889    1.7323   H         1 RES1   0.0000
    80 C35       4.6876   -0.7706   -3.4376   C.3       1 RES1   0.0000
    81 N5        3.3363   -0.2630   -3.2266   N.am      1 RES1   0.0000
    82 C36       2.7216   -0.3233   -2.0360   C.2       1 RES1   0.0000
    83 O5        1.5703    0.1056   -1.8526   O.2       1 RES1   0.0000
    84 C37       3.3955   -0.9420   -0.8204   C.3       1 RES1   0.0000
    85 C38       2.6266   -2.2254   -0.4769   C.2       1 RES1   0.0000
    86 O6        1.3946   -2.1034   -0.3463   O.2       1 RES1   0.0000
    87 N6        3.2700   -3.3814   -0.2751   N.am      1 RES1   0.0000
    88 C39       4.6558   -3.6350   -0.6299   C.3       1 RES1   0.0000
    89 C40       2.6312   -4.4832    0.3892   C.ar      1 RES1   0.0000
    90 C41       1.6788   -4.2359    1.3725   C.ar      1 RES1   0.0000
    91 C42       1.1278   -5.2751    2.0998   C.ar      1 RES1   0.0000
    92 C43       1.5260   -6.5787    1.8624   C.ar      1 RES1   0.0000
    93 C44       2.4851   -6.8329    0.8966   C.ar      1 RES1   0.0000
    94 C45       3.0338   -5.7967    0.1553   C.ar      1 RES1   0.0000
    95 C46       2.6963    0.3213   -4.3752   C.ar      1 RES1   0.0000
    96 C47       3.4789    0.8211   -5.4148   C.ar      1 RES1   0.0000
    97 C48       2.8948    1.3398   -6.5562   C.ar      1 RES1   0.0000
    98 C49       1.5177    1.3905   -6.6780   C.ar      1 RES1   0.0000
    99 C50       0.7333    0.8958   -5.6522   C.ar      1 RES1   0.0000
   100 C51       1.3072    0.3615   -4.5109   C.ar      1 RES1   0.0000
   101 H37       4.9307   -1.5645   -2.7374   H         1 RES1   0.0000
   102 H38       5.4349    0.0234   -3.3401   H         1 RES1   0.0000
   103 H39       4.7579   -1.1933   -4.4400   H         1 RES1   0.0000
   104 H40       3.1224   -0.2737    0.0103   H         1 RES1   0.0000
   105 H41       4.4724   -1.0084   -0.8780   H         1 RES1   0.0000
   106 H42       5.2229   -2.7216   -0.7613   H         1 RES1   0.0000
   107 H43       4.7168   -4.2162   -1.5531   H         1 RES1   0.0000
   108 H44       5.1275   -4.1992    0.1732   H         1 RES1   0.0000
   109 H45       1.3675   -3.2203    1.5614   H         1 RES1   0.0000
   110 H46       0.3800   -5.0702    2.8533   H         1 RES1   0.0000
   111 H47       1.1002   -7.3860    2.4372   H         1 RES1   0.0000
   112 H48       2.8103   -7.8500    0.7323   H         1 RES1   0.0000
   113 H49       3.7747   -6.0439   -0.5881   H         1 RES1   0.0000
   114 H50       4.5523    0.8074   -5.3615   H         1 RES1   0.0000
   115 H51       3.5218    1.6808   -7.3626   H         1 RES1   0.0000
   116 H52       1.0539    1.7858   -7.5655   H         1 RES1   0.0000
   117 H53      -0.3426    0.8799   -5.7466   H         1 RES1   0.0000
   118 H54       0.6568   -0.0404   -3.7504   H         1 RES1   0.0000
   119 C52      -3.4242   -3.5101   -3.4392   C.3       1 RES1   0.0000
   120 N7       -2.2041   -2.7583   -3.1683   N.am      1 RES1   0.0000
   121 C53      -2.0075   -2.0211   -2.0629   C.2       1 RES1   0.0000
   122 O7       -1.0991   -1.1776   -1.9687   O.2       1 RES1   0.0000
   123 C54      -2.8228   -2.2730   -0.7893   C.3       1 RES1   0.0000
   124 C55      -3.3462   -0.9535   -0.2395   C.2       1 RES1   0.0000
   125 O8       -2.4824   -0.1647    0.1759   O.2       1 RES1   0.0000
   126 N8       -4.6614   -0.6939   -0.1982   N.am      1 RES1   0.0000
   127 C56      -5.6537   -1.6316   -0.6970   C.3       1 RES1   0.0000
   128 C57      -5.1869    0.5063    0.3791   C.ar      1 RES1   0.0000
   129 C58      -4.4248    1.6680    0.4748   C.ar      1 RES1   0.0000
   130 C59      -4.9542    2.8376    0.9890   C.ar      1 RES1   0.0000
   131 C60      -6.2657    2.8736    1.4263   C.ar      1 RES1   0.0000
   132 C61      -7.0336    1.7225    1.3497   C.ar      1 RES1   0.0000
   133 C62      -6.5029    0.5472    0.8406   C.ar      1 RES1   0.0000
   134 C63      -1.1867   -2.8635   -4.1824   C.ar      1 RES1   0.0000
   135 C64      -1.5192   -3.2754   -5.4706   C.ar      1 RES1   0.0000
   136 C65      -0.5419   -3.4446   -6.4347   C.ar      1 RES1   0.0000
   137 C66       0.7837   -3.1908   -6.1415   C.ar      1 RES1   0.0000
   138 C67       1.1246   -2.8128   -4.8557   C.ar      1 RES1   0.0000
   139 C68       0.1594   -2.6659   -3.8750   C.ar      1 RES1   0.0000
   140 H55      -4.0868   -3.5700   -2.5818   H         1 RES1   0.0000
   141 H56      -3.1758   -4.5305   -3.7344   H         1 RES1   0.0000
   142 H57      -3.9876   -3.0380   -4.2486   H         1 RES1   0.0000
   143 H58      -2.0236   -2.5416   -0.0845   H         1 RES1   0.0000
   144 H59      -3.5257   -3.0921   -0.8311   H         1 RES1   0.0000
   145 H60      -5.2605   -2.2350   -1.5062   H         1 RES1   0.0000
   146 H61      -6.5046   -1.0832   -1.0959   H         1 RES1   0.0000
   147 H62      -6.0101   -2.2926    0.0943   H         1 RES1   0.0000
   148 H63      -3.4081    1.6725    0.1310   H         1 RES1   0.0000
   149 H64      -4.3407    3.7293    1.0178   H         1 RES1   0.0000
   150 H65      -6.6882    3.7881    1.8116   H         1 RES1   0.0000
   151 H66      -8.0641    1.7522    1.6754   H         1 RES1   0.0000
   152 H67      -7.1392   -0.3222    0.8243   H         1 RES1   0.0000
   153 H68      -2.5364   -3.4775   -5.7511   H         1 RES1   0.0000
   154 H69      -0.8262   -3.7785   -7.4175   H         1 RES1   0.0000
   155 H70       1.5478   -3.3006   -6.8911   H         1 RES1   0.0000
   156 H71       2.1597   -2.6312   -4.6116   H         1 RES1   0.0000
   157 H72       0.4591   -2.3907   -2.8721   H         1 RES1   0.0000
   158 O9       -1.1010    1.8567    1.5357   O.3       1 RES1   0.0000
   159 H73      -2.0288    1.6420    1.7228   H         1 RES1   0.0000
   160 H74      -1.1191    2.6778    1.0243   H         1 RES1   0.0000
@<TRIPOS>BOND
     1     1     5    1
     2     1     8    1
     3     1    44    1
     4     1    47    1
     5     1    83    1
     6     1    86    1
     7     1   122    1
     8     1   125    1
     9     1   158    1
    10     2     3    1
    11     2    23    1
    12     2    24    1
    13     2    25    1
    14     3     4    1
    15     3    17    1
    16     4     5    2
    17     4     6    1
    18     6     7    1
    19     6    26    1
    20     6    27    1
    21     7     8    2
    22     7     9    1
    23     9    10    1
    24     9    11    1
    25    10    28    1
    26    10    29    1
    27    10    30    1
    28    11    12    1
    29    11    16    2
    30    12    13    2
    31    12    31    1
    32    13    14    1
    33    13    32    1
    34    14    15    2
    35    14    33    1
    36    15    16    1
    37    15    34    1
    38    16    35    1
    39    17    18    1
    40    17    22    2
    41    18    19    2
    42    18    36    1
    43    19    20    1
    44    19    37    1
    45    20    21    2
    46    20    38    1
    47    21    22    1
    48    21    39    1
    49    22    40    1
    50    41    42    1
    51    41    62    1
    52    41    63    1
    53    41    64    1
    54    42    43    1
    55    42    56    1
    56    43    44    2
    57    43    45    1
    58    45    46    1
    59    45    65    1
    60    45    66    1
    61    46    47    2
    62    46    48    1
    63    48    49    1
    64    48    50    1
    65    49    67    1
    66    49    68    1
    67    49    69    1
    68    50    51    1
    69    50    55    2
    70    51    52    2
    71    51    70    1
    72    52    53    1
    73    52    71    1
    74    53    54    2
    75    53    72    1
    76    54    55    1
    77    54    73    1
    78    55    74    1
    79    56    57    1
    80    56    61    2
    81    57    58    2
    82    57    75    1
    83    58    59    1
    84    58    76    1
    85    59    60    2
    86    59    77    1
    87    60    61    1
    88    60    78    1
    89    61    79    1
    90    80    81    1
    91    80   101    1
    92    80   102    1
    93    80   103    1
    94    81    82    1
    95    81    95    1
    96    82    83    2
    97    82    84    1
    98    84    85    1
    99    84   104    1
   100    84   105    1
   101    85    86    2
   102    85    87    1
   103    87    88    1
   104    87    89    1
   105    88   106    1
   106    88   107    1
   107    88   108    1
   108    89    90    1
   109    89    94    2
   110    90    91    2
   111    90   109    1
   112    91    92    1
   113    91   110    1
   114    92    93    2
   115    92   111    1
   116    93    94    1
   117    93   112    1
   118    94   113    1
   119    95    96    1
   120    95   100    2
   121    96    97    2
   122    96   114    1
   123    97    98    1
   124    97   115    1
   125    98    99    2
   126    98   116    1
   127    99   100    1
   128    99   117    1
   129   100   118    1
   130   119   120    1
   131   119   140    1
   132   119   141    1
   133   119   142    1
   134   120   121    1
   135   120   134    1
   136   121   122    2
   137   121   123    1
   138   123   124    1
   139   123   143    1
   140   123   144    1
   141   124   125    2
   142   124   126    1
   143   126   127    1
   144   126   128    1
   145   127   145    1
   146   127   146    1
   147   127   147    1
   148   128   129    1
   149   128   133    2
   150   129   130    2
   151   129   148    1
   152   130   131    1
   153   130   149    1
   154   131   132    2
   155   131   150    1
   156   132   133    1
   157   132   151    1
   158   133   152    1
   159   134   135    1
   160   134   139    2
   161   135   136    2
   162   135   153    1
   163   136   137    1
   164   136   154    1
   165   137   138    2
   166   137   155    1
   167   138   139    1
   168   138   156    1
   169   139   157    1
   170   158   159    1
   171   158   160    1
@<TRIPOS>SUBSTRUCTURE
     1 RES1      160 GROUP             0 ****  ****    0  
