@<TRIPOS>MOLECULE
cn9_YICLED_0_nunpairedes_0_charge_2 Charge: 2 Unpaired_Electrons: 5 XTB_Unpaired_Electrons: 0 XTB_Charge: 2
    70    83     1     0     0
SMALL
NoCharges
****
Generated from Architector

@<TRIPOS>ATOM
     1 Sm1      -1.0499    0.3712   -0.0285   Sm        1 RES1   0.0000
     2 C1       -4.2519    4.6249    0.4695   C.3       1 RES1   0.0000
     3 C2       -3.2577    4.5986   -0.6715   C.3       1 RES1   0.0000
     4 C3       -2.9772    5.9557   -1.3714   C.3       1 RES1   0.0000
     5 C4       -2.2454    5.5545   -2.6645   C.3       1 RES1   0.0000
     6 C5       -2.1890    4.0086   -2.6236   C.3       1 RES1   0.0000
     7 C6       -1.2763    3.6417   -1.5164   C.ar      1 RES1   0.0000
     8 N1       -0.3790    2.6981   -1.4164   N.ar      1 RES1   0.0000
     9 N2        0.0854    2.4197   -0.1782   N.ar      1 RES1   0.0000
    10 C7       -0.2652    3.1959    0.8467   C.ar      1 RES1   0.0000
    11 C8       -0.0496    2.6175    2.2027   C.ar      1 RES1   0.0000
    12 C9        0.4608    3.1470    3.3731   C.ar      1 RES1   0.0000
    13 C10       0.1744    2.4850    4.5650   C.ar      1 RES1   0.0000
    14 C11      -0.6622    1.3721    4.5822   C.ar      1 RES1   0.0000
    15 C12      -1.1090    0.9000    3.3666   C.ar      1 RES1   0.0000
    16 C13      -2.1672   -0.0352    2.8948   C.ar      1 RES1   0.0000
    17 N3       -3.2637    0.6496    2.5491   N.ar      1 RES1   0.0000
    18 N4       -3.8880    0.3114    1.4493   N.ar      1 RES1   0.0000
    19 C14      -3.5204   -0.7887    0.8188   C.ar      1 RES1   0.0000
    20 C15      -2.6254   -1.7054    1.4688   C.ar      1 RES1   0.0000
    21 N5       -1.8579   -1.2536    2.4413   N.ar      1 RES1   0.0000
    22 C16      -2.7784   -3.0365    0.8051   C.3       1 RES1   0.0000
    23 C17      -2.3027   -4.2120    1.6271   C.3       1 RES1   0.0000
    24 C18      -2.0311   -2.8054   -0.5434   C.3       1 RES1   0.0000
    25 C19      -2.9313   -1.7979   -1.3173   C.3       1 RES1   0.0000
    26 C20      -4.1084   -1.5355   -0.3401   C.3       1 RES1   0.0000
    27 C21      -4.2850   -2.9300    0.3563   C.3       1 RES1   0.0000
    28 C22      -4.7786   -4.0052   -0.5993   C.3       1 RES1   0.0000
    29 C23      -5.2522   -2.8521    1.5385   C.3       1 RES1   0.0000
    30 N6       -0.7575    1.4727    2.1992   N.ar      1 RES1   0.0000
    31 N7       -1.2870    4.0655    0.8317   N.ar      1 RES1   0.0000
    32 C24      -1.8814    4.1694   -0.3257   C.ar      1 RES1   0.0000
    33 C25      -3.5251    3.6512   -1.9045   C.3       1 RES1   0.0000
    34 C26      -3.6567    2.1521   -1.5662   C.3       1 RES1   0.0000
    35 C27      -4.7342    4.0091   -2.7605   C.3       1 RES1   0.0000
    36 H1       -3.8700    5.2539    1.2705   H         1 RES1   0.0000
    37 H2       -4.4043    3.6238    0.8725   H         1 RES1   0.0000
    38 H3       -5.2127    5.0123    0.1400   H         1 RES1   0.0000
    39 H4       -2.3713    6.5936   -0.7311   H         1 RES1   0.0000
    40 H5       -3.9274    6.4663   -1.5354   H         1 RES1   0.0000
    41 H6       -1.2442    5.9774   -2.7228   H         1 RES1   0.0000
    42 H7       -2.7939    5.8879   -3.5403   H         1 RES1   0.0000
    43 H8       -1.9867    3.5417   -3.5807   H         1 RES1   0.0000
    44 H9        1.0746    4.0316    3.3490   H         1 RES1   0.0000
    45 H10       0.5571    2.8679    5.4980   H         1 RES1   0.0000
    46 H11      -0.9949    0.9275    5.5080   H         1 RES1   0.0000
    47 H12      -2.8359   -4.2399    2.5725   H         1 RES1   0.0000
    48 H13      -1.2432   -4.0967    1.8415   H         1 RES1   0.0000
    49 H14      -2.4613   -5.1499    1.1055   H         1 RES1   0.0000
    50 H15      -1.9746   -3.7575   -1.0685   H         1 RES1   0.0000
    51 H16      -0.9997   -2.4673   -0.3503   H         1 RES1   0.0000
    52 H17      -3.3183   -2.2460   -2.2339   H         1 RES1   0.0000
    53 H18      -2.4121   -0.8436   -1.6253   H         1 RES1   0.0000
    54 H19      -5.0033   -1.1001   -0.7862   H         1 RES1   0.0000
    55 H20      -4.2214   -4.0633   -1.5278   H         1 RES1   0.0000
    56 H21      -5.8193   -3.7980   -0.8369   H         1 RES1   0.0000
    57 H22      -4.7453   -4.9799   -0.1208   H         1 RES1   0.0000
    58 H23      -4.9075   -2.1853    2.3266   H         1 RES1   0.0000
    59 H24      -5.3955   -3.8368    1.9731   H         1 RES1   0.0000
    60 H25      -6.2201   -2.4955    1.1938   H         1 RES1   0.0000
    61 H26      -2.9069    1.7849   -0.7998   H         1 RES1   0.0000
    62 H27      -3.5302    1.5831   -2.4919   H         1 RES1   0.0000
    63 H28      -4.6565    1.9513   -1.1768   H         1 RES1   0.0000
    64 H29      -4.7535    5.0588   -3.0238   H         1 RES1   0.0000
    65 H30      -5.6598    3.7546   -2.2501   H         1 RES1   0.0000
    66 H31      -4.6900    3.4433   -3.6886   H         1 RES1   0.0000
    67 N8        1.0040   -0.6890   -0.6434   N.3       1 RES1   0.0000
    68 O1        2.1534   -0.8091   -0.8192   O.2       1 RES1   0.0000
    69 O2        0.4632   -0.8982    0.4768   O.co2     1 RES1   0.0000
    70 O3        0.1951   -0.3431   -1.5378   O.co2     1 RES1   0.0000
@<TRIPOS>BOND
     1     1     8    1
     2     1     9    1
     3     1    17    1
     4     1    18    1
     5     1    21    1
     6     1    30    1
     7     1    31    1
     8     1    69    1
     9     1    70    1
    10     2     3    1
    11     2    36    1
    12     2    37    1
    13     2    38    1
    14     3     4    1
    15     3    32    1
    16     3    33    1
    17     4     5    1
    18     4    39    1
    19     4    40    1
    20     5     6    1
    21     5    41    1
    22     5    42    1
    23     6     7    1
    24     6    33    1
    25     6    43    1
    26     7     8    1
    27     7    32    2
    28     8     9    2
    29     9    10    1
    30    10    11    1
    31    10    31    2
    32    11    12    1
    33    11    30    2
    34    12    13    2
    35    12    44    1
    36    13    14    1
    37    13    45    1
    38    14    15    2
    39    14    46    1
    40    15    16    1
    41    15    30    1
    42    16    17    1
    43    16    21    2
    44    17    18    2
    45    18    19    1
    46    19    20    2
    47    19    26    1
    48    20    21    1
    49    20    22    1
    50    22    23    1
    51    22    24    1
    52    22    27    1
    53    23    47    1
    54    23    48    1
    55    23    49    1
    56    24    25    1
    57    24    50    1
    58    24    51    1
    59    25    26    1
    60    25    52    1
    61    25    53    1
    62    26    27    1
    63    26    54    1
    64    27    28    1
    65    27    29    1
    66    28    55    1
    67    28    56    1
    68    28    57    1
    69    29    58    1
    70    29    59    1
    71    29    60    1
    72    31    32    1
    73    33    34    1
    74    33    35    1
    75    34    61    1
    76    34    62    1
    77    34    63    1
    78    35    64    1
    79    35    65    1
    80    35    66    1
    81    67    68    2
    82    67    69    1
    83    67    70    1
@<TRIPOS>SUBSTRUCTURE
     1 RES1       70 GROUP             0 ****  ****    0  
