@<TRIPOS>MOLECULE
cn9_YICLED_0_nunpairedes_0_charge_3 Charge: 3 Unpaired_Electrons: 5 XTB_Unpaired_Electrons: 0 XTB_Charge: 3
   484   489     1     0     0
SMALL
NoCharges
****
Generated from Architector

@<TRIPOS>ATOM
     1 Sm1      -0.2847   -0.5664   -0.4492   Sm        1 RES1   0.0000
     2 C1        7.7629    4.1100   -4.5519   C.3       1 RES1   0.0000
     3 C2        7.4850    4.1800   -6.0440   C.3       1 RES1   0.0000
     4 C3        6.4047    5.2062   -6.3678   C.3       1 RES1   0.0000
     5 C4        5.9287    5.0785   -7.8160   C.3       1 RES1   0.0000
     6 C5        4.5427    5.7061   -8.0137   C.3       1 RES1   0.0000
     7 C6        3.6717    4.9199   -9.0054   C.3       1 RES1   0.0000
     8 C7        2.1563    5.1119   -8.7841   C.3       1 RES1   0.0000
     9 C8        1.4008    3.7926   -8.5620   C.3       1 RES1   0.0000
    10 C9        0.2903    3.8651   -7.5076   C.3       1 RES1   0.0000
    11 C10      -0.4793    2.5394   -7.4535   C.3       1 RES1   0.0000
    12 C11      -1.2766    2.3098   -6.1625   C.3       1 RES1   0.0000
    13 C12      -0.4188    1.6780   -5.0555   C.3       1 RES1   0.0000
    14 N1       -1.2188    1.4221   -3.8601   N.am      1 RES1   0.0000
    15 C13      -1.8838    2.5758   -3.2572   C.3       1 RES1   0.0000
    16 C14      -1.0239    3.8697   -3.1870   C.3       1 RES1   0.0000
    17 C15      -0.6701    4.2597   -1.7424   C.3       1 RES1   0.0000
    18 C16       0.4152    5.3534   -1.6578   C.3       1 RES1   0.0000
    19 C17       0.3977    6.2505   -0.4005   C.3       1 RES1   0.0000
    20 C18       1.1900    5.8071    0.8389   C.3       1 RES1   0.0000
    21 C19       2.7169    5.8155    0.7082   C.3       1 RES1   0.0000
    22 C20       3.4147    5.2681    1.9732   C.3       1 RES1   0.0000
    23 C21       4.4996    4.2366    1.6667   C.3       1 RES1   0.0000
    24 C22       5.0649    3.5887    2.9277   C.3       1 RES1   0.0000
    25 C23       5.9125    2.3552    2.6155   C.3       1 RES1   0.0000
    26 C24       6.4824    1.7419    3.8884   C.3       1 RES1   0.0000
    27 C25      -1.1946    0.1921   -3.2960   C.2       1 RES1   0.0000
    28 O1       -0.1731   -0.4998   -3.2323   O.2       1 RES1   0.0000
    29 C26      -2.4889   -0.5085   -2.8091   C.3       1 RES1   0.0000
    30 O2       -2.0116   -1.5006   -1.8922   O.3       1 RES1   0.0000
    31 C27      -2.9099   -2.4787   -1.3606   C.3       1 RES1   0.0000
    32 C28      -2.3395   -2.7143    0.0536   C.2       1 RES1   0.0000
    33 O3       -1.8746   -1.6777    0.5739   O.2       1 RES1   0.0000
    34 N2       -2.2750   -3.8892    0.6664   N.am      1 RES1   0.0000
    35 C29      -3.0953   -5.0480    0.2711   C.3       1 RES1   0.0000
    36 C30      -2.7867   -6.3343    1.0433   C.3       1 RES1   0.0000
    37 C31      -3.9808   -7.2240    1.3924   C.3       1 RES1   0.0000
    38 C32      -3.5603   -8.3027    2.4026   C.3       1 RES1   0.0000
    39 C33      -3.0828   -7.7441    3.7422   C.3       1 RES1   0.0000
    40 C34      -2.6890   -8.8417    4.7302   C.3       1 RES1   0.0000
    41 C35      -2.1735   -8.2557    6.0485   C.3       1 RES1   0.0000
    42 C36      -0.7039   -7.8224    5.9845   C.3       1 RES1   0.0000
    43 C37      -0.3150   -6.8529    7.1145   C.3       1 RES1   0.0000
    44 C38      -0.1817   -5.4090    6.6315   C.3       1 RES1   0.0000
    45 C39      -1.4888   -4.8589    6.0650   C.3       1 RES1   0.0000
    46 C40      -1.3164   -3.4353    5.5580   C.3       1 RES1   0.0000
    47 C41      -1.4448   -3.9408    1.8798   C.3       1 RES1   0.0000
    48 C42      -0.1696   -4.7576    1.6270   C.3       1 RES1   0.0000
    49 C43       0.8301   -4.8163    2.7920   C.3       1 RES1   0.0000
    50 C44       1.7302   -6.0602    2.6679   C.3       1 RES1   0.0000
    51 C45       3.2132   -5.8503    2.9877   C.3       1 RES1   0.0000
    52 C46       3.5689   -5.8565    4.4735   C.3       1 RES1   0.0000
    53 C47       5.0263   -6.2543    4.7392   C.3       1 RES1   0.0000
    54 C48       6.0754   -5.1776    4.4420   C.3       1 RES1   0.0000
    55 C49       6.6162   -5.1196    3.0075   C.3       1 RES1   0.0000
    56 C50       7.6240   -6.2250    2.6832   C.3       1 RES1   0.0000
    57 C51       8.4722   -5.9215    1.4463   C.3       1 RES1   0.0000
    58 C52       7.6785   -5.8901    0.1454   C.3       1 RES1   0.0000
    59 H1        8.4506    3.3006   -4.3271   H         1 RES1   0.0000
    60 H2        6.8347    3.9398   -4.0083   H         1 RES1   0.0000
    61 H3        8.1975    5.0355   -4.1892   H         1 RES1   0.0000
    62 H4        7.1386    3.2021   -6.3885   H         1 RES1   0.0000
    63 H5        8.4042    4.4156   -6.5802   H         1 RES1   0.0000
    64 H6        6.7643    6.2170   -6.1690   H         1 RES1   0.0000
    65 H7        5.5522    5.0259   -5.7019   H         1 RES1   0.0000
    66 H8        5.8889    4.0104   -8.0590   H         1 RES1   0.0000
    67 H9        6.6607    5.5297   -8.4879   H         1 RES1   0.0000
    68 H10       4.6556    6.7389   -8.3454   H         1 RES1   0.0000
    69 H11       4.0358    5.7267   -7.0450   H         1 RES1   0.0000
    70 H12       3.9048    3.8559   -8.9021   H         1 RES1   0.0000
    71 H13       3.9496    5.2084  -10.0186   H         1 RES1   0.0000
    72 H14       1.7297    5.6234   -9.6464   H         1 RES1   0.0000
    73 H15       2.0093    5.7564   -7.9137   H         1 RES1   0.0000
    74 H16       2.1145    3.0320   -8.2390   H         1 RES1   0.0000
    75 H17       0.9759    3.4482   -9.5041   H         1 RES1   0.0000
    76 H18      -0.3969    4.6807   -7.7451   H         1 RES1   0.0000
    77 H19       0.7359    4.0879   -6.5325   H         1 RES1   0.0000
    78 H20       0.2167    1.7091   -7.5958   H         1 RES1   0.0000
    79 H21      -1.1743    2.5277   -8.2895   H         1 RES1   0.0000
    80 H22      -2.1275    1.6558   -6.3651   H         1 RES1   0.0000
    81 H23      -1.6595    3.2774   -5.8289   H         1 RES1   0.0000
    82 H24       0.4204    2.3402   -4.8416   H         1 RES1   0.0000
    83 H25      -0.0044    0.7244   -5.3881   H         1 RES1   0.0000
    84 H26      -2.0989    2.2779   -2.2344   H         1 RES1   0.0000
    85 H27      -2.8207    2.7881   -3.7793   H         1 RES1   0.0000
    86 H28      -1.5630    4.6910   -3.6616   H         1 RES1   0.0000
    87 H29      -0.0912    3.7500   -3.7342   H         1 RES1   0.0000
    88 H30      -0.3175    3.3491   -1.2616   H         1 RES1   0.0000
    89 H31      -1.5714    4.6071   -1.2318   H         1 RES1   0.0000
    90 H32       0.2839    6.0224   -2.5134   H         1 RES1   0.0000
    91 H33       1.3934    4.8800   -1.7665   H         1 RES1   0.0000
    92 H34      -0.6478    6.3912   -0.1078   H         1 RES1   0.0000
    93 H35       0.7836    7.2316   -0.6858   H         1 RES1   0.0000
    94 H36       0.8591    4.8170    1.1574   H         1 RES1   0.0000
    95 H37       0.9187    6.4797    1.6535   H         1 RES1   0.0000
    96 H38       3.0515    6.8366    0.5166   H         1 RES1   0.0000
    97 H39       3.0161    5.2105   -0.1516   H         1 RES1   0.0000
    98 H40       2.6765    4.7920    2.6235   H         1 RES1   0.0000
    99 H41       3.8571    6.0830    2.5432   H         1 RES1   0.0000
   100 H42       5.3153    4.7022    1.1111   H         1 RES1   0.0000
   101 H43       4.0694    3.4519    1.0414   H         1 RES1   0.0000
   102 H44       4.2409    3.2945    3.5859   H         1 RES1   0.0000
   103 H45       5.6748    4.3096    3.4700   H         1 RES1   0.0000
   104 H46       6.7317    2.6287    1.9457   H         1 RES1   0.0000
   105 H47       5.2956    1.6130    2.0865   H         1 RES1   0.0000
   106 H48       7.1208    2.4595    4.3929   H         1 RES1   0.0000
   107 H49       7.0650    0.8539    3.6682   H         1 RES1   0.0000
   108 H50       5.6787    1.4634    4.5665   H         1 RES1   0.0000
   109 H51      -2.9227   -1.0003   -3.6920   H         1 RES1   0.0000
   110 H52      -3.2359    0.1457   -2.3524   H         1 RES1   0.0000
   111 H53      -2.9089   -3.3726   -1.9929   H         1 RES1   0.0000
   112 H54      -3.9267   -2.0767   -1.2944   H         1 RES1   0.0000
   113 H55      -2.9717   -5.2138   -0.8002   H         1 RES1   0.0000
   114 H56      -4.1413   -4.7707    0.4332   H         1 RES1   0.0000
   115 H57      -2.3598   -6.0663    1.9981   H         1 RES1   0.0000
   116 H58      -2.0623   -6.9390    0.4983   H         1 RES1   0.0000
   117 H59      -4.3650   -7.7108    0.4974   H         1 RES1   0.0000
   118 H60      -4.7770   -6.6145    1.8261   H         1 RES1   0.0000
   119 H61      -2.7716   -8.9226    1.9679   H         1 RES1   0.0000
   120 H62      -4.4154   -8.9512    2.5926   H         1 RES1   0.0000
   121 H63      -3.8792   -7.1385    4.1827   H         1 RES1   0.0000
   122 H64      -2.2094   -7.1032    3.5946   H         1 RES1   0.0000
   123 H65      -1.9194   -9.4783    4.2896   H         1 RES1   0.0000
   124 H66      -3.5550   -9.4717    4.9307   H         1 RES1   0.0000
   125 H67      -2.2713   -9.0001    6.8394   H         1 RES1   0.0000
   126 H68      -2.8047   -7.4076    6.3189   H         1 RES1   0.0000
   127 H69      -0.4886   -7.3505    5.0211   H         1 RES1   0.0000
   128 H70      -0.0843   -8.7180    6.0416   H         1 RES1   0.0000
   129 H71       0.6374   -7.1549    7.5555   H         1 RES1   0.0000
   130 H72      -1.0648   -6.8925    7.9061   H         1 RES1   0.0000
   131 H73       0.6061   -5.3601    5.8730   H         1 RES1   0.0000
   132 H74       0.1301   -4.7817    7.4702   H         1 RES1   0.0000
   133 H75      -2.2375   -4.8566    6.8582   H         1 RES1   0.0000
   134 H76      -1.8526   -5.5010    5.2624   H         1 RES1   0.0000
   135 H77      -0.8690   -2.8478    6.3472   H         1 RES1   0.0000
   136 H78      -2.2743   -2.9955    5.2862   H         1 RES1   0.0000
   137 H79      -0.6551   -3.3903    4.6950   H         1 RES1   0.0000
   138 H80      -2.0313   -4.3436    2.7059   H         1 RES1   0.0000
   139 H81      -1.1618   -2.9169    2.1283   H         1 RES1   0.0000
   140 H82       0.3204   -4.3228    0.7578   H         1 RES1   0.0000
   141 H83      -0.4330   -5.7827    1.3769   H         1 RES1   0.0000
   142 H84       0.2914   -4.8568    3.7342   H         1 RES1   0.0000
   143 H85       1.4448   -3.9119    2.8083   H         1 RES1   0.0000
   144 H86       1.6683   -6.4261    1.6417   H         1 RES1   0.0000
   145 H87       1.3469   -6.8566    3.3081   H         1 RES1   0.0000
   146 H88       3.5575   -4.9213    2.5230   H         1 RES1   0.0000
   147 H89       3.7620   -6.6733    2.5256   H         1 RES1   0.0000
   148 H90       2.9306   -6.5865    4.9736   H         1 RES1   0.0000
   149 H91       3.3626   -4.8804    4.9205   H         1 RES1   0.0000
   150 H92       5.2600   -7.1623    4.1823   H         1 RES1   0.0000
   151 H93       5.0995   -6.5055    5.7966   H         1 RES1   0.0000
   152 H94       6.9273   -5.3430    5.1030   H         1 RES1   0.0000
   153 H95       5.6604   -4.2003    4.7052   H         1 RES1   0.0000
   154 H96       7.1246   -4.1582    2.8819   H         1 RES1   0.0000
   155 H97       5.7922   -5.1523    2.2937   H         1 RES1   0.0000
   156 H98       7.1128   -7.1786    2.5450   H         1 RES1   0.0000
   157 H99       8.3011   -6.3372    3.5292   H         1 RES1   0.0000
   158 H100      9.2430   -6.6869    1.3564   H         1 RES1   0.0000
   159 H101      8.9794   -4.9638    1.5795   H         1 RES1   0.0000
   160 H102      7.2184   -6.8575   -0.0398   H         1 RES1   0.0000
   161 H103      8.3370   -5.6634   -0.6900   H         1 RES1   0.0000
   162 H104      6.8974   -5.1317    0.1760   H         1 RES1   0.0000
   163 C53       2.3067   -6.4187  -11.1680   C.3       1 RES1   0.0000
   164 C54       2.1998   -4.9094  -11.0101   C.3       1 RES1   0.0000
   165 C55       3.1049   -4.3292   -9.9233   C.3       1 RES1   0.0000
   166 C56       2.8655   -2.8267   -9.7652   C.3       1 RES1   0.0000
   167 C57       3.9174   -2.1152   -8.9038   C.3       1 RES1   0.0000
   168 C58       3.4278   -0.7046   -8.5623   C.3       1 RES1   0.0000
   169 C59       4.3663    0.1699   -7.7068   C.3       1 RES1   0.0000
   170 C60       3.5318    0.9560   -6.6911   C.3       1 RES1   0.0000
   171 C61       4.2673    2.0803   -5.9591   C.3       1 RES1   0.0000
   172 C62       3.3114    2.9926   -5.1685   C.3       1 RES1   0.0000
   173 C63       3.3547    2.9295   -3.6361   C.3       1 RES1   0.0000
   174 C64       2.8072    1.6275   -3.0507   C.3       1 RES1   0.0000
   175 N3        2.8319    1.6558   -1.5809   N.am      1 RES1   0.0000
   176 C65       4.1478    1.7419   -0.9548   C.3       1 RES1   0.0000
   177 C66       5.2345    0.9143   -1.6694   C.3       1 RES1   0.0000
   178 C67       4.8688   -0.5611   -1.9521   C.3       1 RES1   0.0000
   179 C68       5.2185   -0.9350   -3.3995   C.3       1 RES1   0.0000
   180 C69       4.8878   -2.3645   -3.8216   C.3       1 RES1   0.0000
   181 C70       3.4022   -2.7311   -3.8672   C.3       1 RES1   0.0000
   182 C71       2.5818   -2.1689   -5.0292   C.3       1 RES1   0.0000
   183 C72       1.2292   -2.8799   -5.0833   C.3       1 RES1   0.0000
   184 C73       0.2319   -2.3069   -6.0873   C.3       1 RES1   0.0000
   185 C74      -1.1744   -2.7988   -5.7506   C.3       1 RES1   0.0000
   186 C75      -2.2605   -2.0835   -6.5468   C.3       1 RES1   0.0000
   187 C76      -3.6446   -2.6542   -6.2620   C.3       1 RES1   0.0000
   188 C77       1.6757    1.6092   -0.9335   C.2       1 RES1   0.0000
   189 O4        0.6316    1.1934   -1.4833   O.2       1 RES1   0.0000
   190 C78       1.4342    2.1927    0.4726   C.3       1 RES1   0.0000
   191 O5        0.1837    1.6868    0.9672   O.3       1 RES1   0.0000
   192 C79      -0.9662    2.5468    1.1008   C.3       1 RES1   0.0000
   193 C80      -2.1428    2.0159    0.2538   C.2       1 RES1   0.0000
   194 O6       -1.9420    0.9481   -0.3649   O.2       1 RES1   0.0000
   195 N4       -3.3386    2.6008    0.2297   N.am      1 RES1   0.0000
   196 C81      -3.6470    3.8543    0.9190   C.3       1 RES1   0.0000
   197 C82      -4.6852    4.7680    0.2362   C.3       1 RES1   0.0000
   198 C83      -5.9151    5.0995    1.0990   C.3       1 RES1   0.0000
   199 C84      -7.0368    4.0479    1.1113   C.3       1 RES1   0.0000
   200 C85      -6.9874    3.0497    2.2739   C.3       1 RES1   0.0000
   201 C86      -8.0011    1.9166    2.1043   C.3       1 RES1   0.0000
   202 C87      -8.0489    0.9508    3.2907   C.3       1 RES1   0.0000
   203 C88      -8.7726   -0.3449    2.9187   C.3       1 RES1   0.0000
   204 C89      -9.1312   -1.2606    4.0948   C.3       1 RES1   0.0000
   205 C90      -7.9773   -2.0520    4.7266   C.3       1 RES1   0.0000
   206 C91      -7.2703   -1.3379    5.8794   C.3       1 RES1   0.0000
   207 C92      -6.2704   -2.2434    6.5935   C.3       1 RES1   0.0000
   208 C93      -4.4774    1.7779   -0.2205   C.3       1 RES1   0.0000
   209 C94      -5.0128    1.9772   -1.6443   C.3       1 RES1   0.0000
   210 C95      -5.8177    0.7628   -2.1326   C.3       1 RES1   0.0000
   211 C96      -7.2739    0.7992   -1.6777   C.3       1 RES1   0.0000
   212 C97      -8.0636   -0.4079   -2.1764   C.3       1 RES1   0.0000
   213 C98      -7.7007   -1.6950   -1.4335   C.3       1 RES1   0.0000
   214 C99      -8.6818   -2.8479   -1.6915   C.3       1 RES1   0.0000
   215 C100     -8.2034   -3.8848   -2.7104   C.3       1 RES1   0.0000
   216 C101     -7.9573   -3.3719   -4.1297   C.3       1 RES1   0.0000
   217 C102     -9.2404   -2.9211   -4.8247   C.3       1 RES1   0.0000
   218 C103     -9.0261   -2.4990   -6.2791   C.3       1 RES1   0.0000
   219 C104     -8.2256   -1.2081   -6.4036   C.3       1 RES1   0.0000
   220 H105      1.6942   -6.7427  -12.0040   H         1 RES1   0.0000
   221 H106      1.9609   -6.9392  -10.2795   H         1 RES1   0.0000
   222 H107      3.3306   -6.7220  -11.3627   H         1 RES1   0.0000
   223 H108      1.1602   -4.6528  -10.7922   H         1 RES1   0.0000
   224 H109      2.4644   -4.4421  -11.9588   H         1 RES1   0.0000
   225 H110      4.1483   -4.5021  -10.1829   H         1 RES1   0.0000
   226 H111      2.9157   -4.8300   -8.9692   H         1 RES1   0.0000
   227 H112      1.8823   -2.6734   -9.3081   H         1 RES1   0.0000
   228 H113      2.8437   -2.3571  -10.7513   H         1 RES1   0.0000
   229 H114      4.8660   -2.0721   -9.4421   H         1 RES1   0.0000
   230 H115      4.0798   -2.6902   -7.9855   H         1 RES1   0.0000
   231 H116      2.4764   -0.8159   -8.0352   H         1 RES1   0.0000
   232 H117      3.2094   -0.1881   -9.4985   H         1 RES1   0.0000
   233 H118      4.9103    0.8674   -8.3455   H         1 RES1   0.0000
   234 H119      5.1127   -0.4409   -7.1933   H         1 RES1   0.0000
   235 H120      3.0912    0.2541   -5.9854   H         1 RES1   0.0000
   236 H121      2.7061    1.4091   -7.2376   H         1 RES1   0.0000
   237 H122      4.7461    2.6892   -6.7250   H         1 RES1   0.0000
   238 H123      5.0675    1.6867   -5.3257   H         1 RES1   0.0000
   239 H124      2.3013    2.7894   -5.5142   H         1 RES1   0.0000
   240 H125      3.5339    4.0269   -5.4294   H         1 RES1   0.0000
   241 H126      2.7577    3.7629   -3.2494   H         1 RES1   0.0000
   242 H127      4.3852    3.0943   -3.3214   H         1 RES1   0.0000
   243 H128      3.3839    0.7865   -3.4062   H         1 RES1   0.0000
   244 H129      1.7720    1.4791   -3.3509   H         1 RES1   0.0000
   245 H130      4.0631    1.3710    0.0690   H         1 RES1   0.0000
   246 H131      4.4770    2.7862   -0.9253   H         1 RES1   0.0000
   247 H132      6.1151    0.9597   -1.0259   H         1 RES1   0.0000
   248 H133      5.5218    1.3876   -2.6091   H         1 RES1   0.0000
   249 H134      3.8043   -0.7209   -1.7551   H         1 RES1   0.0000
   250 H135      5.4314   -1.2126   -1.2786   H         1 RES1   0.0000
   251 H136      6.2934   -0.7864   -3.5260   H         1 RES1   0.0000
   252 H137      4.7240   -0.2567   -4.0950   H         1 RES1   0.0000
   253 H138      5.3981   -3.0626   -3.1540   H         1 RES1   0.0000
   254 H139      5.2992   -2.5135   -4.8194   H         1 RES1   0.0000
   255 H140      2.9234   -2.4347   -2.9298   H         1 RES1   0.0000
   256 H141      3.3458   -3.8181   -3.9566   H         1 RES1   0.0000
   257 H142      3.1169   -2.2952   -5.9724   H         1 RES1   0.0000
   258 H143      2.3879   -1.1080   -4.8701   H         1 RES1   0.0000
   259 H144      0.7766   -2.7837   -4.0933   H         1 RES1   0.0000
   260 H145      1.3752   -3.9435   -5.2958   H         1 RES1   0.0000
   261 H146      0.5001   -2.5917   -7.1045   H         1 RES1   0.0000
   262 H147      0.2551   -1.2168   -6.0355   H         1 RES1   0.0000
   263 H148     -1.3448   -2.6354   -4.6807   H         1 RES1   0.0000
   264 H149     -1.2372   -3.8727   -5.9324   H         1 RES1   0.0000
   265 H150     -2.0509   -2.1779   -7.6119   H         1 RES1   0.0000
   266 H151     -2.2408   -1.0169   -6.3037   H         1 RES1   0.0000
   267 H152     -3.6832   -3.7088   -6.5236   H         1 RES1   0.0000
   268 H153     -4.4017   -2.1407   -6.8480   H         1 RES1   0.0000
   269 H154     -3.9007   -2.5632   -5.2051   H         1 RES1   0.0000
   270 H155      1.4170    3.2827    0.3611   H         1 RES1   0.0000
   271 H156      2.2166    1.9441    1.1963   H         1 RES1   0.0000
   272 H157     -0.7223    3.5896    0.8866   H         1 RES1   0.0000
   273 H158     -1.2817    2.4753    2.1510   H         1 RES1   0.0000
   274 H159     -2.7156    4.4065    1.0323   H         1 RES1   0.0000
   275 H160     -4.0235    3.6162    1.9129   H         1 RES1   0.0000
   276 H161     -5.0111    4.3381   -0.7074   H         1 RES1   0.0000
   277 H162     -4.1906    5.7120   -0.0032   H         1 RES1   0.0000
   278 H163     -6.3285    6.0235    0.6943   H         1 RES1   0.0000
   279 H164     -5.5952    5.3205    2.1179   H         1 RES1   0.0000
   280 H165     -7.0432    3.5129    0.1598   H         1 RES1   0.0000
   281 H166     -7.9873    4.5782    1.1765   H         1 RES1   0.0000
   282 H167     -7.1897    3.5804    3.2063   H         1 RES1   0.0000
   283 H168     -5.9936    2.6039    2.3602   H         1 RES1   0.0000
   284 H169     -7.7507    1.3511    1.2034   H         1 RES1   0.0000
   285 H170     -8.9917    2.3384    1.9464   H         1 RES1   0.0000
   286 H171     -8.5685    1.4215    4.1254   H         1 RES1   0.0000
   287 H172     -7.0316    0.7263    3.6179   H         1 RES1   0.0000
   288 H173     -8.1711   -0.9100    2.1961   H         1 RES1   0.0000
   289 H174     -9.7068   -0.0732    2.4218   H         1 RES1   0.0000
   290 H175     -9.8599   -1.9821    3.7203   H         1 RES1   0.0000
   291 H176     -9.6327   -0.6771    4.8675   H         1 RES1   0.0000
   292 H177     -7.2559   -2.3265    3.9543   H         1 RES1   0.0000
   293 H178     -8.3844   -2.9849    5.1248   H         1 RES1   0.0000
   294 H179     -8.0263   -1.0225    6.6004   H         1 RES1   0.0000
   295 H180     -6.7628   -0.4401    5.5199   H         1 RES1   0.0000
   296 H181     -6.7708   -3.1232    6.9919   H         1 RES1   0.0000
   297 H182     -5.8041   -1.7131    7.4210   H         1 RES1   0.0000
   298 H183     -5.4874   -2.5808    5.9140   H         1 RES1   0.0000
   299 H184     -5.2762    1.9515    0.4981   H         1 RES1   0.0000
   300 H185     -4.1460    0.7386   -0.1324   H         1 RES1   0.0000
   301 H186     -4.1871    2.1584   -2.3246   H         1 RES1   0.0000
   302 H187     -5.6799    2.8354   -1.7058   H         1 RES1   0.0000
   303 H188     -5.3673   -0.1662   -1.7750   H         1 RES1   0.0000
   304 H189     -5.8046    0.7442   -3.2248   H         1 RES1   0.0000
   305 H190     -7.7388    1.7130   -2.0487   H         1 RES1   0.0000
   306 H191     -7.3137    0.8179   -0.5890   H         1 RES1   0.0000
   307 H192     -7.8980   -0.5232   -3.2469   H         1 RES1   0.0000
   308 H193     -9.1250   -0.2107   -2.0306   H         1 RES1   0.0000
   309 H194     -7.6948   -1.4737   -0.3629   H         1 RES1   0.0000
   310 H195     -6.6915   -2.0184   -1.7059   H         1 RES1   0.0000
   311 H196     -9.6425   -2.4458   -2.0085   H         1 RES1   0.0000
   312 H197     -8.8517   -3.3800   -0.7531   H         1 RES1   0.0000
   313 H198     -8.9576   -4.6722   -2.7615   H         1 RES1   0.0000
   314 H199     -7.2791   -4.3375   -2.3394   H         1 RES1   0.0000
   315 H200     -7.5151   -4.1841   -4.7144   H         1 RES1   0.0000
   316 H201     -7.2320   -2.5562   -4.1081   H         1 RES1   0.0000
   317 H202     -9.6853   -2.0869   -4.2801   H         1 RES1   0.0000
   318 H203     -9.9521   -3.7481   -4.8018   H         1 RES1   0.0000
   319 H204    -10.0023   -2.3517   -6.7452   H         1 RES1   0.0000
   320 H205     -8.5217   -3.3009   -6.8233   H         1 RES1   0.0000
   321 H206     -8.7269   -0.4043   -5.8691   H         1 RES1   0.0000
   322 H207     -8.1343   -0.9164   -7.4453   H         1 RES1   0.0000
   323 H208     -7.2241   -1.3277   -5.9960   H         1 RES1   0.0000
   324 C105    -10.5407    2.6795    6.1655   C.3       1 RES1   0.0000
   325 C106     -9.6185    1.8902    7.0855   C.3       1 RES1   0.0000
   326 C107     -8.2020    2.4596    7.1076   C.3       1 RES1   0.0000
   327 C108     -7.3136    1.7697    8.1428   C.3       1 RES1   0.0000
   328 C109     -5.8320    2.0873    7.9336   C.3       1 RES1   0.0000
   329 C110     -4.9816    1.6103    9.1100   C.3       1 RES1   0.0000
   330 C111     -3.4720    1.7626    8.8784   C.3       1 RES1   0.0000
   331 C112     -2.8920    0.5369    8.1704   C.3       1 RES1   0.0000
   332 C113     -1.4330    0.7068    7.7386   C.3       1 RES1   0.0000
   333 C114     -0.9574   -0.5363    6.9819   C.3       1 RES1   0.0000
   334 C115      0.3475   -0.4022    6.1716   C.3       1 RES1   0.0000
   335 C116      0.0225    0.0060    4.7309   C.3       1 RES1   0.0000
   336 N5        1.1742    0.2065    3.8465   N.am      1 RES1   0.0000
   337 C117      2.2362    1.1263    4.2548   C.3       1 RES1   0.0000
   338 C118      1.7754    2.3469    5.0752   C.3       1 RES1   0.0000
   339 C119      0.6476    3.2101    4.4821   C.3       1 RES1   0.0000
   340 C120     -0.1708    3.8236    5.6264   C.3       1 RES1   0.0000
   341 C121     -1.4357    4.6087    5.2565   C.3       1 RES1   0.0000
   342 C122     -2.4764    3.8845    4.3978   C.3       1 RES1   0.0000
   343 C123     -2.9571    2.5323    4.9267   C.3       1 RES1   0.0000
   344 C124     -3.7678    1.7489    3.8886   C.3       1 RES1   0.0000
   345 C125     -3.6769    0.2307    4.0208   C.3       1 RES1   0.0000
   346 C126     -4.3005   -0.4596    2.8096   C.3       1 RES1   0.0000
   347 C127     -4.3758   -1.9692    2.9957   C.3       1 RES1   0.0000
   348 C128     -5.1913   -2.6338    1.8974   C.3       1 RES1   0.0000
   349 C129      1.1743   -0.4265    2.6700   C.2       1 RES1   0.0000
   350 O7        0.1493   -0.8478    2.1094   O.2       1 RES1   0.0000
   351 C130      2.5062   -0.8110    1.9879   C.3       1 RES1   0.0000
   352 O8        2.2148   -1.2228    0.6510   O.3       1 RES1   0.0000
   353 C131      2.6876   -2.5233    0.2844   C.3       1 RES1   0.0000
   354 C132      1.6843   -3.1405   -0.7018   C.2       1 RES1   0.0000
   355 O9        0.6221   -2.5013   -0.8956   O.2       1 RES1   0.0000
   356 N6        1.9209   -4.3083   -1.2841   N.am      1 RES1   0.0000
   357 C133      3.2248   -4.9647   -1.3351   C.3       1 RES1   0.0000
   358 C134      3.3442   -6.3522   -0.6932   C.3       1 RES1   0.0000
   359 C135      4.4258   -7.1966   -1.3872   C.3       1 RES1   0.0000
   360 C136      3.9363   -8.0927   -2.5307   C.3       1 RES1   0.0000
   361 C137      3.3826   -7.3798   -3.7670   C.3       1 RES1   0.0000
   362 C138      3.2441   -8.3500   -4.9458   C.3       1 RES1   0.0000
   363 C139      2.2521   -7.9028   -6.0260   C.3       1 RES1   0.0000
   364 C140      0.7957   -8.0827   -5.5803   C.3       1 RES1   0.0000
   365 C141     -0.2219   -8.3072   -6.7122   C.3       1 RES1   0.0000
   366 C142     -1.0155   -7.0825   -7.1740   C.3       1 RES1   0.0000
   367 C143     -0.2032   -6.0018   -7.8865   C.3       1 RES1   0.0000
   368 C144     -1.1128   -5.0848   -8.7001   C.3       1 RES1   0.0000
   369 C145      0.9131   -4.7996   -2.2332   C.3       1 RES1   0.0000
   370 C146      0.2217   -6.1103   -1.8565   C.3       1 RES1   0.0000
   371 C147     -1.0385   -6.3460   -2.6960   C.3       1 RES1   0.0000
   372 C148     -1.6147   -7.7494   -2.4497   C.3       1 RES1   0.0000
   373 C149     -3.1417   -7.8267   -2.5001   C.3       1 RES1   0.0000
   374 C150     -3.7431   -7.6137   -3.8862   C.3       1 RES1   0.0000
   375 C151     -5.2103   -8.0468   -3.9805   C.3       1 RES1   0.0000
   376 C152     -6.2453   -7.1251   -3.3237   C.3       1 RES1   0.0000
   377 C153     -6.4924   -7.2882   -1.8203   C.3       1 RES1   0.0000
   378 C154     -6.9386   -8.6976   -1.4172   C.3       1 RES1   0.0000
   379 C155     -7.9492   -8.7112   -0.2683   C.3       1 RES1   0.0000
   380 C156     -7.4023   -8.1726    1.0468   C.3       1 RES1   0.0000
   381 H209    -11.5229    2.2174    6.1208   H         1 RES1   0.0000
   382 H210    -10.1366    2.7248    5.1559   H         1 RES1   0.0000
   383 H211    -10.6620    3.6970    6.5266   H         1 RES1   0.0000
   384 H212     -9.5818    0.8481    6.7585   H         1 RES1   0.0000
   385 H213    -10.0257    1.9023    8.0969   H         1 RES1   0.0000
   386 H214     -8.2508    3.5267    7.3326   H         1 RES1   0.0000
   387 H215     -7.7529    2.3510    6.1153   H         1 RES1   0.0000
   388 H216     -7.4538    0.6880    8.0867   H         1 RES1   0.0000
   389 H217     -7.6162    2.0859    9.1417   H         1 RES1   0.0000
   390 H218     -5.7044    3.1673    7.8162   H         1 RES1   0.0000
   391 H219     -5.4967    1.6084    7.0080   H         1 RES1   0.0000
   392 H220     -5.2044    0.5608    9.3138   H         1 RES1   0.0000
   393 H221     -5.2779    2.1823    9.9907   H         1 RES1   0.0000
   394 H222     -2.9674    1.8939    9.8382   H         1 RES1   0.0000
   395 H223     -3.2840    2.6611    8.2821   H         1 RES1   0.0000
   396 H224     -3.4951    0.3256    7.2836   H         1 RES1   0.0000
   397 H225     -2.9748   -0.3231    8.8380   H         1 RES1   0.0000
   398 H226     -0.8046    0.8827    8.6135   H         1 RES1   0.0000
   399 H227     -1.3658    1.5938    7.1097   H         1 RES1   0.0000
   400 H228     -1.7548   -0.8403    6.3048   H         1 RES1   0.0000
   401 H229     -0.8331   -1.3229    7.7239   H         1 RES1   0.0000
   402 H230      0.8798   -1.3543    6.1591   H         1 RES1   0.0000
   403 H231      0.9953    0.3181    6.6624   H         1 RES1   0.0000
   404 H232     -0.5830    0.9082    4.7523   H         1 RES1   0.0000
   405 H233     -0.5649   -0.7923    4.2733   H         1 RES1   0.0000
   406 H234      2.7221    1.4951    3.3497   H         1 RES1   0.0000
   407 H235      2.9894    0.5963    4.8463   H         1 RES1   0.0000
   408 H236      2.6558    2.9713    5.2440   H         1 RES1   0.0000
   409 H237      1.4680    2.0174    6.0632   H         1 RES1   0.0000
   410 H238      0.0162    2.5953    3.8435   H         1 RES1   0.0000
   411 H239      1.0569    4.0091    3.8592   H         1 RES1   0.0000
   412 H240      0.4815    4.5058    6.1715   H         1 RES1   0.0000
   413 H241     -0.4480    3.0318    6.3234   H         1 RES1   0.0000
   414 H242     -1.1568    5.5226    4.7277   H         1 RES1   0.0000
   415 H243     -1.9068    4.9127    6.1933   H         1 RES1   0.0000
   416 H244     -2.0534    3.7457    3.4019   H         1 RES1   0.0000
   417 H245     -3.3420    4.5422    4.2925   H         1 RES1   0.0000
   418 H246     -3.5575    2.6847    5.8215   H         1 RES1   0.0000
   419 H247     -2.1010    1.9293    5.2157   H         1 RES1   0.0000
   420 H248     -3.4062    1.9983    2.8873   H         1 RES1   0.0000
   421 H249     -4.8168    2.0361    3.9550   H         1 RES1   0.0000
   422 H250     -4.1795   -0.0968    4.9324   H         1 RES1   0.0000
   423 H251     -2.6318   -0.0709    4.0902   H         1 RES1   0.0000
   424 H252     -3.6987   -0.2362    1.9200   H         1 RES1   0.0000
   425 H253     -5.3066   -0.0689    2.6485   H         1 RES1   0.0000
   426 H254     -4.8341   -2.1849    3.9608   H         1 RES1   0.0000
   427 H255     -3.3626   -2.3725    3.0083   H         1 RES1   0.0000
   428 H256     -6.1990   -2.2280    1.8758   H         1 RES1   0.0000
   429 H257     -5.2669   -3.7022    2.0749   H         1 RES1   0.0000
   430 H258     -4.7339   -2.4601    0.9248   H         1 RES1   0.0000
   431 H259      2.9020   -1.6458    2.5815   H         1 RES1   0.0000
   432 H260      3.2725   -0.0266    1.9805   H         1 RES1   0.0000
   433 H261      2.7514   -3.1796    1.1611   H         1 RES1   0.0000
   434 H262      3.6839   -2.4237   -0.1629   H         1 RES1   0.0000
   435 H263      3.9732   -4.3097   -0.8934   H         1 RES1   0.0000
   436 H264      3.4674   -5.0672   -2.3927   H         1 RES1   0.0000
   437 H265      2.3989   -6.8821   -0.7395   H         1 RES1   0.0000
   438 H266      3.6082   -6.2286    0.3553   H         1 RES1   0.0000
   439 H267      4.8587   -7.8574   -0.6358   H         1 RES1   0.0000
   440 H268      5.2253   -6.5434   -1.7426   H         1 RES1   0.0000
   441 H269      3.1771   -8.7764   -2.1426   H         1 RES1   0.0000
   442 H270      4.7840   -8.7048   -2.8436   H         1 RES1   0.0000
   443 H271      4.0494   -6.5645   -4.0629   H         1 RES1   0.0000
   444 H272      2.4026   -6.9599   -3.5423   H         1 RES1   0.0000
   445 H273      2.9176   -9.3214   -4.5704   H         1 RES1   0.0000
   446 H274      4.2258   -8.4898   -5.3971   H         1 RES1   0.0000
   447 H275      2.4219   -8.5207   -6.9081   H         1 RES1   0.0000
   448 H276      2.4470   -6.8673   -6.3119   H         1 RES1   0.0000
   449 H277      0.4823   -7.2254   -4.9827   H         1 RES1   0.0000
   450 H278      0.7642   -8.9619   -4.9322   H         1 RES1   0.0000
   451 H279     -0.9557   -9.0417   -6.3689   H         1 RES1   0.0000
   452 H280      0.2819   -8.7484   -7.5729   H         1 RES1   0.0000
   453 H281     -1.5396   -6.6421   -6.3185   H         1 RES1   0.0000
   454 H282     -1.7808   -7.4413   -7.8662   H         1 RES1   0.0000
   455 H283      0.5160   -6.4679   -8.5619   H         1 RES1   0.0000
   456 H284      0.3600   -5.4161   -7.1550   H         1 RES1   0.0000
   457 H285     -1.5377   -5.6301   -9.5391   H         1 RES1   0.0000
   458 H286     -0.5584   -4.2346   -9.0909   H         1 RES1   0.0000
   459 H287     -1.9349   -4.7113   -8.0945   H         1 RES1   0.0000
   460 H288      1.4061   -4.9207   -3.1994   H         1 RES1   0.0000
   461 H289      0.1587   -4.0158   -2.3306   H         1 RES1   0.0000
   462 H290     -0.0505   -6.0924   -0.8018   H         1 RES1   0.0000
   463 H291      0.8935   -6.9487   -2.0292   H         1 RES1   0.0000
   464 H292     -0.7984   -6.2263   -3.7526   H         1 RES1   0.0000
   465 H293     -1.7861   -5.5878   -2.4546   H         1 RES1   0.0000
   466 H294     -1.2957   -8.0972   -1.4640   H         1 RES1   0.0000
   467 H295     -1.2010   -8.4452   -3.1786   H         1 RES1   0.0000
   468 H296     -3.5592   -7.0921   -1.8116   H         1 RES1   0.0000
   469 H297     -3.4372   -8.8160   -2.1461   H         1 RES1   0.0000
   470 H298     -3.1721   -8.2075   -4.6053   H         1 RES1   0.0000
   471 H299     -3.6585   -6.5640   -4.1818   H         1 RES1   0.0000
   472 H300     -5.3085   -9.0570   -3.5849   H         1 RES1   0.0000
   473 H301     -5.4546   -8.0943   -5.0427   H         1 RES1   0.0000
   474 H302     -7.1984   -7.3025   -3.8248   H         1 RES1   0.0000
   475 H303     -5.9693   -6.0861   -3.5268   H         1 RES1   0.0000
   476 H304     -7.2847   -6.5869   -1.5493   H         1 RES1   0.0000
   477 H305     -5.6049   -6.9975   -1.2575   H         1 RES1   0.0000
   478 H306     -6.0739   -9.3022   -1.1371   H         1 RES1   0.0000
   479 H307     -7.4107   -9.1739   -2.2768   H         1 RES1   0.0000
   480 H308     -8.2769   -9.7391   -0.1109   H         1 RES1   0.0000
   481 H309     -8.8260   -8.1275   -0.5552   H         1 RES1   0.0000
   482 H310     -6.5566   -8.7672    1.3820   H         1 RES1   0.0000
   483 H311     -8.1710   -8.2163    1.8130   H         1 RES1   0.0000
   484 H312     -7.0859   -7.1376    0.9439   H         1 RES1   0.0000
@<TRIPOS>BOND
     1     1    28    1
     2     1    30    1
     3     1    33    1
     4     1   189    1
     5     1   191    1
     6     1   194    1
     7     1   350    1
     8     1   352    1
     9     1   355    1
    10     2     3    1
    11     2    59    1
    12     2    60    1
    13     2    61    1
    14     3     4    1
    15     3    62    1
    16     3    63    1
    17     4     5    1
    18     4    64    1
    19     4    65    1
    20     5     6    1
    21     5    66    1
    22     5    67    1
    23     6     7    1
    24     6    68    1
    25     6    69    1
    26     7     8    1
    27     7    70    1
    28     7    71    1
    29     8     9    1
    30     8    72    1
    31     8    73    1
    32     9    10    1
    33     9    74    1
    34     9    75    1
    35    10    11    1
    36    10    76    1
    37    10    77    1
    38    11    12    1
    39    11    78    1
    40    11    79    1
    41    12    13    1
    42    12    80    1
    43    12    81    1
    44    13    14    1
    45    13    82    1
    46    13    83    1
    47    14    15    1
    48    14    27    1
    49    15    16    1
    50    15    84    1
    51    15    85    1
    52    16    17    1
    53    16    86    1
    54    16    87    1
    55    17    18    1
    56    17    88    1
    57    17    89    1
    58    18    19    1
    59    18    90    1
    60    18    91    1
    61    19    20    1
    62    19    92    1
    63    19    93    1
    64    20    21    1
    65    20    94    1
    66    20    95    1
    67    21    22    1
    68    21    96    1
    69    21    97    1
    70    22    23    1
    71    22    98    1
    72    22    99    1
    73    23    24    1
    74    23   100    1
    75    23   101    1
    76    24    25    1
    77    24   102    1
    78    24   103    1
    79    25    26    1
    80    25   104    1
    81    25   105    1
    82    26   106    1
    83    26   107    1
    84    26   108    1
    85    27    28    2
    86    27    29    1
    87    29    30    1
    88    29   109    1
    89    29   110    1
    90    30    31    1
    91    31    32    1
    92    31   111    1
    93    31   112    1
    94    32    33    2
    95    32    34    1
    96    34    35    1
    97    34    47    1
    98    35    36    1
    99    35   113    1
   100    35   114    1
   101    36    37    1
   102    36   115    1
   103    36   116    1
   104    37    38    1
   105    37   117    1
   106    37   118    1
   107    38    39    1
   108    38   119    1
   109    38   120    1
   110    39    40    1
   111    39   121    1
   112    39   122    1
   113    40    41    1
   114    40   123    1
   115    40   124    1
   116    41    42    1
   117    41   125    1
   118    41   126    1
   119    42    43    1
   120    42   127    1
   121    42   128    1
   122    43    44    1
   123    43   129    1
   124    43   130    1
   125    44    45    1
   126    44   131    1
   127    44   132    1
   128    45    46    1
   129    45   133    1
   130    45   134    1
   131    46   135    1
   132    46   136    1
   133    46   137    1
   134    47    48    1
   135    47   138    1
   136    47   139    1
   137    48    49    1
   138    48   140    1
   139    48   141    1
   140    49    50    1
   141    49   142    1
   142    49   143    1
   143    50    51    1
   144    50   144    1
   145    50   145    1
   146    51    52    1
   147    51   146    1
   148    51   147    1
   149    52    53    1
   150    52   148    1
   151    52   149    1
   152    53    54    1
   153    53   150    1
   154    53   151    1
   155    54    55    1
   156    54   152    1
   157    54   153    1
   158    55    56    1
   159    55   154    1
   160    55   155    1
   161    56    57    1
   162    56   156    1
   163    56   157    1
   164    57    58    1
   165    57   158    1
   166    57   159    1
   167    58   160    1
   168    58   161    1
   169    58   162    1
   170   163   164    1
   171   163   220    1
   172   163   221    1
   173   163   222    1
   174   164   165    1
   175   164   223    1
   176   164   224    1
   177   165   166    1
   178   165   225    1
   179   165   226    1
   180   166   167    1
   181   166   227    1
   182   166   228    1
   183   167   168    1
   184   167   229    1
   185   167   230    1
   186   168   169    1
   187   168   231    1
   188   168   232    1
   189   169   170    1
   190   169   233    1
   191   169   234    1
   192   170   171    1
   193   170   235    1
   194   170   236    1
   195   171   172    1
   196   171   237    1
   197   171   238    1
   198   172   173    1
   199   172   239    1
   200   172   240    1
   201   173   174    1
   202   173   241    1
   203   173   242    1
   204   174   175    1
   205   174   243    1
   206   174   244    1
   207   175   176    1
   208   175   188    1
   209   176   177    1
   210   176   245    1
   211   176   246    1
   212   177   178    1
   213   177   247    1
   214   177   248    1
   215   178   179    1
   216   178   249    1
   217   178   250    1
   218   179   180    1
   219   179   251    1
   220   179   252    1
   221   180   181    1
   222   180   253    1
   223   180   254    1
   224   181   182    1
   225   181   255    1
   226   181   256    1
   227   182   183    1
   228   182   257    1
   229   182   258    1
   230   183   184    1
   231   183   259    1
   232   183   260    1
   233   184   185    1
   234   184   261    1
   235   184   262    1
   236   185   186    1
   237   185   263    1
   238   185   264    1
   239   186   187    1
   240   186   265    1
   241   186   266    1
   242   187   267    1
   243   187   268    1
   244   187   269    1
   245   188   189    2
   246   188   190    1
   247   190   191    1
   248   190   270    1
   249   190   271    1
   250   191   192    1
   251   192   193    1
   252   192   272    1
   253   192   273    1
   254   193   194    2
   255   193   195    1
   256   195   196    1
   257   195   208    1
   258   196   197    1
   259   196   274    1
   260   196   275    1
   261   197   198    1
   262   197   276    1
   263   197   277    1
   264   198   199    1
   265   198   278    1
   266   198   279    1
   267   199   200    1
   268   199   280    1
   269   199   281    1
   270   200   201    1
   271   200   282    1
   272   200   283    1
   273   201   202    1
   274   201   284    1
   275   201   285    1
   276   202   203    1
   277   202   286    1
   278   202   287    1
   279   203   204    1
   280   203   288    1
   281   203   289    1
   282   204   205    1
   283   204   290    1
   284   204   291    1
   285   205   206    1
   286   205   292    1
   287   205   293    1
   288   206   207    1
   289   206   294    1
   290   206   295    1
   291   207   296    1
   292   207   297    1
   293   207   298    1
   294   208   209    1
   295   208   299    1
   296   208   300    1
   297   209   210    1
   298   209   301    1
   299   209   302    1
   300   210   211    1
   301   210   303    1
   302   210   304    1
   303   211   212    1
   304   211   305    1
   305   211   306    1
   306   212   213    1
   307   212   307    1
   308   212   308    1
   309   213   214    1
   310   213   309    1
   311   213   310    1
   312   214   215    1
   313   214   311    1
   314   214   312    1
   315   215   216    1
   316   215   313    1
   317   215   314    1
   318   216   217    1
   319   216   315    1
   320   216   316    1
   321   217   218    1
   322   217   317    1
   323   217   318    1
   324   218   219    1
   325   218   319    1
   326   218   320    1
   327   219   321    1
   328   219   322    1
   329   219   323    1
   330   324   325    1
   331   324   381    1
   332   324   382    1
   333   324   383    1
   334   325   326    1
   335   325   384    1
   336   325   385    1
   337   326   327    1
   338   326   386    1
   339   326   387    1
   340   327   328    1
   341   327   388    1
   342   327   389    1
   343   328   329    1
   344   328   390    1
   345   328   391    1
   346   329   330    1
   347   329   392    1
   348   329   393    1
   349   330   331    1
   350   330   394    1
   351   330   395    1
   352   331   332    1
   353   331   396    1
   354   331   397    1
   355   332   333    1
   356   332   398    1
   357   332   399    1
   358   333   334    1
   359   333   400    1
   360   333   401    1
   361   334   335    1
   362   334   402    1
   363   334   403    1
   364   335   336    1
   365   335   404    1
   366   335   405    1
   367   336   337    1
   368   336   349    1
   369   337   338    1
   370   337   406    1
   371   337   407    1
   372   338   339    1
   373   338   408    1
   374   338   409    1
   375   339   340    1
   376   339   410    1
   377   339   411    1
   378   340   341    1
   379   340   412    1
   380   340   413    1
   381   341   342    1
   382   341   414    1
   383   341   415    1
   384   342   343    1
   385   342   416    1
   386   342   417    1
   387   343   344    1
   388   343   418    1
   389   343   419    1
   390   344   345    1
   391   344   420    1
   392   344   421    1
   393   345   346    1
   394   345   422    1
   395   345   423    1
   396   346   347    1
   397   346   424    1
   398   346   425    1
   399   347   348    1
   400   347   426    1
   401   347   427    1
   402   348   428    1
   403   348   429    1
   404   348   430    1
   405   349   350    2
   406   349   351    1
   407   351   352    1
   408   351   431    1
   409   351   432    1
   410   352   353    1
   411   353   354    1
   412   353   433    1
   413   353   434    1
   414   354   355    2
   415   354   356    1
   416   356   357    1
   417   356   369    1
   418   357   358    1
   419   357   435    1
   420   357   436    1
   421   358   359    1
   422   358   437    1
   423   358   438    1
   424   359   360    1
   425   359   439    1
   426   359   440    1
   427   360   361    1
   428   360   441    1
   429   360   442    1
   430   361   362    1
   431   361   443    1
   432   361   444    1
   433   362   363    1
   434   362   445    1
   435   362   446    1
   436   363   364    1
   437   363   447    1
   438   363   448    1
   439   364   365    1
   440   364   449    1
   441   364   450    1
   442   365   366    1
   443   365   451    1
   444   365   452    1
   445   366   367    1
   446   366   453    1
   447   366   454    1
   448   367   368    1
   449   367   455    1
   450   367   456    1
   451   368   457    1
   452   368   458    1
   453   368   459    1
   454   369   370    1
   455   369   460    1
   456   369   461    1
   457   370   371    1
   458   370   462    1
   459   370   463    1
   460   371   372    1
   461   371   464    1
   462   371   465    1
   463   372   373    1
   464   372   466    1
   465   372   467    1
   466   373   374    1
   467   373   468    1
   468   373   469    1
   469   374   375    1
   470   374   470    1
   471   374   471    1
   472   375   376    1
   473   375   472    1
   474   375   473    1
   475   376   377    1
   476   376   474    1
   477   376   475    1
   478   377   378    1
   479   377   476    1
   480   377   477    1
   481   378   379    1
   482   378   478    1
   483   378   479    1
   484   379   380    1
   485   379   480    1
   486   379   481    1
   487   380   482    1
   488   380   483    1
   489   380   484    1
@<TRIPOS>SUBSTRUCTURE
     1 RES1      484 GROUP             0 ****  ****    0  
