@<TRIPOS>MOLECULE
capped_square_antiprismatic_0_nunpairedes_0_charge_3 Charge: 3 Unpaired_Electrons: 5 XTB_Unpaired_Electrons: 0 XTB_Charge: 3
    82    94     1     0     0
SMALL
NoCharges
****
Generated from Architector

@<TRIPOS>ATOM
     1 Sm1      -0.4874   -0.6264   -0.0103   Sm        1 RES1   0.0000
     2 C1       -1.1425    1.8583    2.5900   C.3       1 RES1   0.0000
     3 C2        0.2387    1.8077    3.2953   C.3       1 RES1   0.0000
     4 C3        0.1035    1.0107    4.6048   C.3       1 RES1   0.0000
     5 C4        0.8316    3.1947    3.5790   C.3       1 RES1   0.0000
     6 C5        1.3178    3.8890    2.3104   C.3       1 RES1   0.0000
     7 C6        2.4557    3.1291    1.6028   C.3       1 RES1   0.0000
     8 C7        3.8099    3.4159    2.2933   C.3       1 RES1   0.0000
     9 C8        2.5881    3.5938    0.1416   C.3       1 RES1   0.0000
    10 C9        2.2075    1.6559    1.6203   C.ar      1 RES1   0.0000
    11 N1        2.8767    0.8831    0.7701   N.ar      1 RES1   0.0000
    12 C10       2.4871   -0.3690    0.6015   C.ar      1 RES1   0.0000
    13 C11       2.8432   -1.0774   -0.6548   C.ar      1 RES1   0.0000
    14 C12       3.9793   -1.7487   -1.0591   C.ar      1 RES1   0.0000
    15 C13       3.9675   -2.3200   -2.3323   C.ar      1 RES1   0.0000
    16 C14       2.8866   -2.1192   -3.1801   C.ar      1 RES1   0.0000
    17 C15       1.7937   -1.4089   -2.6971   C.ar      1 RES1   0.0000
    18 C16       0.5483   -1.1084   -3.4317   C.ar      1 RES1   0.0000
    19 C17       0.4459   -0.8651   -4.7960   C.ar      1 RES1   0.0000
    20 C18      -0.8047   -0.5628   -5.3215   C.ar      1 RES1   0.0000
    21 C19      -1.9324   -0.5829   -4.4968   C.ar      1 RES1   0.0000
    22 C20      -1.7407   -0.8218   -3.1500   C.ar      1 RES1   0.0000
    23 C21      -2.6583   -1.0568   -1.9871   C.ar      1 RES1   0.0000
    24 N2       -2.5067   -0.1924   -0.9808   N.ar      1 RES1   0.0000
    25 N3       -2.8843   -0.5781    0.2451   N.ar      1 RES1   0.0000
    26 C22      -3.2391   -1.8335    0.4703   C.ar      1 RES1   0.0000
    27 C23      -3.1770   -2.7785   -0.6047   C.ar      1 RES1   0.0000
    28 N4       -3.0273   -2.3207   -1.8353   N.ar      1 RES1   0.0000
    29 C24      -2.8430   -4.2216   -0.3710   C.3       1 RES1   0.0000
    30 C25      -3.6052   -5.1381   -1.3328   C.3       1 RES1   0.0000
    31 C26      -1.3359   -4.2659   -0.7491   C.3       1 RES1   0.0000
    32 C27      -3.0314   -4.6396    1.1018   C.3       1 RES1   0.0000
    33 C28      -3.9811   -3.7162    1.8567   C.3       1 RES1   0.0000
    34 C29      -3.4663   -2.2695    1.8921   C.3       1 RES1   0.0000
    35 C30      -4.4995   -1.3725    2.5899   C.3       1 RES1   0.0000
    36 C31      -2.1046   -2.1467    2.6316   C.3       1 RES1   0.0000
    37 N5       -0.5201   -1.0351   -2.6213   N.ar      1 RES1   0.0000
    38 N6        1.7544   -0.9593   -1.4327   N.ar      1 RES1   0.0000
    39 N7        1.4081   -0.9109    1.1757   N.ar      1 RES1   0.0000
    40 N8        0.7261   -0.1621    2.0446   N.ar      1 RES1   0.0000
    41 C32       1.1344    1.0586    2.3544   C.ar      1 RES1   0.0000
    42 H1       -1.7214    2.7015    2.9602   H         1 RES1   0.0000
    43 H2       -1.6941    0.9374    2.8025   H         1 RES1   0.0000
    44 H3       -1.0419    1.9755    1.4950   H         1 RES1   0.0000
    45 H4       -0.6040    1.5136    5.2579   H         1 RES1   0.0000
    46 H5        1.0559    0.9434    5.1253   H         1 RES1   0.0000
    47 H6       -0.2468   -0.0024    4.4126   H         1 RES1   0.0000
    48 H7        1.6713    3.0833    4.2671   H         1 RES1   0.0000
    49 H8        0.0893    3.8155    4.0812   H         1 RES1   0.0000
    50 H9        1.6862    4.8807    2.5733   H         1 RES1   0.0000
    51 H10       0.4838    4.0250    1.6180   H         1 RES1   0.0000
    52 H11       3.9458    4.4954    2.2955   H         1 RES1   0.0000
    53 H12       4.6299    2.9720    1.7343   H         1 RES1   0.0000
    54 H13       3.8371    3.0545    3.3179   H         1 RES1   0.0000
    55 H14       3.0002    4.5965    0.1123   H         1 RES1   0.0000
    56 H15       1.6155    3.6243   -0.3466   H         1 RES1   0.0000
    57 H16       3.2577    2.9417   -0.4099   H         1 RES1   0.0000
    58 H17       4.8223   -1.8610   -0.4003   H         1 RES1   0.0000
    59 H18       4.8053   -2.9199   -2.6522   H         1 RES1   0.0000
    60 H19       2.8844   -2.5399   -4.1735   H         1 RES1   0.0000
    61 H20       1.3176   -0.8959   -5.4291   H         1 RES1   0.0000
    62 H21      -0.9144   -0.3194   -6.3680   H         1 RES1   0.0000
    63 H22      -2.9154   -0.4381   -4.9144   H         1 RES1   0.0000
    64 H23      -3.6046   -4.7355   -2.3413   H         1 RES1   0.0000
    65 H24      -4.6359   -5.2560   -1.0115   H         1 RES1   0.0000
    66 H25      -3.1364   -6.1187   -1.3429   H         1 RES1   0.0000
    67 H26      -1.2232   -4.1856   -1.8283   H         1 RES1   0.0000
    68 H27      -0.9176   -5.2178   -0.4301   H         1 RES1   0.0000
    69 H28      -0.7415   -3.4419   -0.2672   H         1 RES1   0.0000
    70 H29      -2.0639   -4.6729    1.6082   H         1 RES1   0.0000
    71 H30      -3.4271   -5.6543    1.1285   H         1 RES1   0.0000
    72 H31      -4.1271   -4.0804    2.8735   H         1 RES1   0.0000
    73 H32      -4.9591   -3.7277    1.3734   H         1 RES1   0.0000
    74 H33      -5.4719   -1.4618    2.1115   H         1 RES1   0.0000
    75 H34      -4.2023   -0.3270    2.5672   H         1 RES1   0.0000
    76 H35      -4.6074   -1.6862    3.6261   H         1 RES1   0.0000
    77 H36      -1.9922   -2.9684    3.3401   H         1 RES1   0.0000
    78 H37      -2.0894   -1.2184    3.2044   H         1 RES1   0.0000
    79 H38      -1.2225   -2.1931    1.9344   H         1 RES1   0.0000
    80 O1       -0.1341    1.6785   -0.9781   O.3       1 RES1   0.0000
    81 H39       0.6585    2.0689   -1.3931   H         1 RES1   0.0000
    82 H40      -0.8765    2.2287   -1.2897   H         1 RES1   0.0000
@<TRIPOS>BOND
     1     1    11    1
     2     1    24    1
     3     1    25    1
     4     1    28    1
     5     1    37    1
     6     1    38    1
     7     1    39    1
     8     1    40    1
     9     1    80    1
    10     2     3    1
    11     2    42    1
    12     2    43    1
    13     2    44    1
    14     3     4    1
    15     3     5    1
    16     3    41    1
    17     4    45    1
    18     4    46    1
    19     4    47    1
    20     5     6    1
    21     5    48    1
    22     5    49    1
    23     6     7    1
    24     6    50    1
    25     6    51    1
    26     7     8    1
    27     7     9    1
    28     7    10    1
    29     8    52    1
    30     8    53    1
    31     8    54    1
    32     9    55    1
    33     9    56    1
    34     9    57    1
    35    10    11    1
    36    10    41    2
    37    11    12    2
    38    12    13    1
    39    12    39    1
    40    13    14    1
    41    13    38    2
    42    14    15    2
    43    14    58    1
    44    15    16    1
    45    15    59    1
    46    16    17    2
    47    16    60    1
    48    17    18    1
    49    17    38    1
    50    18    19    1
    51    18    37    2
    52    19    20    2
    53    19    61    1
    54    20    21    1
    55    20    62    1
    56    21    22    2
    57    21    63    1
    58    22    23    1
    59    22    37    1
    60    23    24    1
    61    23    28    2
    62    24    25    2
    63    25    26    1
    64    26    27    2
    65    26    34    1
    66    27    28    1
    67    27    29    1
    68    29    30    1
    69    29    31    1
    70    29    32    1
    71    30    64    1
    72    30    65    1
    73    30    66    1
    74    31    67    1
    75    31    68    1
    76    31    69    1
    77    32    33    1
    78    32    70    1
    79    32    71    1
    80    33    34    1
    81    33    72    1
    82    33    73    1
    83    34    35    1
    84    34    36    1
    85    35    74    1
    86    35    75    1
    87    35    76    1
    88    36    77    1
    89    36    78    1
    90    36    79    1
    91    39    40    2
    92    40    41    1
    93    80    81    1
    94    80    82    1
@<TRIPOS>SUBSTRUCTURE
     1 RES1       82 GROUP             0 ****  ****    0  
