@<TRIPOS>MOLECULE
tricapped_trigonal_prismatic_0_nunpairedes_0_charge_3 Charge: 3 Unpaired_Electrons: 5 XTB_Unpaired_Electrons: 0 XTB_Charge: 3
   340   345     1     0     0
SMALL
NoCharges
****
Generated from Architector

@<TRIPOS>ATOM
     1 Sm1       0.1463    0.0275   -0.0861   Sm        1 RES1   0.0000
     2 C1       -6.8621   -6.1236   -3.6594   C.3       1 RES1   0.0000
     3 C2       -7.0364   -5.3537   -4.9635   C.3       1 RES1   0.0000
     4 C3       -7.4272   -3.8966   -4.7221   C.3       1 RES1   0.0000
     5 C4       -7.6679   -3.1205   -6.0182   C.3       1 RES1   0.0000
     6 C5       -7.9339   -1.6489   -5.7167   C.3       1 RES1   0.0000
     7 C6       -8.2136   -0.7686   -6.9340   C.3       1 RES1   0.0000
     8 C7       -7.1309   -0.7338   -8.0230   C.3       1 RES1   0.0000
     9 C8       -5.6713   -0.6439   -7.5564   C.3       1 RES1   0.0000
    10 C9       -5.3553    0.5184   -6.5989   C.3       1 RES1   0.0000
    11 C10      -4.5262    0.0608   -5.3916   C.3       1 RES1   0.0000
    12 C11      -3.0694   -0.2596   -5.7442   C.3       1 RES1   0.0000
    13 C12      -2.4865   -1.4946   -5.0504   C.3       1 RES1   0.0000
    14 N1       -2.4067   -1.4703   -3.5907   N.am      1 RES1   0.0000
    15 C13      -3.5507   -1.9704   -2.8182   C.3       1 RES1   0.0000
    16 C14      -3.3385   -3.4052   -2.3303   C.3       1 RES1   0.0000
    17 C15      -2.9809   -4.3419   -3.4817   C.3       1 RES1   0.0000
    18 C16      -2.6134   -5.7486   -3.0255   C.3       1 RES1   0.0000
    19 C17      -2.2098   -6.6563   -4.1964   C.3       1 RES1   0.0000
    20 C18      -0.7230   -6.6600   -4.5729   C.3       1 RES1   0.0000
    21 C19      -0.1197   -5.4401   -5.2867   C.3       1 RES1   0.0000
    22 C20      -0.4202   -5.3114   -6.7876   C.3       1 RES1   0.0000
    23 C21      -1.7753   -4.6924   -7.1318   C.3       1 RES1   0.0000
    24 C22      -1.8915   -4.2696   -8.6057   C.3       1 RES1   0.0000
    25 C23      -1.6895   -2.7711   -8.8564   C.3       1 RES1   0.0000
    26 C24      -0.2706   -2.2776   -8.5942   C.3       1 RES1   0.0000
    27 C25      -1.3127   -1.2116   -2.8872   C.2       1 RES1   0.0000
    28 O1       -1.2780   -1.3498   -1.6469   O.2       1 RES1   0.0000
    29 C26      -0.0196   -0.7091   -3.5405   C.3       1 RES1   0.0000
    30 O2        1.0066   -0.6551   -2.5492   O.3       1 RES1   0.0000
    31 C27       1.8117   -1.8452   -2.4805   C.3       1 RES1   0.0000
    32 C28       1.1369   -3.0062   -1.7487   C.3       1 RES1   0.0000
    33 O3        0.7711   -2.5790   -0.4349   O.3       1 RES1   0.0000
    34 C29      -0.0482   -3.5416    0.2157   C.3       1 RES1   0.0000
    35 C30      -0.9837   -2.8166    1.1901   C.2       1 RES1   0.0000
    36 O4       -0.7661   -1.5947    1.3973   O.2       1 RES1   0.0000
    37 N2       -1.9765   -3.4876    1.7538   N.am      1 RES1   0.0000
    38 C31      -2.2861   -4.8908    1.4782   C.3       1 RES1   0.0000
    39 C32      -2.1247   -5.8632    2.6530   C.3       1 RES1   0.0000
    40 C33      -0.6748   -6.1810    3.0164   C.3       1 RES1   0.0000
    41 C34       0.0500   -5.0898    3.8209   C.3       1 RES1   0.0000
    42 C35       0.4171   -5.5361    5.2414   C.3       1 RES1   0.0000
    43 C36      -0.7641   -5.7819    6.1849   C.3       1 RES1   0.0000
    44 C37      -1.6853   -4.5799    6.4167   C.3       1 RES1   0.0000
    45 C38      -0.9625   -3.3168    6.8838   C.3       1 RES1   0.0000
    46 C39      -1.9039   -2.1145    6.9694   C.3       1 RES1   0.0000
    47 C40      -1.1806   -0.8010    7.2911   C.3       1 RES1   0.0000
    48 C41      -0.7883    0.0445    6.0751   C.3       1 RES1   0.0000
    49 C42       0.2927   -0.5636    5.1842   C.3       1 RES1   0.0000
    50 C43      -2.7804   -2.8703    2.8190   C.3       1 RES1   0.0000
    51 C44      -4.3119   -2.9660    2.7156   C.3       1 RES1   0.0000
    52 C45      -4.9282   -1.9408    1.7663   C.3       1 RES1   0.0000
    53 C46      -6.4573   -1.8237    1.8736   C.3       1 RES1   0.0000
    54 C47      -6.9430   -0.7660    2.8854   C.3       1 RES1   0.0000
    55 C48      -7.4160    0.5525    2.2559   C.3       1 RES1   0.0000
    56 C49      -6.3253    1.4593    1.6650   C.3       1 RES1   0.0000
    57 C50      -5.8387    2.5964    2.5735   C.3       1 RES1   0.0000
    58 C51      -5.0878    2.1712    3.8447   C.3       1 RES1   0.0000
    59 C52      -5.8939    2.4529    5.1091   C.3       1 RES1   0.0000
    60 C53      -5.1717    2.0062    6.3789   C.3       1 RES1   0.0000
    61 C54      -6.0305    2.2633    7.6118   C.3       1 RES1   0.0000
    62 H1       -6.5710   -7.1505   -3.8618   H         1 RES1   0.0000
    63 H2       -7.7933   -6.1403   -3.0991   H         1 RES1   0.0000
    64 H3       -6.0967   -5.6627   -3.0355   H         1 RES1   0.0000
    65 H4       -7.8096   -5.8359   -5.5619   H         1 RES1   0.0000
    66 H5       -6.1063   -5.3910   -5.5384   H         1 RES1   0.0000
    67 H6       -6.6333   -3.4011   -4.1478   H         1 RES1   0.0000
    68 H7       -8.3325   -3.8657   -4.1113   H         1 RES1   0.0000
    69 H8       -8.5213   -3.5476   -6.5445   H         1 RES1   0.0000
    70 H9       -6.7972   -3.2283   -6.6672   H         1 RES1   0.0000
    71 H10      -7.0871   -1.2406   -5.1618   H         1 RES1   0.0000
    72 H11      -8.8015   -1.5908   -5.0552   H         1 RES1   0.0000
    73 H12      -8.3990    0.2460   -6.5727   H         1 RES1   0.0000
    74 H13      -9.1418   -1.1050   -7.3999   H         1 RES1   0.0000
    75 H14      -7.3457    0.1164   -8.6735   H         1 RES1   0.0000
    76 H15      -7.2182   -1.6336   -8.6340   H         1 RES1   0.0000
    77 H16      -5.0510   -0.5622   -8.4519   H         1 RES1   0.0000
    78 H17      -5.4058   -1.5856   -7.0722   H         1 RES1   0.0000
    79 H18      -6.2853    0.9391   -6.2214   H         1 RES1   0.0000
    80 H19      -4.8361    1.3166   -7.1322   H         1 RES1   0.0000
    81 H20      -5.0134   -0.8327   -4.9988   H         1 RES1   0.0000
    82 H21      -4.5555    0.8229   -4.6093   H         1 RES1   0.0000
    83 H22      -2.4286    0.6013   -5.5673   H         1 RES1   0.0000
    84 H23      -3.0116   -0.4750   -6.8111   H         1 RES1   0.0000
    85 H24      -1.4843   -1.6596   -5.4535   H         1 RES1   0.0000
    86 H25      -3.1076   -2.3518   -5.3117   H         1 RES1   0.0000
    87 H26      -4.4316   -1.9295   -3.4517   H         1 RES1   0.0000
    88 H27      -3.6959   -1.3100   -1.9582   H         1 RES1   0.0000
    89 H28      -4.2619   -3.7373   -1.8561   H         1 RES1   0.0000
    90 H29      -2.5512   -3.4091   -1.5727   H         1 RES1   0.0000
    91 H30      -2.1336   -3.9291   -4.0226   H         1 RES1   0.0000
    92 H31      -3.8271   -4.4034   -4.1677   H         1 RES1   0.0000
    93 H32      -3.4772   -6.1858   -2.5186   H         1 RES1   0.0000
    94 H33      -1.7951   -5.7017   -2.2993   H         1 RES1   0.0000
    95 H34      -2.8157   -6.4081   -5.0642   H         1 RES1   0.0000
    96 H35      -2.4560   -7.6808   -3.9150   H         1 RES1   0.0000
    97 H36      -0.5549   -7.5251   -5.2151   H         1 RES1   0.0000
    98 H37      -0.1471   -6.8351   -3.6587   H         1 RES1   0.0000
    99 H38       0.9663   -5.5377   -5.1915   H         1 RES1   0.0000
   100 H39      -0.3951   -4.5125   -4.7751   H         1 RES1   0.0000
   101 H40      -0.3482   -6.2963   -7.2467   H         1 RES1   0.0000
   102 H41       0.3626   -4.6922   -7.2312   H         1 RES1   0.0000
   103 H42      -1.9424   -3.8163   -6.5029   H         1 RES1   0.0000
   104 H43      -2.5646   -5.4108   -6.9093   H         1 RES1   0.0000
   105 H44      -2.8865   -4.5285   -8.9738   H         1 RES1   0.0000
   106 H45      -1.1708   -4.8276   -9.2044   H         1 RES1   0.0000
   107 H46      -2.3950   -2.2031   -8.2404   H         1 RES1   0.0000
   108 H47      -1.9350   -2.5670   -9.9005   H         1 RES1   0.0000
   109 H48       0.0025   -2.3810   -7.5446   H         1 RES1   0.0000
   110 H49      -0.1796   -1.2292   -8.8697   H         1 RES1   0.0000
   111 H50       0.4385   -2.8465   -9.1882   H         1 RES1   0.0000
   112 H51      -0.1540    0.3154   -3.9087   H         1 RES1   0.0000
   113 H52       0.2971   -1.3280   -4.3836   H         1 RES1   0.0000
   114 H53       2.7115   -1.5532   -1.9324   H         1 RES1   0.0000
   115 H54       2.0862   -2.1744   -3.4894   H         1 RES1   0.0000
   116 H55       1.8324   -3.8544   -1.6844   H         1 RES1   0.0000
   117 H56       0.2445   -3.3478   -2.2977   H         1 RES1   0.0000
   118 H57       0.5713   -4.2656    0.7673   H         1 RES1   0.0000
   119 H58      -0.6329   -4.0862   -0.5345   H         1 RES1   0.0000
   120 H59      -1.6664   -5.2565    0.6624   H         1 RES1   0.0000
   121 H60      -3.3270   -4.9136    1.1446   H         1 RES1   0.0000
   122 H61      -2.6021   -6.7874    2.3262   H         1 RES1   0.0000
   123 H62      -2.6628   -5.5114    3.5311   H         1 RES1   0.0000
   124 H63      -0.1257   -6.4040    2.0989   H         1 RES1   0.0000
   125 H64      -0.6732   -7.0994    3.6021   H         1 RES1   0.0000
   126 H65      -0.5547   -4.1856    3.8769   H         1 RES1   0.0000
   127 H66       0.9786   -4.8148    3.3128   H         1 RES1   0.0000
   128 H67       1.0697   -4.7807    5.6830   H         1 RES1   0.0000
   129 H68       0.9981   -6.4577    5.1758   H         1 RES1   0.0000
   130 H69      -0.3549   -6.0943    7.1472   H         1 RES1   0.0000
   131 H70      -1.3731   -6.6083    5.8112   H         1 RES1   0.0000
   132 H71      -2.4276   -4.8573    7.1679   H         1 RES1   0.0000
   133 H72      -2.2390   -4.3569    5.4994   H         1 RES1   0.0000
   134 H73      -0.1491   -3.0838    6.1978   H         1 RES1   0.0000
   135 H74      -0.5237   -3.5012    7.8656   H         1 RES1   0.0000
   136 H75      -2.6481   -2.3174    7.7419   H         1 RES1   0.0000
   137 H76      -2.4454   -2.0051    6.0254   H         1 RES1   0.0000
   138 H77      -0.2913   -1.0183    7.8823   H         1 RES1   0.0000
   139 H78      -1.8352   -0.1855    7.9110   H         1 RES1   0.0000
   140 H79      -0.4262    1.0017    6.4567   H         1 RES1   0.0000
   141 H80      -1.6836    0.2440    5.4770   H         1 RES1   0.0000
   142 H81       1.1527   -0.8486    5.7833   H         1 RES1   0.0000
   143 H82       0.6242    0.1544    4.4309   H         1 RES1   0.0000
   144 H83      -0.0704   -1.4453    4.6618   H         1 RES1   0.0000
   145 H84      -2.4828   -1.8227    2.8832   H         1 RES1   0.0000
   146 H85      -2.4863   -3.3548    3.7537   H         1 RES1   0.0000
   147 H86      -4.7002   -2.7812    3.7196   H         1 RES1   0.0000
   148 H87      -4.6257   -3.9706    2.4400   H         1 RES1   0.0000
   149 H88      -4.6496   -2.1908    0.7399   H         1 RES1   0.0000
   150 H89      -4.5011   -0.9719    2.0143   H         1 RES1   0.0000
   151 H90      -6.8621   -2.7972    2.1500   H         1 RES1   0.0000
   152 H91      -6.8674   -1.5781    0.8929   H         1 RES1   0.0000
   153 H92      -6.1713   -0.5701    3.6294   H         1 RES1   0.0000
   154 H93      -7.7980   -1.1673    3.4269   H         1 RES1   0.0000
   155 H94      -7.9678    1.1178    3.0071   H         1 RES1   0.0000
   156 H95      -8.1210    0.3093    1.4606   H         1 RES1   0.0000
   157 H96      -6.7223    1.9312    0.7599   H         1 RES1   0.0000
   158 H97      -5.4810    0.8417    1.3569   H         1 RES1   0.0000
   159 H98      -6.7064    3.1941    2.8531   H         1 RES1   0.0000
   160 H99      -5.1974    3.2497    1.9751   H         1 RES1   0.0000
   161 H100     -4.1359    2.7073    3.9179   H         1 RES1   0.0000
   162 H101     -4.8513    1.1062    3.8010   H         1 RES1   0.0000
   163 H102     -6.8537    1.9402    5.0437   H         1 RES1   0.0000
   164 H103     -6.0937    3.5248    5.1771   H         1 RES1   0.0000
   165 H104     -4.2249    2.5489    6.4708   H         1 RES1   0.0000
   166 H105     -4.9376    0.9389    6.3163   H         1 RES1   0.0000
   167 H106     -6.2538    3.3243    7.7004   H         1 RES1   0.0000
   168 H107     -5.5154    1.9399    8.5124   H         1 RES1   0.0000
   169 H108     -6.9702    1.7204    7.5352   H         1 RES1   0.0000
   170 C55      -2.9727    9.6707   -1.3302   C.3       1 RES1   0.0000
   171 C56      -3.6042    9.2995   -2.6656   C.3       1 RES1   0.0000
   172 C57      -2.5580    8.8615   -3.6882   C.3       1 RES1   0.0000
   173 C58      -3.1777    8.4758   -5.0307   C.3       1 RES1   0.0000
   174 C59      -2.1241    7.9335   -5.9942   C.3       1 RES1   0.0000
   175 C60      -2.6798    7.4594   -7.3391   C.3       1 RES1   0.0000
   176 C61      -3.7541    6.3671   -7.2720   C.3       1 RES1   0.0000
   177 C62      -3.4790    5.2566   -6.2599   C.3       1 RES1   0.0000
   178 C63      -2.2588    4.3959   -6.5975   C.3       1 RES1   0.0000
   179 C64      -1.5724    3.8206   -5.3560   C.3       1 RES1   0.0000
   180 C65      -2.5418    3.0519   -4.4469   C.3       1 RES1   0.0000
   181 C66      -2.9924    3.8226   -3.2012   C.3       1 RES1   0.0000
   182 N3       -1.9192    3.8293   -2.2136   N.am      1 RES1   0.0000
   183 C67      -1.2783    5.0957   -1.8994   C.3       1 RES1   0.0000
   184 C68      -1.9243    5.7032   -0.6439   C.3       1 RES1   0.0000
   185 C69      -3.4378    5.8728   -0.8000   C.3       1 RES1   0.0000
   186 C70      -4.1436    6.4641    0.4211   C.3       1 RES1   0.0000
   187 C71      -5.5535    6.9782    0.0699   C.3       1 RES1   0.0000
   188 C72      -6.7075    6.1735    0.6653   C.3       1 RES1   0.0000
   189 C73      -6.9858    4.8062    0.0286   C.3       1 RES1   0.0000
   190 C74      -7.8461    4.8071   -1.2449   C.3       1 RES1   0.0000
   191 C75      -7.0864    5.0409   -2.5540   C.3       1 RES1   0.0000
   192 C76      -7.8867    4.6012   -3.7900   C.3       1 RES1   0.0000
   193 C77      -7.4978    3.2281   -4.3474   C.3       1 RES1   0.0000
   194 C78      -7.8266    2.0617   -3.4206   C.3       1 RES1   0.0000
   195 C79      -1.5758    2.7047   -1.6007   C.2       1 RES1   0.0000
   196 O5       -0.4907    2.4526   -1.0430   O.2       1 RES1   0.0000
   197 C80      -2.6902    1.6506   -1.4976   C.3       1 RES1   0.0000
   198 O6       -2.1975    0.6187   -0.6649   O.3       1 RES1   0.0000
   199 C81      -2.9865    0.2902    0.4670   C.3       1 RES1   0.0000
   200 C82      -2.5972    1.1593    1.6732   C.3       1 RES1   0.0000
   201 O7       -1.1809    1.2955    1.6481   O.3       1 RES1   0.0000
   202 C83      -0.7266    2.4881    2.2656   C.3       1 RES1   0.0000
   203 C84       0.7440    2.6484    1.8826   C.2       1 RES1   0.0000
   204 O8        1.2772    1.6991    1.2589   O.2       1 RES1   0.0000
   205 N4        1.3861    3.7407    2.2475   N.am      1 RES1   0.0000
   206 C85       0.7516    4.9360    2.8071   C.3       1 RES1   0.0000
   207 C86       1.2892    5.4263    4.1565   C.3       1 RES1   0.0000
   208 C87       0.8864    4.5707    5.3544   C.3       1 RES1   0.0000
   209 C88       1.4648    3.1508    5.3094   C.3       1 RES1   0.0000
   210 C89       2.1034    2.7032    6.6270   C.3       1 RES1   0.0000
   211 C90       3.4488    3.3742    6.9260   C.3       1 RES1   0.0000
   212 C91       4.5037    3.2418    5.8224   C.3       1 RES1   0.0000
   213 C92       4.7895    1.8043    5.3886   C.3       1 RES1   0.0000
   214 C93       5.7537    1.7616    4.2023   C.3       1 RES1   0.0000
   215 C94       6.1684    0.3474    3.7741   C.3       1 RES1   0.0000
   216 C95       5.3110   -0.3082    2.6845   C.3       1 RES1   0.0000
   217 C96       3.8954   -0.6851    3.1230   C.3       1 RES1   0.0000
   218 C97       2.8058    3.8708    1.9198   C.3       1 RES1   0.0000
   219 C98       3.0642    4.8420    0.7701   C.3       1 RES1   0.0000
   220 C99       2.1668    4.5415   -0.4268   C.3       1 RES1   0.0000
   221 C100      2.5671    5.3305   -1.6726   C.3       1 RES1   0.0000
   222 C101      3.8923    4.8701   -2.2972   C.3       1 RES1   0.0000
   223 C102      3.7161    4.1016   -3.6103   C.3       1 RES1   0.0000
   224 C103      3.1119    2.6946   -3.4948   C.3       1 RES1   0.0000
   225 C104      4.1063    1.5434   -3.2939   C.3       1 RES1   0.0000
   226 C105      4.7845    1.4557   -1.9171   C.3       1 RES1   0.0000
   227 C106      6.1946    2.0555   -1.8996   C.3       1 RES1   0.0000
   228 C107      6.7974    2.0916   -0.4933   C.3       1 RES1   0.0000
   229 C108      8.2287    2.6165   -0.4906   C.3       1 RES1   0.0000
   230 H109     -3.7393    9.9211   -0.6026   H         1 RES1   0.0000
   231 H110     -2.3202   10.5315   -1.4443   H         1 RES1   0.0000
   232 H111     -2.3796    8.8441   -0.9417   H         1 RES1   0.0000
   233 H112     -4.1517   10.1572   -3.0560   H         1 RES1   0.0000
   234 H113     -4.3297    8.4936   -2.5188   H         1 RES1   0.0000
   235 H114     -1.9994    8.0066   -3.2873   H         1 RES1   0.0000
   236 H115     -1.8401    9.6693   -3.8389   H         1 RES1   0.0000
   237 H116     -3.6549    9.3497   -5.4734   H         1 RES1   0.0000
   238 H117     -3.9602    7.7328   -4.8597   H         1 RES1   0.0000
   239 H118     -1.5766    7.1176   -5.5128   H         1 RES1   0.0000
   240 H119     -1.3976    8.7263   -6.1862   H         1 RES1   0.0000
   241 H120     -1.8386    7.1092   -7.9398   H         1 RES1   0.0000
   242 H121     -3.1062    8.3170   -7.8604   H         1 RES1   0.0000
   243 H122     -3.8605    5.9308   -8.2659   H         1 RES1   0.0000
   244 H123     -4.7111    6.8217   -7.0161   H         1 RES1   0.0000
   245 H124     -4.3699    4.6272   -6.1939   H         1 RES1   0.0000
   246 H125     -3.3286    5.7202   -5.2864   H         1 RES1   0.0000
   247 H126     -1.5273    4.9954   -7.1370   H         1 RES1   0.0000
   248 H127     -2.5537    3.5768   -7.2564   H         1 RES1   0.0000
   249 H128     -1.0906    4.6250   -4.7997   H         1 RES1   0.0000
   250 H129     -0.7756    3.1497   -5.6865   H         1 RES1   0.0000
   251 H130     -2.0615    2.1298   -4.1102   H         1 RES1   0.0000
   252 H131     -3.4278    2.7867   -5.0206   H         1 RES1   0.0000
   253 H132     -3.9061    3.3795   -2.7963   H         1 RES1   0.0000
   254 H133     -3.2201    4.8536   -3.4592   H         1 RES1   0.0000
   255 H134     -1.4114    5.7682   -2.7479   H         1 RES1   0.0000
   256 H135     -0.2154    4.9214   -1.7423   H         1 RES1   0.0000
   257 H136     -1.4743    6.6803   -0.4647   H         1 RES1   0.0000
   258 H137     -1.6860    5.0724    0.2157   H         1 RES1   0.0000
   259 H138     -3.9016    4.9106   -1.0216   H         1 RES1   0.0000
   260 H139     -3.6066    6.5357   -1.6489   H         1 RES1   0.0000
   261 H140     -3.5414    7.2865    0.8076   H         1 RES1   0.0000
   262 H141     -4.2090    5.7150    1.2148   H         1 RES1   0.0000
   263 H142     -5.6726    7.0150   -1.0102   H         1 RES1   0.0000
   264 H143     -5.6489    8.0012    0.4318   H         1 RES1   0.0000
   265 H144     -7.6158    6.7712    0.5891   H         1 RES1   0.0000
   266 H145     -6.5126    6.0268    1.7297   H         1 RES1   0.0000
   267 H146     -7.5336    4.2212    0.7714   H         1 RES1   0.0000
   268 H147     -6.0454    4.2811   -0.1704   H         1 RES1   0.0000
   269 H148     -8.6268    5.5608   -1.1446   H         1 RES1   0.0000
   270 H149     -8.3437    3.8357   -1.3034   H         1 RES1   0.0000
   271 H150     -6.1370    4.4977   -2.5311   H         1 RES1   0.0000
   272 H151     -6.8503    6.1026   -2.6429   H         1 RES1   0.0000
   273 H152     -7.7399    5.3300   -4.5880   H         1 RES1   0.0000
   274 H153     -8.9498    4.5975   -3.5508   H         1 RES1   0.0000
   275 H154     -6.4268    3.2202   -4.5783   H         1 RES1   0.0000
   276 H155     -8.0317    3.0820   -5.2886   H         1 RES1   0.0000
   277 H156     -7.2636    2.1222   -2.4905   H         1 RES1   0.0000
   278 H157     -7.5943    1.1120   -3.9015   H         1 RES1   0.0000
   279 H158     -8.8856    2.0651   -3.1788   H         1 RES1   0.0000
   280 H159     -2.9641    1.2080   -2.4616   H         1 RES1   0.0000
   281 H160     -3.5702    2.1286   -1.0525   H         1 RES1   0.0000
   282 H161     -2.7459   -0.7580    0.6690   H         1 RES1   0.0000
   283 H162     -4.0483    0.4005    0.2301   H         1 RES1   0.0000
   284 H163     -2.9120    0.6901    2.6149   H         1 RES1   0.0000
   285 H164     -3.0663    2.1468    1.5976   H         1 RES1   0.0000
   286 H165     -0.8082    2.4177    3.3601   H         1 RES1   0.0000
   287 H166     -1.3216    3.3422    1.9113   H         1 RES1   0.0000
   288 H167     -0.3186    4.7752    2.9200   H         1 RES1   0.0000
   289 H168      0.8996    5.7368    2.0763   H         1 RES1   0.0000
   290 H169      0.8702    6.4229    4.2959   H         1 RES1   0.0000
   291 H170      2.3726    5.5336    4.1232   H         1 RES1   0.0000
   292 H171     -0.2031    4.5367    5.4217   H         1 RES1   0.0000
   293 H172      1.2376    5.0751    6.2541   H         1 RES1   0.0000
   294 H173      2.2222    3.0931    4.5309   H         1 RES1   0.0000
   295 H174      0.6765    2.4420    5.0451   H         1 RES1   0.0000
   296 H175      2.2471    1.6215    6.5943   H         1 RES1   0.0000
   297 H176      1.4179    2.9132    7.4506   H         1 RES1   0.0000
   298 H177      3.8430    2.9405    7.8465   H         1 RES1   0.0000
   299 H178      3.2930    4.4384    7.1166   H         1 RES1   0.0000
   300 H179      5.4321    3.6847    6.1860   H         1 RES1   0.0000
   301 H180      4.1987    3.8303    4.9535   H         1 RES1   0.0000
   302 H181      3.8595    1.3024    5.1249   H         1 RES1   0.0000
   303 H182      5.2297    1.2661    6.2288   H         1 RES1   0.0000
   304 H183      6.6513    2.3127    4.4871   H         1 RES1   0.0000
   305 H184      5.3155    2.2886    3.3502   H         1 RES1   0.0000
   306 H185      6.1901   -0.2995    4.6513   H         1 RES1   0.0000
   307 H186      7.1884    0.3948    3.3871   H         1 RES1   0.0000
   308 H187      5.8280   -1.2205    2.3770   H         1 RES1   0.0000
   309 H188      5.2764    0.3600    1.8180   H         1 RES1   0.0000
   310 H189      3.9265   -1.1669    4.0951   H         1 RES1   0.0000
   311 H190      3.4507   -1.4109    2.4345   H         1 RES1   0.0000
   312 H191      3.2472    0.1867    3.2015   H         1 RES1   0.0000
   313 H192      3.1642    2.8767    1.6485   H         1 RES1   0.0000
   314 H193      3.3388    4.2016    2.8129   H         1 RES1   0.0000
   315 H194      4.1131    4.7459    0.4925   H         1 RES1   0.0000
   316 H195      2.9188    5.8712    1.1007   H         1 RES1   0.0000
   317 H196      1.1403    4.7960   -0.1538   H         1 RES1   0.0000
   318 H197      2.1813    3.4672   -0.6373   H         1 RES1   0.0000
   319 H198      2.6271    6.3843   -1.4005   H         1 RES1   0.0000
   320 H199      1.7791    5.2407   -2.4225   H         1 RES1   0.0000
   321 H200      4.4464    4.2596   -1.5886   H         1 RES1   0.0000
   322 H201      4.5038    5.7468   -2.5117   H         1 RES1   0.0000
   323 H202      4.6829    4.0269   -4.1089   H         1 RES1   0.0000
   324 H203      3.0748    4.6976   -4.2635   H         1 RES1   0.0000
   325 H204      2.5973    2.4852   -4.4362   H         1 RES1   0.0000
   326 H205      2.3528    2.6644   -2.7066   H         1 RES1   0.0000
   327 H206      4.8767    1.6026   -4.0618   H         1 RES1   0.0000
   328 H207      3.5523    0.6166   -3.4687   H         1 RES1   0.0000
   329 H208      4.8818    0.4000   -1.6310   H         1 RES1   0.0000
   330 H209      4.1630    1.9573   -1.1676   H         1 RES1   0.0000
   331 H210      6.1754    3.0645   -2.3105   H         1 RES1   0.0000
   332 H211      6.8381    1.4550   -2.5452   H         1 RES1   0.0000
   333 H212      6.7923    1.0825   -0.0721   H         1 RES1   0.0000
   334 H213      6.1834    2.7272    0.1526   H         1 RES1   0.0000
   335 H214      8.8637    2.0006   -1.1218   H         1 RES1   0.0000
   336 H215      8.6316    2.5995    0.5194   H         1 RES1   0.0000
   337 H216      8.2680    3.6379   -0.8605   H         1 RES1   0.0000
   338 O9        2.6075   -0.3819    0.1399   O.3       1 RES1   0.0000
   339 H217      2.9743   -0.5556    1.0275   H         1 RES1   0.0000
   340 H218      3.2688    0.1962   -0.2804   H         1 RES1   0.0000
@<TRIPOS>BOND
     1     1    28    1
     2     1    30    1
     3     1    33    1
     4     1    36    1
     5     1   196    1
     6     1   198    1
     7     1   201    1
     8     1   204    1
     9     1   338    1
    10     2     3    1
    11     2    62    1
    12     2    63    1
    13     2    64    1
    14     3     4    1
    15     3    65    1
    16     3    66    1
    17     4     5    1
    18     4    67    1
    19     4    68    1
    20     5     6    1
    21     5    69    1
    22     5    70    1
    23     6     7    1
    24     6    71    1
    25     6    72    1
    26     7     8    1
    27     7    73    1
    28     7    74    1
    29     8     9    1
    30     8    75    1
    31     8    76    1
    32     9    10    1
    33     9    77    1
    34     9    78    1
    35    10    11    1
    36    10    79    1
    37    10    80    1
    38    11    12    1
    39    11    81    1
    40    11    82    1
    41    12    13    1
    42    12    83    1
    43    12    84    1
    44    13    14    1
    45    13    85    1
    46    13    86    1
    47    14    15    1
    48    14    27    1
    49    15    16    1
    50    15    87    1
    51    15    88    1
    52    16    17    1
    53    16    89    1
    54    16    90    1
    55    17    18    1
    56    17    91    1
    57    17    92    1
    58    18    19    1
    59    18    93    1
    60    18    94    1
    61    19    20    1
    62    19    95    1
    63    19    96    1
    64    20    21    1
    65    20    97    1
    66    20    98    1
    67    21    22    1
    68    21    99    1
    69    21   100    1
    70    22    23    1
    71    22   101    1
    72    22   102    1
    73    23    24    1
    74    23   103    1
    75    23   104    1
    76    24    25    1
    77    24   105    1
    78    24   106    1
    79    25    26    1
    80    25   107    1
    81    25   108    1
    82    26   109    1
    83    26   110    1
    84    26   111    1
    85    27    28    2
    86    27    29    1
    87    29    30    1
    88    29   112    1
    89    29   113    1
    90    30    31    1
    91    31    32    1
    92    31   114    1
    93    31   115    1
    94    32    33    1
    95    32   116    1
    96    32   117    1
    97    33    34    1
    98    34    35    1
    99    34   118    1
   100    34   119    1
   101    35    36    2
   102    35    37    1
   103    37    38    1
   104    37    50    1
   105    38    39    1
   106    38   120    1
   107    38   121    1
   108    39    40    1
   109    39   122    1
   110    39   123    1
   111    40    41    1
   112    40   124    1
   113    40   125    1
   114    41    42    1
   115    41   126    1
   116    41   127    1
   117    42    43    1
   118    42   128    1
   119    42   129    1
   120    43    44    1
   121    43   130    1
   122    43   131    1
   123    44    45    1
   124    44   132    1
   125    44   133    1
   126    45    46    1
   127    45   134    1
   128    45   135    1
   129    46    47    1
   130    46   136    1
   131    46   137    1
   132    47    48    1
   133    47   138    1
   134    47   139    1
   135    48    49    1
   136    48   140    1
   137    48   141    1
   138    49   142    1
   139    49   143    1
   140    49   144    1
   141    50    51    1
   142    50   145    1
   143    50   146    1
   144    51    52    1
   145    51   147    1
   146    51   148    1
   147    52    53    1
   148    52   149    1
   149    52   150    1
   150    53    54    1
   151    53   151    1
   152    53   152    1
   153    54    55    1
   154    54   153    1
   155    54   154    1
   156    55    56    1
   157    55   155    1
   158    55   156    1
   159    56    57    1
   160    56   157    1
   161    56   158    1
   162    57    58    1
   163    57   159    1
   164    57   160    1
   165    58    59    1
   166    58   161    1
   167    58   162    1
   168    59    60    1
   169    59   163    1
   170    59   164    1
   171    60    61    1
   172    60   165    1
   173    60   166    1
   174    61   167    1
   175    61   168    1
   176    61   169    1
   177   170   171    1
   178   170   230    1
   179   170   231    1
   180   170   232    1
   181   171   172    1
   182   171   233    1
   183   171   234    1
   184   172   173    1
   185   172   235    1
   186   172   236    1
   187   173   174    1
   188   173   237    1
   189   173   238    1
   190   174   175    1
   191   174   239    1
   192   174   240    1
   193   175   176    1
   194   175   241    1
   195   175   242    1
   196   176   177    1
   197   176   243    1
   198   176   244    1
   199   177   178    1
   200   177   245    1
   201   177   246    1
   202   178   179    1
   203   178   247    1
   204   178   248    1
   205   179   180    1
   206   179   249    1
   207   179   250    1
   208   180   181    1
   209   180   251    1
   210   180   252    1
   211   181   182    1
   212   181   253    1
   213   181   254    1
   214   182   183    1
   215   182   195    1
   216   183   184    1
   217   183   255    1
   218   183   256    1
   219   184   185    1
   220   184   257    1
   221   184   258    1
   222   185   186    1
   223   185   259    1
   224   185   260    1
   225   186   187    1
   226   186   261    1
   227   186   262    1
   228   187   188    1
   229   187   263    1
   230   187   264    1
   231   188   189    1
   232   188   265    1
   233   188   266    1
   234   189   190    1
   235   189   267    1
   236   189   268    1
   237   190   191    1
   238   190   269    1
   239   190   270    1
   240   191   192    1
   241   191   271    1
   242   191   272    1
   243   192   193    1
   244   192   273    1
   245   192   274    1
   246   193   194    1
   247   193   275    1
   248   193   276    1
   249   194   277    1
   250   194   278    1
   251   194   279    1
   252   195   196    2
   253   195   197    1
   254   197   198    1
   255   197   280    1
   256   197   281    1
   257   198   199    1
   258   199   200    1
   259   199   282    1
   260   199   283    1
   261   200   201    1
   262   200   284    1
   263   200   285    1
   264   201   202    1
   265   202   203    1
   266   202   286    1
   267   202   287    1
   268   203   204    2
   269   203   205    1
   270   205   206    1
   271   205   218    1
   272   206   207    1
   273   206   288    1
   274   206   289    1
   275   207   208    1
   276   207   290    1
   277   207   291    1
   278   208   209    1
   279   208   292    1
   280   208   293    1
   281   209   210    1
   282   209   294    1
   283   209   295    1
   284   210   211    1
   285   210   296    1
   286   210   297    1
   287   211   212    1
   288   211   298    1
   289   211   299    1
   290   212   213    1
   291   212   300    1
   292   212   301    1
   293   213   214    1
   294   213   302    1
   295   213   303    1
   296   214   215    1
   297   214   304    1
   298   214   305    1
   299   215   216    1
   300   215   306    1
   301   215   307    1
   302   216   217    1
   303   216   308    1
   304   216   309    1
   305   217   310    1
   306   217   311    1
   307   217   312    1
   308   218   219    1
   309   218   313    1
   310   218   314    1
   311   219   220    1
   312   219   315    1
   313   219   316    1
   314   220   221    1
   315   220   317    1
   316   220   318    1
   317   221   222    1
   318   221   319    1
   319   221   320    1
   320   222   223    1
   321   222   321    1
   322   222   322    1
   323   223   224    1
   324   223   323    1
   325   223   324    1
   326   224   225    1
   327   224   325    1
   328   224   326    1
   329   225   226    1
   330   225   327    1
   331   225   328    1
   332   226   227    1
   333   226   329    1
   334   226   330    1
   335   227   228    1
   336   227   331    1
   337   227   332    1
   338   228   229    1
   339   228   333    1
   340   228   334    1
   341   229   335    1
   342   229   336    1
   343   229   337    1
   344   338   339    1
   345   338   340    1
@<TRIPOS>SUBSTRUCTURE
     1 RES1      340 GROUP             0 ****  ****    0  
