@<TRIPOS>MOLECULE
cn9_YICLED_0_nunpairedes_0_charge_3 Charge: 3 Unpaired_Electrons: 5 XTB_Unpaired_Electrons: 0 XTB_Charge: 3
   439   444     1     0     0
SMALL
NoCharges
****
Generated from Architector

@<TRIPOS>ATOM
     1 Sm1       0.2514   -0.5407   -0.1929   Sm        1 RES1   0.0000
     2 C1       -0.1168    8.1530    0.3318   C.3       1 RES1   0.0000
     3 C2        1.1364    8.3102   -0.5241   C.3       1 RES1   0.0000
     4 C3        0.9707    7.6413   -1.8947   C.3       1 RES1   0.0000
     5 C4        2.3138    7.3972   -2.5842   C.3       1 RES1   0.0000
     6 C5        2.2516    6.5877   -3.8918   C.3       1 RES1   0.0000
     7 C6        3.5078    5.7178   -4.0895   C.3       1 RES1   0.0000
     8 C7        3.2839    4.3426   -4.7354   C.3       1 RES1   0.0000
     9 C8        4.4128    3.3701   -4.3607   C.3       1 RES1   0.0000
    10 C9        4.2417    1.9220   -4.8478   C.3       1 RES1   0.0000
    11 C10       3.3907    0.9744   -3.9842   C.3       1 RES1   0.0000
    12 N1        4.0278    0.2331   -2.8760   N.am      1 RES1   0.0000
    13 C11       5.4528   -0.0536   -2.9560   C.3       1 RES1   0.0000
    14 C12       5.9196   -0.8614   -4.1703   C.3       1 RES1   0.0000
    15 C13       5.2467   -2.2217   -4.3464   C.3       1 RES1   0.0000
    16 C14       3.9816   -2.2310   -5.2146   C.3       1 RES1   0.0000
    17 C15       4.1632   -1.6140   -6.6045   C.3       1 RES1   0.0000
    18 C16       2.8627   -1.2451   -7.3206   C.3       1 RES1   0.0000
    19 C17       3.1631   -0.3899   -8.5545   C.3       1 RES1   0.0000
    20 C18       1.9497   -0.0809   -9.4343   C.3       1 RES1   0.0000
    21 C19       0.8758    0.8130   -8.8066   C.3       1 RES1   0.0000
    22 C20       1.3252    2.2371   -8.4901   C.3       1 RES1   0.0000
    23 C21       3.2363   -0.1541   -1.8746   C.2       1 RES1   0.0000
    24 O1        2.0229    0.1438   -1.8232   O.2       1 RES1   0.0000
    25 C22       3.7886   -1.0046   -0.7066   C.3       1 RES1   0.0000
    26 C23       4.6762   -0.1845    0.2287   C.3       1 RES1   0.0000
    27 O2        2.6330   -1.4405    0.0217   O.3       1 RES1   0.0000
    28 C24       2.8762   -2.4907    0.9708   C.3       1 RES1   0.0000
    29 C25       2.9256   -1.9831    2.4249   C.3       1 RES1   0.0000
    30 C26       1.5482   -1.7912    3.0460   C.3       1 RES1   0.0000
    31 C27       1.6858   -3.4398    0.7813   C.2       1 RES1   0.0000
    32 O3        0.5784   -2.9255    0.5314   O.2       1 RES1   0.0000
    33 N2        1.8781   -4.7497    0.8627   N.am      1 RES1   0.0000
    34 C28       0.8187   -5.6333    0.3886   C.3       1 RES1   0.0000
    35 C29      -0.2333   -6.0237    1.4291   C.3       1 RES1   0.0000
    36 C30       0.2456   -7.0474    2.4691   C.3       1 RES1   0.0000
    37 C31       0.6615   -6.4371    3.8089   C.3       1 RES1   0.0000
    38 C32       1.4617   -7.4146    4.6685   C.3       1 RES1   0.0000
    39 C33       1.6115   -6.8910    6.0981   C.3       1 RES1   0.0000
    40 C34       2.8133   -7.4904    6.8203   C.3       1 RES1   0.0000
    41 C35       2.9010   -6.9807    8.2586   C.3       1 RES1   0.0000
    42 C36       4.2766   -7.1887    8.8932   C.3       1 RES1   0.0000
    43 C37       5.3094   -6.1850    8.3928   C.3       1 RES1   0.0000
    44 C38       3.1007   -5.3708    1.3643   C.3       1 RES1   0.0000
    45 C39       4.0692   -5.7688    0.2432   C.3       1 RES1   0.0000
    46 C40       4.9244   -6.9949    0.5861   C.3       1 RES1   0.0000
    47 C41       5.9188   -6.8374    1.7456   C.3       1 RES1   0.0000
    48 C42       5.3390   -7.1184    3.1355   C.3       1 RES1   0.0000
    49 C43       6.4283   -7.3169    4.1947   C.3       1 RES1   0.0000
    50 C44       7.2102   -6.0418    4.5116   C.3       1 RES1   0.0000
    51 C45       8.3277   -6.2705    5.5404   C.3       1 RES1   0.0000
    52 C46       9.7203   -6.4591    4.9309   C.3       1 RES1   0.0000
    53 C47       9.8805   -7.7148    4.0803   C.3       1 RES1   0.0000
    54 H1        0.0198    8.6272    1.2982   H         1 RES1   0.0000
    55 H2       -0.3508    7.0966    0.4853   H         1 RES1   0.0000
    56 H3       -0.9763    8.6245   -0.1365   H         1 RES1   0.0000
    57 H4        1.3703    9.3696   -0.6399   H         1 RES1   0.0000
    58 H5        1.9847    7.8694    0.0054   H         1 RES1   0.0000
    59 H6        0.4614    6.6831   -1.7493   H         1 RES1   0.0000
    60 H7        0.3292    8.2590   -2.5206   H         1 RES1   0.0000
    61 H8        2.9430    6.8644   -1.8714   H         1 RES1   0.0000
    62 H9        2.8078    8.3480   -2.7698   H         1 RES1   0.0000
    63 H10       2.1426    7.2715   -4.7328   H         1 RES1   0.0000
    64 H11       1.3605    5.9529   -3.8995   H         1 RES1   0.0000
    65 H12       3.9545    5.5462   -3.1096   H         1 RES1   0.0000
    66 H13       4.2355    6.2783   -4.6721   H         1 RES1   0.0000
    67 H14       3.2253    4.4372   -5.8198   H         1 RES1   0.0000
    68 H15       2.3308    3.9502   -4.3917   H         1 RES1   0.0000
    69 H16       4.5550    3.3806   -3.2815   H         1 RES1   0.0000
    70 H17       5.3319    3.7569   -4.8046   H         1 RES1   0.0000
    71 H18       5.2384    1.5136   -4.9800   H         1 RES1   0.0000
    72 H19       3.7864    1.9482   -5.8426   H         1 RES1   0.0000
    73 H20       2.9341    0.2354   -4.6461   H         1 RES1   0.0000
    74 H21       2.5780    1.5253   -3.5186   H         1 RES1   0.0000
    75 H22       5.7503   -0.6088   -2.0715   H         1 RES1   0.0000
    76 H23       5.9858    0.9056   -2.9508   H         1 RES1   0.0000
    77 H24       6.9914   -1.0073   -4.0276   H         1 RES1   0.0000
    78 H25       5.8081   -0.2920   -5.0869   H         1 RES1   0.0000
    79 H26       4.9953   -2.6321   -3.3646   H         1 RES1   0.0000
    80 H27       5.9679   -2.8945   -4.8076   H         1 RES1   0.0000
    81 H28       3.1617   -1.7388   -4.6896   H         1 RES1   0.0000
    82 H29       3.6875   -3.2737   -5.3263   H         1 RES1   0.0000
    83 H30       4.7297   -2.3050   -7.2275   H         1 RES1   0.0000
    84 H31       4.7495   -0.7001   -6.5361   H         1 RES1   0.0000
    85 H32       2.2103   -0.6896   -6.6431   H         1 RES1   0.0000
    86 H33       2.3325   -2.1494   -7.6161   H         1 RES1   0.0000
    87 H34       3.8860   -0.9304   -9.1675   H         1 RES1   0.0000
    88 H35       3.6362    0.5453   -8.2443   H         1 RES1   0.0000
    89 H36       1.4739   -1.0226   -9.7202   H         1 RES1   0.0000
    90 H37       2.3101    0.3992  -10.3471   H         1 RES1   0.0000
    91 H38       0.4918    0.3433   -7.8963   H         1 RES1   0.0000
    92 H39       0.0490    0.8761   -9.5178   H         1 RES1   0.0000
    93 H40       2.1024    2.2613   -7.7287   H         1 RES1   0.0000
    94 H41       0.4790    2.8176   -8.1259   H         1 RES1   0.0000
    95 H42       1.7050    2.7281   -9.3820   H         1 RES1   0.0000
    96 H43       4.3247   -1.8830   -1.1042   H         1 RES1   0.0000
    97 H44       4.0129    0.4462    0.8161   H         1 RES1   0.0000
    98 H45       5.3775    0.4509   -0.2970   H         1 RES1   0.0000
    99 H46       5.2405   -0.8376    0.8885   H         1 RES1   0.0000
   100 H47       3.8236   -2.9708    0.7121   H         1 RES1   0.0000
   101 H48       3.4930   -2.6979    3.0222   H         1 RES1   0.0000
   102 H49       3.4568   -1.0337    2.4518   H         1 RES1   0.0000
   103 H50       1.0022   -2.7296    3.1030   H         1 RES1   0.0000
   104 H51       0.9573   -1.0645    2.4711   H         1 RES1   0.0000
   105 H52       1.6674   -1.4196    4.0584   H         1 RES1   0.0000
   106 H53       1.2953   -6.5291   -0.0117   H         1 RES1   0.0000
   107 H54       0.3185   -5.1050   -0.4262   H         1 RES1   0.0000
   108 H55      -1.0700   -6.4509    0.8723   H         1 RES1   0.0000
   109 H56      -0.5885   -5.1090    1.9059   H         1 RES1   0.0000
   110 H57       1.0730   -7.6244    2.0488   H         1 RES1   0.0000
   111 H58      -0.5603   -7.7563    2.6616   H         1 RES1   0.0000
   112 H59      -0.2347   -6.1616    4.3679   H         1 RES1   0.0000
   113 H60       1.2513   -5.5268    3.6544   H         1 RES1   0.0000
   114 H61       2.4529   -7.5616    4.2330   H         1 RES1   0.0000
   115 H62       0.9602   -8.3841    4.6835   H         1 RES1   0.0000
   116 H63       0.7029   -7.1053    6.6638   H         1 RES1   0.0000
   117 H64       1.7334   -5.8037    6.0734   H         1 RES1   0.0000
   118 H65       3.7198   -7.2213    6.2747   H         1 RES1   0.0000
   119 H66       2.7411   -8.5786    6.8195   H         1 RES1   0.0000
   120 H67       2.1453   -7.4893    8.8592   H         1 RES1   0.0000
   121 H68       2.6698   -5.9125    8.2776   H         1 RES1   0.0000
   122 H69       4.6232   -8.2041    8.6969   H         1 RES1   0.0000
   123 H70       4.1861   -7.0799    9.9747   H         1 RES1   0.0000
   124 H71       5.4108   -6.2261    7.3112   H         1 RES1   0.0000
   125 H72       6.2829   -6.3889    8.8306   H         1 RES1   0.0000
   126 H73       5.0159   -5.1740    8.6679   H         1 RES1   0.0000
   127 H74       2.8053   -6.2638    1.9166   H         1 RES1   0.0000
   128 H75       3.5795   -4.6951    2.0729   H         1 RES1   0.0000
   129 H76       4.7186   -4.9262   -0.0118   H         1 RES1   0.0000
   130 H77       3.4863   -6.0112   -0.6505   H         1 RES1   0.0000
   131 H78       5.4918   -7.2342   -0.3143   H         1 RES1   0.0000
   132 H79       4.2648   -7.8430    0.7873   H         1 RES1   0.0000
   133 H80       6.3598   -5.8379    1.7208   H         1 RES1   0.0000
   134 H81       6.7241   -7.5573    1.5802   H         1 RES1   0.0000
   135 H82       4.7461   -8.0368    3.0885   H         1 RES1   0.0000
   136 H83       4.6850   -6.3007    3.4519   H         1 RES1   0.0000
   137 H84       7.1112   -8.0989    3.8621   H         1 RES1   0.0000
   138 H85       5.9569   -7.6645    5.1176   H         1 RES1   0.0000
   139 H86       6.5085   -5.2970    4.9025   H         1 RES1   0.0000
   140 H87       7.6519   -5.6345    3.6007   H         1 RES1   0.0000
   141 H88       8.0835   -7.1380    6.1561   H         1 RES1   0.0000
   142 H89       8.3786   -5.4045    6.2044   H         1 RES1   0.0000
   143 H90      10.4423   -6.4997    5.7499   H         1 RES1   0.0000
   144 H91       9.9656   -5.5823    4.3243   H         1 RES1   0.0000
   145 H92       9.6045   -8.6024    4.6460   H         1 RES1   0.0000
   146 H93      10.9193   -7.8185    3.7736   H         1 RES1   0.0000
   147 H94       9.2687   -7.6621    3.1817   H         1 RES1   0.0000
   148 C48      -4.6487    6.7484   -0.8457   C.3       1 RES1   0.0000
   149 C49      -5.5834    6.0442    0.1271   C.3       1 RES1   0.0000
   150 C50      -4.8568    5.4653    1.3405   C.3       1 RES1   0.0000
   151 C51      -5.8464    4.8597    2.3421   C.3       1 RES1   0.0000
   152 C52      -5.2103    3.8409    3.2943   C.3       1 RES1   0.0000
   153 C53      -6.2821    3.0254    4.0222   C.3       1 RES1   0.0000
   154 C54      -5.7731    2.0051    5.0495   C.3       1 RES1   0.0000
   155 C55      -5.3477    0.6269    4.5138   C.3       1 RES1   0.0000
   156 C56      -4.0134    0.6858    3.7714   C.3       1 RES1   0.0000
   157 C57      -3.1516   -0.5865    3.7174   C.3       1 RES1   0.0000
   158 N3       -3.4118   -1.4241    2.5491   N.am      1 RES1   0.0000
   159 C58      -4.6351   -2.2163    2.6415   C.3       1 RES1   0.0000
   160 C59      -4.6762   -3.2248    3.7968   C.3       1 RES1   0.0000
   161 C60      -3.6260   -4.3307    3.7103   C.3       1 RES1   0.0000
   162 C61      -2.2358   -3.9206    4.1983   C.3       1 RES1   0.0000
   163 C62      -2.1237   -3.8316    5.7201   C.3       1 RES1   0.0000
   164 C63      -0.7484   -3.3241    6.1515   C.3       1 RES1   0.0000
   165 C64      -0.5628   -3.4222    7.6642   C.3       1 RES1   0.0000
   166 C65       0.8077   -2.9458    8.1479   C.3       1 RES1   0.0000
   167 C66       1.0624   -1.4434    8.0023   C.3       1 RES1   0.0000
   168 C67       0.1483   -0.5904    8.8741   C.3       1 RES1   0.0000
   169 C68      -2.6061   -1.3554    1.4930   C.2       1 RES1   0.0000
   170 O4       -1.5320   -0.7074    1.4848   O.2       1 RES1   0.0000
   171 C69      -3.0423   -2.0505    0.1863   C.3       1 RES1   0.0000
   172 C70      -4.3293   -1.3791   -0.3343   C.3       1 RES1   0.0000
   173 O5       -1.9708   -1.9309   -0.7520   O.3       1 RES1   0.0000
   174 C71      -1.9348   -2.9596   -1.7526   C.3       1 RES1   0.0000
   175 C72      -2.8349   -2.6331   -2.9749   C.3       1 RES1   0.0000
   176 C73      -2.0650   -2.1727   -4.2098   C.3       1 RES1   0.0000
   177 C74      -0.4610   -3.0959   -2.1662   C.2       1 RES1   0.0000
   178 O6        0.3340   -2.1685   -1.9234   O.2       1 RES1   0.0000
   179 N4       -0.0673   -4.2171   -2.7668   N.am      1 RES1   0.0000
   180 C75       1.3664   -4.2898   -3.0854   C.3       1 RES1   0.0000
   181 C76       1.9353   -5.5790   -3.6939   C.3       1 RES1   0.0000
   182 C77       1.5679   -5.9668   -5.1439   C.3       1 RES1   0.0000
   183 C78       1.2986   -4.7835   -6.0760   C.3       1 RES1   0.0000
   184 C79       0.4316   -5.1398   -7.2835   C.3       1 RES1   0.0000
   185 C80       0.0635   -3.8748   -8.0627   C.3       1 RES1   0.0000
   186 C81      -1.2000   -4.0244   -8.9021   C.3       1 RES1   0.0000
   187 C82      -1.6047   -2.7029   -9.5536   C.3       1 RES1   0.0000
   188 C83      -2.9570   -2.7907  -10.2630   C.3       1 RES1   0.0000
   189 C84      -4.1361   -2.8516   -9.2968   C.3       1 RES1   0.0000
   190 C85      -0.9756   -5.2156   -3.3135   C.3       1 RES1   0.0000
   191 C86      -1.1918   -6.4741   -2.4724   C.3       1 RES1   0.0000
   192 C87      -1.7525   -7.6236   -3.3231   C.3       1 RES1   0.0000
   193 C88      -3.0042   -7.3267   -4.1648   C.3       1 RES1   0.0000
   194 C89      -2.7300   -6.7383   -5.5527   C.3       1 RES1   0.0000
   195 C90      -3.9657   -6.7281   -6.4570   C.3       1 RES1   0.0000
   196 C91      -5.0127   -5.7004   -6.0279   C.3       1 RES1   0.0000
   197 C92      -6.2223   -5.6519   -6.9709   C.3       1 RES1   0.0000
   198 C93      -7.4272   -6.4671   -6.4986   C.3       1 RES1   0.0000
   199 C94      -7.1639   -7.9621   -6.3700   C.3       1 RES1   0.0000
   200 H95      -5.2193    7.1759   -1.6648   H         1 RES1   0.0000
   201 H96      -3.9179    6.0557   -1.2604   H         1 RES1   0.0000
   202 H97      -4.1149    7.5542   -0.3492   H         1 RES1   0.0000
   203 H98      -6.1043    5.2355   -0.3903   H         1 RES1   0.0000
   204 H99      -6.3388    6.7503    0.4697   H         1 RES1   0.0000
   205 H100     -4.2690    6.2478    1.8242   H         1 RES1   0.0000
   206 H101     -4.1546    4.6943    1.0017   H         1 RES1   0.0000
   207 H102     -6.6448    4.3651    1.7826   H         1 RES1   0.0000
   208 H103     -6.3071    5.6619    2.9210   H         1 RES1   0.0000
   209 H104     -4.5841    4.3598    4.0252   H         1 RES1   0.0000
   210 H105     -4.5677    3.1766    2.7119   H         1 RES1   0.0000
   211 H106     -6.9070    2.5166    3.2850   H         1 RES1   0.0000
   212 H107     -6.9251    3.7342    4.5478   H         1 RES1   0.0000
   213 H108     -6.5868    1.8310    5.7539   H         1 RES1   0.0000
   214 H109     -4.9487    2.4470    5.6143   H         1 RES1   0.0000
   215 H110     -6.1476    0.2299    3.8871   H         1 RES1   0.0000
   216 H111     -5.2376   -0.0286    5.3790   H         1 RES1   0.0000
   217 H112     -3.4236    1.4187    4.3131   H         1 RES1   0.0000
   218 H113     -4.1703    1.0531    2.7574   H         1 RES1   0.0000
   219 H114     -3.3096   -1.1741    4.6185   H         1 RES1   0.0000
   220 H115     -2.0987   -0.3085    3.6719   H         1 RES1   0.0000
   221 H116     -4.7893   -2.7704    1.7207   H         1 RES1   0.0000
   222 H117     -5.4654   -1.5153    2.7723   H         1 RES1   0.0000
   223 H118     -5.6684   -3.6744    3.7473   H         1 RES1   0.0000
   224 H119     -4.6134   -2.7219    4.7589   H         1 RES1   0.0000
   225 H120     -3.5626   -4.6789    2.6755   H         1 RES1   0.0000
   226 H121     -3.9657   -5.1738    4.3136   H         1 RES1   0.0000
   227 H122     -1.9311   -2.9759    3.7448   H         1 RES1   0.0000
   228 H123     -1.5305   -4.6767    3.8568   H         1 RES1   0.0000
   229 H124     -2.2922   -4.8240    6.1436   H         1 RES1   0.0000
   230 H125     -2.8931   -3.1726    6.1270   H         1 RES1   0.0000
   231 H126     -0.6310   -2.2875    5.8232   H         1 RES1   0.0000
   232 H127      0.0215   -3.9225    5.6571   H         1 RES1   0.0000
   233 H128     -0.6784   -4.4673    7.9583   H         1 RES1   0.0000
   234 H129     -1.3467   -2.8538    8.1660   H         1 RES1   0.0000
   235 H130      1.5862   -3.4869    7.6021   H         1 RES1   0.0000
   236 H131      0.9068   -3.2062    9.2032   H         1 RES1   0.0000
   237 H132      0.9536   -1.1422    6.9563   H         1 RES1   0.0000
   238 H133      2.0980   -1.2471    8.2907   H         1 RES1   0.0000
   239 H134     -0.8902   -0.6760    8.5654   H         1 RES1   0.0000
   240 H135      0.4321    0.4575    8.8131   H         1 RES1   0.0000
   241 H136      0.2213   -0.8993    9.9128   H         1 RES1   0.0000
   242 H137     -3.2012   -3.1171    0.3986   H         1 RES1   0.0000
   243 H138     -4.8680   -0.8731    0.4612   H         1 RES1   0.0000
   244 H139     -4.9927   -2.1073   -0.7918   H         1 RES1   0.0000
   245 H140     -4.0659   -0.6286   -1.0764   H         1 RES1   0.0000
   246 H141     -2.2524   -3.9000   -1.2802   H         1 RES1   0.0000
   247 H142     -3.4555   -3.4994   -3.2154   H         1 RES1   0.0000
   248 H143     -3.5151   -1.8300   -2.7012   H         1 RES1   0.0000
   249 H144     -1.4660   -2.9659   -4.6510   H         1 RES1   0.0000
   250 H145     -1.4116   -1.3435   -3.9485   H         1 RES1   0.0000
   251 H146     -2.7718   -1.8364   -4.9629   H         1 RES1   0.0000
   252 H147      1.8977   -4.1225   -2.1413   H         1 RES1   0.0000
   253 H148      1.6116   -3.4409   -3.7311   H         1 RES1   0.0000
   254 H149      1.7078   -6.4268   -3.0471   H         1 RES1   0.0000
   255 H150      3.0183   -5.4348   -3.6522   H         1 RES1   0.0000
   256 H151      0.7012   -6.6301   -5.1451   H         1 RES1   0.0000
   257 H152      2.3869   -6.5676   -5.5433   H         1 RES1   0.0000
   258 H153      2.2422   -4.3614   -6.4259   H         1 RES1   0.0000
   259 H154      0.7675   -4.0023   -5.5275   H         1 RES1   0.0000
   260 H155     -0.4853   -5.6257   -6.9431   H         1 RES1   0.0000
   261 H156      0.9539   -5.8452   -7.9279   H         1 RES1   0.0000
   262 H157      0.8943   -3.5839   -8.7061   H         1 RES1   0.0000
   263 H158     -0.1010   -3.0593   -7.3509   H         1 RES1   0.0000
   264 H159     -2.0080   -4.3688   -8.2554   H         1 RES1   0.0000
   265 H160     -1.0491   -4.7800   -9.6734   H         1 RES1   0.0000
   266 H161     -0.8402   -2.4155  -10.2785   H         1 RES1   0.0000
   267 H162     -1.6506   -1.9175   -8.7916   H         1 RES1   0.0000
   268 H163     -2.9714   -3.6708  -10.9081   H         1 RES1   0.0000
   269 H164     -3.0768   -1.9152  -10.9028   H         1 RES1   0.0000
   270 H165     -4.1169   -3.7638   -8.7053   H         1 RES1   0.0000
   271 H166     -5.0740   -2.8321   -9.8465   H         1 RES1   0.0000
   272 H167     -4.1167   -1.9986   -8.6191   H         1 RES1   0.0000
   273 H168     -0.5729   -5.5028   -4.2793   H         1 RES1   0.0000
   274 H169     -1.9453   -4.7615   -3.4782   H         1 RES1   0.0000
   275 H170     -1.8736   -6.2574   -1.6465   H         1 RES1   0.0000
   276 H171     -0.2504   -6.8099   -2.0381   H         1 RES1   0.0000
   277 H172     -1.9908   -8.4339   -2.6326   H         1 RES1   0.0000
   278 H173     -0.9629   -7.9885   -3.9831   H         1 RES1   0.0000
   279 H174     -3.6821   -6.6789   -3.6065   H         1 RES1   0.0000
   280 H175     -3.5180   -8.2774   -4.3228   H         1 RES1   0.0000
   281 H176     -1.9621   -7.3472   -6.0359   H         1 RES1   0.0000
   282 H177     -2.3600   -5.7135   -5.4820   H         1 RES1   0.0000
   283 H178     -4.4025   -7.7255   -6.4903   H         1 RES1   0.0000
   284 H179     -3.6443   -6.4767   -7.4709   H         1 RES1   0.0000
   285 H180     -4.5319   -4.7164   -6.0087   H         1 RES1   0.0000
   286 H181     -5.3589   -5.9148   -5.0160   H         1 RES1   0.0000
   287 H182     -5.9199   -5.9978   -7.9603   H         1 RES1   0.0000
   288 H183     -6.5477   -4.6149   -7.0760   H         1 RES1   0.0000
   289 H184     -8.2361   -6.3139   -7.2152   H         1 RES1   0.0000
   290 H185     -7.7667   -6.0809   -5.5338   H         1 RES1   0.0000
   291 H186     -6.7669   -8.3674   -7.2975   H         1 RES1   0.0000
   292 H187     -8.0907   -8.4843   -6.1467   H         1 RES1   0.0000
   293 H188     -6.4621   -8.1693   -5.5655   H         1 RES1   0.0000
   294 C95      -8.5424   -2.2218   -2.1317   C.3       1 RES1   0.0000
   295 C96      -8.2736   -1.1408   -3.1717   C.3       1 RES1   0.0000
   296 C97      -6.7800   -0.9013   -3.3851   C.3       1 RES1   0.0000
   297 C98      -6.5345    0.3241   -4.2641   C.3       1 RES1   0.0000
   298 C99      -5.0506    0.5254   -4.5493   C.3       1 RES1   0.0000
   299 C100     -4.7710    1.7881   -5.3580   C.3       1 RES1   0.0000
   300 C101     -3.2920    1.8939   -5.7228   C.3       1 RES1   0.0000
   301 C102     -2.4224    2.4211   -4.5738   C.3       1 RES1   0.0000
   302 C103     -1.0289    1.7952   -4.6036   C.3       1 RES1   0.0000
   303 C104      0.0473    2.6142   -3.8962   C.3       1 RES1   0.0000
   304 N5       -0.1119    2.8423   -2.4575   N.am      1 RES1   0.0000
   305 C105      0.7894    3.8339   -1.8676   C.3       1 RES1   0.0000
   306 C106      2.1134    3.1594   -1.4546   C.3       1 RES1   0.0000
   307 C107      3.0768    3.8975   -0.5149   C.3       1 RES1   0.0000
   308 C108      4.4569    3.1945   -0.4951   C.3       1 RES1   0.0000
   309 C109      5.6310    4.1484   -0.7691   C.3       1 RES1   0.0000
   310 C110      6.9081    3.4803   -1.3038   C.3       1 RES1   0.0000
   311 C111      7.7233    4.4347   -2.1853   C.3       1 RES1   0.0000
   312 C112      8.9593    3.7899   -2.8206   C.3       1 RES1   0.0000
   313 C113      8.6744    2.7931   -3.9468   C.3       1 RES1   0.0000
   314 C114      8.2266    3.4603   -5.2421   C.3       1 RES1   0.0000
   315 C115     -0.7350    1.9766   -1.6573   C.2       1 RES1   0.0000
   316 O7       -0.9274    0.7726   -1.9057   O.2       1 RES1   0.0000
   317 C116     -1.2672    2.5130   -0.3213   C.3       1 RES1   0.0000
   318 C117     -2.6840    1.9704   -0.1454   C.3       1 RES1   0.0000
   319 O8       -0.3601    1.9967    0.6534   O.3       1 RES1   0.0000
   320 C118      0.2716    2.9695    1.4907   C.3       1 RES1   0.0000
   321 C119     -0.7150    3.4887    2.5449   C.3       1 RES1   0.0000
   322 C120     -1.3935    2.3511    3.2802   C.3       1 RES1   0.0000
   323 C121      1.5193    2.2400    2.0352   C.2       1 RES1   0.0000
   324 O9        1.7088    1.0730    1.6336   O.2       1 RES1   0.0000
   325 N6        2.3468    2.8694    2.8735   N.am      1 RES1   0.0000
   326 C122      3.3901    2.1064    3.5629   C.3       1 RES1   0.0000
   327 C123      2.9273    1.2844    4.7709   C.3       1 RES1   0.0000
   328 C124      2.4971    2.1005    5.9958   C.3       1 RES1   0.0000
   329 C125      0.9943    2.3570    5.9826   C.3       1 RES1   0.0000
   330 C126      0.5045    3.3657    7.0162   C.3       1 RES1   0.0000
   331 C127     -0.9969    3.5881    6.8439   C.3       1 RES1   0.0000
   332 C128     -1.5259    4.8240    7.5615   C.3       1 RES1   0.0000
   333 C129     -3.0186    5.0062    7.2838   C.3       1 RES1   0.0000
   334 C130     -3.5502    6.3902    7.6581   C.3       1 RES1   0.0000
   335 C131     -3.2102    7.4577    6.6224   C.3       1 RES1   0.0000
   336 C132      2.2914    4.2941    3.2266   C.3       1 RES1   0.0000
   337 C133      3.5971    5.0920    3.0180   C.3       1 RES1   0.0000
   338 C134      3.8177    6.1264    4.1307   C.3       1 RES1   0.0000
   339 C135      2.9844    7.4021    3.9837   C.3       1 RES1   0.0000
   340 C136      2.9558    8.2231    5.2831   C.3       1 RES1   0.0000
   341 C137      3.0379    9.7372    5.0773   C.3       1 RES1   0.0000
   342 C138      1.9039   10.3176    4.2175   C.3       1 RES1   0.0000
   343 C139      1.3128   11.5885    4.8372   C.3       1 RES1   0.0000
   344 C140      0.1654   12.1988    4.0233   C.3       1 RES1   0.0000
   345 C141      0.6501   12.9600    2.7926   C.3       1 RES1   0.0000
   346 H189     -9.6128   -2.3666   -2.0125   H         1 RES1   0.0000
   347 H190     -8.1241   -1.9320   -1.1679   H         1 RES1   0.0000
   348 H191     -8.0970   -3.1679   -2.4353   H         1 RES1   0.0000
   349 H192     -8.7388   -0.2057   -2.8513   H         1 RES1   0.0000
   350 H193     -8.7278   -1.4271   -4.1217   H         1 RES1   0.0000
   351 H194     -6.3306   -1.7851   -3.8506   H         1 RES1   0.0000
   352 H195     -6.2989   -0.7511   -2.4118   H         1 RES1   0.0000
   353 H196     -6.9423    1.2067   -3.7645   H         1 RES1   0.0000
   354 H197     -7.0673    0.1991   -5.2091   H         1 RES1   0.0000
   355 H198     -4.6842   -0.3375   -5.1111   H         1 RES1   0.0000
   356 H199     -4.4985    0.5605   -3.6042   H         1 RES1   0.0000
   357 H200     -5.0786    2.6686   -4.7918   H         1 RES1   0.0000
   358 H201     -5.3691    1.7607   -6.2691   H         1 RES1   0.0000
   359 H202     -3.1753    2.5455   -6.5863   H         1 RES1   0.0000
   360 H203     -2.9418    0.9053   -6.0236   H         1 RES1   0.0000
   361 H204     -2.9019    2.2094   -3.6168   H         1 RES1   0.0000
   362 H205     -2.3392    3.5057   -4.6578   H         1 RES1   0.0000
   363 H206     -0.6970    1.7345   -5.6433   H         1 RES1   0.0000
   364 H207     -1.0697    0.7809   -4.2044   H         1 RES1   0.0000
   365 H208      0.0562    3.6129   -4.3466   H         1 RES1   0.0000
   366 H209      1.0061    2.1317   -4.0914   H         1 RES1   0.0000
   367 H210      0.3163    4.3263   -1.0239   H         1 RES1   0.0000
   368 H211      0.9755    4.6072   -2.6068   H         1 RES1   0.0000
   369 H212      2.6701    2.9897   -2.3710   H         1 RES1   0.0000
   370 H213      1.8856    2.1818   -1.0058   H         1 RES1   0.0000
   371 H214      2.6817    3.9324    0.4969   H         1 RES1   0.0000
   372 H215      3.2150    4.9220   -0.8510   H         1 RES1   0.0000
   373 H216      4.6079    2.7206    0.4758   H         1 RES1   0.0000
   374 H217      4.4546    2.3998   -1.2453   H         1 RES1   0.0000
   375 H218      5.8712    4.6747    0.1529   H         1 RES1   0.0000
   376 H219      5.3143    4.9021   -1.4906   H         1 RES1   0.0000
   377 H220      6.6571    2.5924   -1.8879   H         1 RES1   0.0000
   378 H221      7.5231    3.1453   -0.4681   H         1 RES1   0.0000
   379 H222      8.0469    5.2866   -1.5846   H         1 RES1   0.0000
   380 H223      7.0808    4.8276   -2.9723   H         1 RES1   0.0000
   381 H224      9.5311    3.2983   -2.0309   H         1 RES1   0.0000
   382 H225      9.5824    4.5830   -3.2352   H         1 RES1   0.0000
   383 H226      7.9247    2.0663   -3.6239   H         1 RES1   0.0000
   384 H227      9.5963    2.2463   -4.1458   H         1 RES1   0.0000
   385 H228      7.4320    4.1793   -5.0666   H         1 RES1   0.0000
   386 H229      7.8707    2.7119   -5.9439   H         1 RES1   0.0000
   387 H230      9.0488    3.9912   -5.7110   H         1 RES1   0.0000
   388 H231     -1.3018    3.6043   -0.3039   H         1 RES1   0.0000
   389 H232     -2.6488    0.8954    0.0304   H         1 RES1   0.0000
   390 H233     -3.2585    2.1620   -1.0503   H         1 RES1   0.0000
   391 H234     -3.1827    2.4629    0.6823   H         1 RES1   0.0000
   392 H235      0.6005    3.8222    0.8824   H         1 RES1   0.0000
   393 H236     -0.2044    4.1363    3.2516   H         1 RES1   0.0000
   394 H237     -1.4769    4.0939    2.0460   H         1 RES1   0.0000
   395 H238     -0.6670    1.7259    3.7924   H         1 RES1   0.0000
   396 H239     -1.9469    1.7341    2.5805   H         1 RES1   0.0000
   397 H240     -2.0698    2.7762    4.0155   H         1 RES1   0.0000
   398 H241      4.1470    2.8085    3.9041   H         1 RES1   0.0000
   399 H242      3.8515    1.4176    2.8534   H         1 RES1   0.0000
   400 H243      3.7781    0.6557    5.0397   H         1 RES1   0.0000
   401 H244      2.1124    0.6276    4.4665   H         1 RES1   0.0000
   402 H245      3.0392    3.0459    6.0298   H         1 RES1   0.0000
   403 H246      2.7626    1.5557    6.9012   H         1 RES1   0.0000
   404 H247      0.4748    1.4070    6.1337   H         1 RES1   0.0000
   405 H248      0.7168    2.7341    4.9981   H         1 RES1   0.0000
   406 H249      1.0263    4.3156    6.8808   H         1 RES1   0.0000
   407 H250      0.7265    3.0129    8.0228   H         1 RES1   0.0000
   408 H251     -1.5369    2.7021    7.1853   H         1 RES1   0.0000
   409 H252     -1.2108    3.7156    5.7793   H         1 RES1   0.0000
   410 H253     -0.9725    5.6997    7.2176   H         1 RES1   0.0000
   411 H254     -1.3580    4.7299    8.6335   H         1 RES1   0.0000
   412 H255     -3.5722    4.2461    7.8389   H         1 RES1   0.0000
   413 H256     -3.2094    4.8429    6.2184   H         1 RES1   0.0000
   414 H257     -3.1487    6.6810    8.6294   H         1 RES1   0.0000
   415 H258     -4.6368    6.3364    7.7475   H         1 RES1   0.0000
   416 H259     -2.1342    7.5550    6.4915   H         1 RES1   0.0000
   417 H260     -3.5993    8.4232    6.9376   H         1 RES1   0.0000
   418 H261     -3.6567    7.2106    5.6590   H         1 RES1   0.0000
   419 H262      2.0109    4.3669    4.2808   H         1 RES1   0.0000
   420 H263      1.5273    4.7824    2.6303   H         1 RES1   0.0000
   421 H264      3.5549    5.6060    2.0582   H         1 RES1   0.0000
   422 H265      4.4669    4.4383    2.9867   H         1 RES1   0.0000
   423 H266      4.8699    6.4094    4.1355   H         1 RES1   0.0000
   424 H267      3.6054    5.6654    5.0960   H         1 RES1   0.0000
   425 H268      1.9641    7.1535    3.6881   H         1 RES1   0.0000
   426 H269      3.4153    8.0150    3.1929   H         1 RES1   0.0000
   427 H270      3.8015    7.9432    5.9124   H         1 RES1   0.0000
   428 H271      2.0415    7.9962    5.8351   H         1 RES1   0.0000
   429 H272      4.0036    9.9857    4.6334   H         1 RES1   0.0000
   430 H273      3.0025   10.2050    6.0638   H         1 RES1   0.0000
   431 H274      1.1049    9.5767    4.1234   H         1 RES1   0.0000
   432 H275      2.2724   10.5459    3.2146   H         1 RES1   0.0000
   433 H276      2.1017   12.3367    4.9530   H         1 RES1   0.0000
   434 H277      0.9341   11.3497    5.8359   H         1 RES1   0.0000
   435 H278     -0.3905   12.8880    4.6660   H         1 RES1   0.0000
   436 H279     -0.5268   11.4071    3.7153   H         1 RES1   0.0000
   437 H280      1.2988   13.7841    3.0824   H         1 RES1   0.0000
   438 H281     -0.1946   13.3739    2.2476   H         1 RES1   0.0000
   439 H282      1.2048   12.3101    2.1180   H         1 RES1   0.0000
@<TRIPOS>BOND
     1     1    24    1
     2     1    27    1
     3     1    32    1
     4     1   170    1
     5     1   173    1
     6     1   178    1
     7     1   316    1
     8     1   319    1
     9     1   324    1
    10     2     3    1
    11     2    54    1
    12     2    55    1
    13     2    56    1
    14     3     4    1
    15     3    57    1
    16     3    58    1
    17     4     5    1
    18     4    59    1
    19     4    60    1
    20     5     6    1
    21     5    61    1
    22     5    62    1
    23     6     7    1
    24     6    63    1
    25     6    64    1
    26     7     8    1
    27     7    65    1
    28     7    66    1
    29     8     9    1
    30     8    67    1
    31     8    68    1
    32     9    10    1
    33     9    69    1
    34     9    70    1
    35    10    11    1
    36    10    71    1
    37    10    72    1
    38    11    12    1
    39    11    73    1
    40    11    74    1
    41    12    13    1
    42    12    23    1
    43    13    14    1
    44    13    75    1
    45    13    76    1
    46    14    15    1
    47    14    77    1
    48    14    78    1
    49    15    16    1
    50    15    79    1
    51    15    80    1
    52    16    17    1
    53    16    81    1
    54    16    82    1
    55    17    18    1
    56    17    83    1
    57    17    84    1
    58    18    19    1
    59    18    85    1
    60    18    86    1
    61    19    20    1
    62    19    87    1
    63    19    88    1
    64    20    21    1
    65    20    89    1
    66    20    90    1
    67    21    22    1
    68    21    91    1
    69    21    92    1
    70    22    93    1
    71    22    94    1
    72    22    95    1
    73    23    24    2
    74    23    25    1
    75    25    26    1
    76    25    27    1
    77    25    96    1
    78    26    97    1
    79    26    98    1
    80    26    99    1
    81    27    28    1
    82    28    29    1
    83    28    31    1
    84    28   100    1
    85    29    30    1
    86    29   101    1
    87    29   102    1
    88    30   103    1
    89    30   104    1
    90    30   105    1
    91    31    32    2
    92    31    33    1
    93    33    34    1
    94    33    44    1
    95    34    35    1
    96    34   106    1
    97    34   107    1
    98    35    36    1
    99    35   108    1
   100    35   109    1
   101    36    37    1
   102    36   110    1
   103    36   111    1
   104    37    38    1
   105    37   112    1
   106    37   113    1
   107    38    39    1
   108    38   114    1
   109    38   115    1
   110    39    40    1
   111    39   116    1
   112    39   117    1
   113    40    41    1
   114    40   118    1
   115    40   119    1
   116    41    42    1
   117    41   120    1
   118    41   121    1
   119    42    43    1
   120    42   122    1
   121    42   123    1
   122    43   124    1
   123    43   125    1
   124    43   126    1
   125    44    45    1
   126    44   127    1
   127    44   128    1
   128    45    46    1
   129    45   129    1
   130    45   130    1
   131    46    47    1
   132    46   131    1
   133    46   132    1
   134    47    48    1
   135    47   133    1
   136    47   134    1
   137    48    49    1
   138    48   135    1
   139    48   136    1
   140    49    50    1
   141    49   137    1
   142    49   138    1
   143    50    51    1
   144    50   139    1
   145    50   140    1
   146    51    52    1
   147    51   141    1
   148    51   142    1
   149    52    53    1
   150    52   143    1
   151    52   144    1
   152    53   145    1
   153    53   146    1
   154    53   147    1
   155   148   149    1
   156   148   200    1
   157   148   201    1
   158   148   202    1
   159   149   150    1
   160   149   203    1
   161   149   204    1
   162   150   151    1
   163   150   205    1
   164   150   206    1
   165   151   152    1
   166   151   207    1
   167   151   208    1
   168   152   153    1
   169   152   209    1
   170   152   210    1
   171   153   154    1
   172   153   211    1
   173   153   212    1
   174   154   155    1
   175   154   213    1
   176   154   214    1
   177   155   156    1
   178   155   215    1
   179   155   216    1
   180   156   157    1
   181   156   217    1
   182   156   218    1
   183   157   158    1
   184   157   219    1
   185   157   220    1
   186   158   159    1
   187   158   169    1
   188   159   160    1
   189   159   221    1
   190   159   222    1
   191   160   161    1
   192   160   223    1
   193   160   224    1
   194   161   162    1
   195   161   225    1
   196   161   226    1
   197   162   163    1
   198   162   227    1
   199   162   228    1
   200   163   164    1
   201   163   229    1
   202   163   230    1
   203   164   165    1
   204   164   231    1
   205   164   232    1
   206   165   166    1
   207   165   233    1
   208   165   234    1
   209   166   167    1
   210   166   235    1
   211   166   236    1
   212   167   168    1
   213   167   237    1
   214   167   238    1
   215   168   239    1
   216   168   240    1
   217   168   241    1
   218   169   170    2
   219   169   171    1
   220   171   172    1
   221   171   173    1
   222   171   242    1
   223   172   243    1
   224   172   244    1
   225   172   245    1
   226   173   174    1
   227   174   175    1
   228   174   177    1
   229   174   246    1
   230   175   176    1
   231   175   247    1
   232   175   248    1
   233   176   249    1
   234   176   250    1
   235   176   251    1
   236   177   178    2
   237   177   179    1
   238   179   180    1
   239   179   190    1
   240   180   181    1
   241   180   252    1
   242   180   253    1
   243   181   182    1
   244   181   254    1
   245   181   255    1
   246   182   183    1
   247   182   256    1
   248   182   257    1
   249   183   184    1
   250   183   258    1
   251   183   259    1
   252   184   185    1
   253   184   260    1
   254   184   261    1
   255   185   186    1
   256   185   262    1
   257   185   263    1
   258   186   187    1
   259   186   264    1
   260   186   265    1
   261   187   188    1
   262   187   266    1
   263   187   267    1
   264   188   189    1
   265   188   268    1
   266   188   269    1
   267   189   270    1
   268   189   271    1
   269   189   272    1
   270   190   191    1
   271   190   273    1
   272   190   274    1
   273   191   192    1
   274   191   275    1
   275   191   276    1
   276   192   193    1
   277   192   277    1
   278   192   278    1
   279   193   194    1
   280   193   279    1
   281   193   280    1
   282   194   195    1
   283   194   281    1
   284   194   282    1
   285   195   196    1
   286   195   283    1
   287   195   284    1
   288   196   197    1
   289   196   285    1
   290   196   286    1
   291   197   198    1
   292   197   287    1
   293   197   288    1
   294   198   199    1
   295   198   289    1
   296   198   290    1
   297   199   291    1
   298   199   292    1
   299   199   293    1
   300   294   295    1
   301   294   346    1
   302   294   347    1
   303   294   348    1
   304   295   296    1
   305   295   349    1
   306   295   350    1
   307   296   297    1
   308   296   351    1
   309   296   352    1
   310   297   298    1
   311   297   353    1
   312   297   354    1
   313   298   299    1
   314   298   355    1
   315   298   356    1
   316   299   300    1
   317   299   357    1
   318   299   358    1
   319   300   301    1
   320   300   359    1
   321   300   360    1
   322   301   302    1
   323   301   361    1
   324   301   362    1
   325   302   303    1
   326   302   363    1
   327   302   364    1
   328   303   304    1
   329   303   365    1
   330   303   366    1
   331   304   305    1
   332   304   315    1
   333   305   306    1
   334   305   367    1
   335   305   368    1
   336   306   307    1
   337   306   369    1
   338   306   370    1
   339   307   308    1
   340   307   371    1
   341   307   372    1
   342   308   309    1
   343   308   373    1
   344   308   374    1
   345   309   310    1
   346   309   375    1
   347   309   376    1
   348   310   311    1
   349   310   377    1
   350   310   378    1
   351   311   312    1
   352   311   379    1
   353   311   380    1
   354   312   313    1
   355   312   381    1
   356   312   382    1
   357   313   314    1
   358   313   383    1
   359   313   384    1
   360   314   385    1
   361   314   386    1
   362   314   387    1
   363   315   316    2
   364   315   317    1
   365   317   318    1
   366   317   319    1
   367   317   388    1
   368   318   389    1
   369   318   390    1
   370   318   391    1
   371   319   320    1
   372   320   321    1
   373   320   323    1
   374   320   392    1
   375   321   322    1
   376   321   393    1
   377   321   394    1
   378   322   395    1
   379   322   396    1
   380   322   397    1
   381   323   324    2
   382   323   325    1
   383   325   326    1
   384   325   336    1
   385   326   327    1
   386   326   398    1
   387   326   399    1
   388   327   328    1
   389   327   400    1
   390   327   401    1
   391   328   329    1
   392   328   402    1
   393   328   403    1
   394   329   330    1
   395   329   404    1
   396   329   405    1
   397   330   331    1
   398   330   406    1
   399   330   407    1
   400   331   332    1
   401   331   408    1
   402   331   409    1
   403   332   333    1
   404   332   410    1
   405   332   411    1
   406   333   334    1
   407   333   412    1
   408   333   413    1
   409   334   335    1
   410   334   414    1
   411   334   415    1
   412   335   416    1
   413   335   417    1
   414   335   418    1
   415   336   337    1
   416   336   419    1
   417   336   420    1
   418   337   338    1
   419   337   421    1
   420   337   422    1
   421   338   339    1
   422   338   423    1
   423   338   424    1
   424   339   340    1
   425   339   425    1
   426   339   426    1
   427   340   341    1
   428   340   427    1
   429   340   428    1
   430   341   342    1
   431   341   429    1
   432   341   430    1
   433   342   343    1
   434   342   431    1
   435   342   432    1
   436   343   344    1
   437   343   433    1
   438   343   434    1
   439   344   345    1
   440   344   435    1
   441   344   436    1
   442   345   437    1
   443   345   438    1
   444   345   439    1
@<TRIPOS>SUBSTRUCTURE
     1 RES1      439 GROUP             0 ****  ****    0  
