@<TRIPOS>MOLECULE
am_c3_9H2O_c0_0_nunpairedes_0_charge_3 Charge: 3 Unpaired_Electrons: 5 XTB_Unpaired_Electrons: 0 XTB_Charge: 3
   343   351     1     0     0
SMALL
NoCharges
****
Generated from Architector

@<TRIPOS>ATOM
     1 Sm1      -0.0332   -0.1517    0.2294   Sm        1 RES1   0.0000
     2 C1       -5.7065   -3.2996    3.5540   C.3       1 RES1   0.0000
     3 C2       -5.4387   -3.9301    4.9188   C.3       1 RES1   0.0000
     4 C3       -4.8305   -2.9469    5.9203   C.3       1 RES1   0.0000
     5 C4       -3.4194   -2.5079    5.5386   C.3       1 RES1   0.0000
     6 C5       -2.7173   -1.7090    6.6363   C.3       1 RES1   0.0000
     7 C6       -3.4223   -0.4188    7.0638   C.3       1 RES1   0.0000
     8 C7       -3.6589    0.5890    5.9353   C.3       1 RES1   0.0000
     9 C8       -4.0508    1.9505    6.5109   C.3       1 RES1   0.0000
    10 C9       -4.1902    3.0983    5.5047   C.3       1 RES1   0.0000
    11 C10      -5.3730    2.9692    4.5382   C.3       1 RES1   0.0000
    12 C11      -5.0691    2.2546    3.2186   C.3       1 RES1   0.0000
    13 C12      -4.2710    3.0937    2.2005   C.3       1 RES1   0.0000
    14 N1       -2.8632    2.7494    2.0339   N.am      1 RES1   0.0000
    15 C13      -1.8694    3.7767    2.3734   C.3       1 RES1   0.0000
    16 C14      -1.9817    5.1122    1.6203   C.3       1 RES1   0.0000
    17 C15      -0.8215    6.0650    2.0225   C.3       1 RES1   0.0000
    18 C16       0.2061    6.4547    0.9319   C.3       1 RES1   0.0000
    19 C17       1.6511    6.3373    1.4311   C.3       1 RES1   0.0000
    20 C18       2.7738    6.6326    0.4060   C.3       1 RES1   0.0000
    21 C19       3.9952    5.7165    0.5936   C.3       1 RES1   0.0000
    22 C20       5.2433    6.1427   -0.1893   C.3       1 RES1   0.0000
    23 C21       6.2910    5.0079   -0.2641   C.3       1 RES1   0.0000
    24 C22       6.8840    4.8892   -1.6706   C.3       1 RES1   0.0000
    25 C23       7.6816    3.6160   -1.9629   C.3       1 RES1   0.0000
    26 C24       6.8153    2.3600   -2.0222   C.3       1 RES1   0.0000
    27 C25      -2.4236    1.5375    1.6901   C.2       1 RES1   0.0000
    28 O1       -1.2103    1.2534    1.6666   O.2       1 RES1   0.0000
    29 C26      -3.4068    0.4448    1.2576   C.3       1 RES1   0.0000
    30 O2       -2.6801   -0.5340    0.5151   O.3       1 RES1   0.0000
    31 C27      -3.3501   -0.9993   -0.6495   C.3       1 RES1   0.0000
    32 C28      -4.3000   -2.1870   -0.4587   C.3       1 RES1   0.0000
    33 C29      -5.0306   -2.3513   -1.7902   C.3       1 RES1   0.0000
    34 C30      -4.0643   -2.5290   -2.9627   C.3       1 RES1   0.0000
    35 N2       -2.7766   -1.8571   -2.8298   N.am      1 RES1   0.0000
    36 C31      -1.9036   -1.9572   -3.9911   C.3       1 RES1   0.0000
    37 C32      -1.1888   -3.3055   -4.0961   C.3       1 RES1   0.0000
    38 C33      -0.8304   -3.6616   -5.5386   C.3       1 RES1   0.0000
    39 C34       0.3268   -2.8568   -6.1281   C.3       1 RES1   0.0000
    40 C35       1.6912   -3.3346   -5.6278   C.3       1 RES1   0.0000
    41 C36       2.8092   -2.9197   -6.5797   C.3       1 RES1   0.0000
    42 C37      -2.3041   -1.3381   -1.7075   C.2       1 RES1   0.0000
    43 O3       -1.1039   -1.0568   -1.5442   O.2       1 RES1   0.0000
    44 H1       -6.2244   -4.0044    2.9069   H         1 RES1   0.0000
    45 H2       -4.7758   -3.0072    3.0671   H         1 RES1   0.0000
    46 H3       -6.3345   -2.4174    3.6681   H         1 RES1   0.0000
    47 H4       -4.7750   -4.7913    4.8028   H         1 RES1   0.0000
    48 H5       -6.3831   -4.2981    5.3230   H         1 RES1   0.0000
    49 H6       -4.7896   -3.4278    6.8990   H         1 RES1   0.0000
    50 H7       -5.4865   -2.0794    6.0014   H         1 RES1   0.0000
    51 H8       -3.4409   -1.9148    4.6206   H         1 RES1   0.0000
    52 H9       -2.8300   -3.4078    5.3429   H         1 RES1   0.0000
    53 H10      -2.6204   -2.3436    7.5199   H         1 RES1   0.0000
    54 H11      -1.7079   -1.4627    6.2915   H         1 RES1   0.0000
    55 H12      -2.8051    0.0544    7.8308   H         1 RES1   0.0000
    56 H13      -4.3772   -0.6618    7.5296   H         1 RES1   0.0000
    57 H14      -4.4554    0.2115    5.2926   H         1 RES1   0.0000
    58 H15      -2.7474    0.6836    5.3354   H         1 RES1   0.0000
    59 H16      -3.2954    2.2365    7.2462   H         1 RES1   0.0000
    60 H17      -4.9901    1.8428    7.0540   H         1 RES1   0.0000
    61 H18      -3.2581    3.2212    4.9476   H         1 RES1   0.0000
    62 H19      -4.3331    4.0060    6.0926   H         1 RES1   0.0000
    63 H20      -5.7791    3.9567    4.3183   H         1 RES1   0.0000
    64 H21      -6.1610    2.4100    5.0420   H         1 RES1   0.0000
    65 H22      -6.0245    1.9948    2.7592   H         1 RES1   0.0000
    66 H23      -4.5454    1.3329    3.4512   H         1 RES1   0.0000
    67 H24      -4.2923    4.1304    2.5315   H         1 RES1   0.0000
    68 H25      -4.7758    3.0489    1.2289   H         1 RES1   0.0000
    69 H26      -0.8943    3.3274    2.1857   H         1 RES1   0.0000
    70 H27      -1.9643    3.9831    3.4411   H         1 RES1   0.0000
    71 H28      -2.9144    5.6006    1.8991   H         1 RES1   0.0000
    72 H29      -2.0249    4.9433    0.5409   H         1 RES1   0.0000
    73 H30      -0.2896    5.6058    2.8559   H         1 RES1   0.0000
    74 H31      -1.2627    6.9830    2.4089   H         1 RES1   0.0000
    75 H32       0.0274    7.4777    0.5970   H         1 RES1   0.0000
    76 H33       0.0761    5.8151    0.0650   H         1 RES1   0.0000
    77 H34       1.7969    5.3300    1.8332   H         1 RES1   0.0000
    78 H35       1.7420    7.0198    2.2721   H         1 RES1   0.0000
    79 H36       3.1039    7.6664    0.5065   H         1 RES1   0.0000
    80 H37       2.3961    6.5187   -0.6119   H         1 RES1   0.0000
    81 H38       3.7357    4.7070    0.2606   H         1 RES1   0.0000
    82 H39       4.2540    5.6695    1.6559   H         1 RES1   0.0000
    83 H40       5.6828    7.0334    0.2682   H         1 RES1   0.0000
    84 H41       4.9427    6.4243   -1.2032   H         1 RES1   0.0000
    85 H42       5.8255    4.0574    0.0125   H         1 RES1   0.0000
    86 H43       7.0957    5.1854    0.4485   H         1 RES1   0.0000
    87 H44       7.5246    5.7530   -1.8470   H         1 RES1   0.0000
    88 H45       6.0634    4.9379   -2.3870   H         1 RES1   0.0000
    89 H46       8.4716    3.4825   -1.2238   H         1 RES1   0.0000
    90 H47       8.1549    3.7412   -2.9383   H         1 RES1   0.0000
    91 H48       6.4897    2.0513   -1.0309   H         1 RES1   0.0000
    92 H49       7.3681    1.5335   -2.4641   H         1 RES1   0.0000
    93 H50       5.9393    2.5453   -2.6414   H         1 RES1   0.0000
    94 H51      -4.2016    0.8920    0.6511   H         1 RES1   0.0000
    95 H52      -3.8612   -0.0360    2.1339   H         1 RES1   0.0000
    96 H53      -3.9421   -0.1732   -1.0765   H         1 RES1   0.0000
    97 H54      -5.0237   -1.9790    0.3315   H         1 RES1   0.0000
    98 H55      -3.7502   -3.0912   -0.1869   H         1 RES1   0.0000
    99 H56      -5.6651   -1.4783   -1.9560   H         1 RES1   0.0000
   100 H57      -5.6852   -3.2216   -1.7513   H         1 RES1   0.0000
   101 H58      -4.5321   -2.1759   -3.8863   H         1 RES1   0.0000
   102 H59      -3.8469   -3.5950   -3.0954   H         1 RES1   0.0000
   103 H60      -1.1868   -1.1372   -3.9229   H         1 RES1   0.0000
   104 H61      -2.5325   -1.7985   -4.8688   H         1 RES1   0.0000
   105 H62      -1.8566   -4.0797   -3.7186   H         1 RES1   0.0000
   106 H63      -0.3000   -3.2950   -3.4675   H         1 RES1   0.0000
   107 H64      -1.7149   -3.5126   -6.1583   H         1 RES1   0.0000
   108 H65      -0.5710   -4.7207   -5.5869   H         1 RES1   0.0000
   109 H66       0.1967   -1.7956   -5.9042   H         1 RES1   0.0000
   110 H67       0.3009   -2.9621   -7.2141   H         1 RES1   0.0000
   111 H68       1.6818   -4.4251   -5.5510   H         1 RES1   0.0000
   112 H69       1.8719   -2.9329   -4.6250   H         1 RES1   0.0000
   113 H70       2.6201   -3.3448   -7.5625   H         1 RES1   0.0000
   114 H71       3.7768   -3.2841   -6.2373   H         1 RES1   0.0000
   115 H72       2.8540   -1.8370   -6.6882   H         1 RES1   0.0000
   116 C38       0.1547   10.7622   -0.6808   C.3       1 RES1   0.0000
   117 C39      -0.1131   11.5050    0.6247   C.3       1 RES1   0.0000
   118 C40       0.9455   11.3009    1.7131   C.3       1 RES1   0.0000
   119 C41       1.0728    9.8395    2.1396   C.3       1 RES1   0.0000
   120 C42       1.7414    9.6196    3.5023   C.3       1 RES1   0.0000
   121 C43       3.2753    9.7109    3.5167   C.3       1 RES1   0.0000
   122 C44       3.9254    8.7056    4.4779   C.3       1 RES1   0.0000
   123 C45       3.5748    7.2522    4.1415   C.3       1 RES1   0.0000
   124 C46       4.5705    6.2214    4.6817   C.3       1 RES1   0.0000
   125 C47       3.8865    4.9883    5.2696   C.3       1 RES1   0.0000
   126 C48       2.8133    4.2967    4.4135   C.3       1 RES1   0.0000
   127 C49       3.3194    3.2265    3.4412   C.3       1 RES1   0.0000
   128 N3        2.3104    2.1988    3.1691   N.am      1 RES1   0.0000
   129 C50       1.8890    1.4019    4.3239   C.3       1 RES1   0.0000
   130 C51       0.3654    1.4374    4.5351   C.3       1 RES1   0.0000
   131 C52      -0.1721    2.5239    5.4740   C.3       1 RES1   0.0000
   132 C53       0.1635    2.2263    6.9365   C.3       1 RES1   0.0000
   133 C54      -0.1764    3.3790    7.8876   C.3       1 RES1   0.0000
   134 C55       0.8850    4.4839    7.9421   C.3       1 RES1   0.0000
   135 C56       2.0166    4.2309    8.9447   C.3       1 RES1   0.0000
   136 C57       2.8338    2.9661    8.6851   C.3       1 RES1   0.0000
   137 C58       4.1005    2.8984    9.5404   C.3       1 RES1   0.0000
   138 C59       4.7043    1.4898    9.6009   C.3       1 RES1   0.0000
   139 C60       4.9218    0.8108    8.2469   C.3       1 RES1   0.0000
   140 C61       5.8725    1.5734    7.3340   C.3       1 RES1   0.0000
   141 C62       1.9640    1.7176    1.9775   C.2       1 RES1   0.0000
   142 O4        1.4468    0.5910    1.8454   O.2       1 RES1   0.0000
   143 C63       2.1005    2.5882    0.7199   C.3       1 RES1   0.0000
   144 O5        1.1264    2.1477   -0.2312   O.3       1 RES1   0.0000
   145 C64       0.4097    3.2032   -0.8728   C.3       1 RES1   0.0000
   146 C65       1.1815    3.9385   -1.9653   C.3       1 RES1   0.0000
   147 C66       0.2678    4.9871   -2.5940   C.3       1 RES1   0.0000
   148 C67      -1.0357    4.3833   -3.1084   C.3       1 RES1   0.0000
   149 N4       -1.6205    3.3816   -2.2216   N.am      1 RES1   0.0000
   150 C68      -3.0133    3.0254   -2.4811   C.3       1 RES1   0.0000
   151 C69      -3.2010    2.2728   -3.8011   C.3       1 RES1   0.0000
   152 C70      -4.4442    1.3797   -3.8833   C.3       1 RES1   0.0000
   153 C71      -5.8110    2.0704   -3.9692   C.3       1 RES1   0.0000
   154 C72      -6.3993    2.6183   -2.6659   C.3       1 RES1   0.0000
   155 C73      -6.6545    1.5554   -1.6022   C.3       1 RES1   0.0000
   156 C74      -0.8946    2.6208   -1.4064   C.2       1 RES1   0.0000
   157 O6       -1.2995    1.5299   -0.9685   O.2       1 RES1   0.0000
   158 H73      -0.5856   11.0503   -1.4229   H         1 RES1   0.0000
   159 H74       0.0877    9.6836   -0.5510   H         1 RES1   0.0000
   160 H75       1.1397   11.0040   -1.0704   H         1 RES1   0.0000
   161 H76      -1.0824   11.1875    1.0176   H         1 RES1   0.0000
   162 H77      -0.1769   12.5730    0.4113   H         1 RES1   0.0000
   163 H78       0.6548   11.9031    2.5775   H         1 RES1   0.0000
   164 H79       1.9104   11.6702    1.3654   H         1 RES1   0.0000
   165 H80       1.6152    9.2861    1.3692   H         1 RES1   0.0000
   166 H81       0.0629    9.4196    2.1973   H         1 RES1   0.0000
   167 H82       1.4451    8.6246    3.8395   H         1 RES1   0.0000
   168 H83       1.3265   10.3315    4.2169   H         1 RES1   0.0000
   169 H84       3.5776   10.7121    3.8255   H         1 RES1   0.0000
   170 H85       3.6726    9.5457    2.5094   H         1 RES1   0.0000
   171 H86       3.6049    8.9194    5.4985   H         1 RES1   0.0000
   172 H87       5.0071    8.8406    4.4278   H         1 RES1   0.0000
   173 H88       3.5287    7.1519    3.0587   H         1 RES1   0.0000
   174 H89       2.5864    7.0239    4.5524   H         1 RES1   0.0000
   175 H90       5.1533    6.6715    5.4854   H         1 RES1   0.0000
   176 H91       5.2658    5.9221    3.8975   H         1 RES1   0.0000
   177 H92       3.4093    5.3067    6.2005   H         1 RES1   0.0000
   178 H93       4.6526    4.2600    5.5345   H         1 RES1   0.0000
   179 H94       2.2258    5.0410    3.8808   H         1 RES1   0.0000
   180 H95       2.1563    3.8009    5.1207   H         1 RES1   0.0000
   181 H96       4.1656    2.7102    3.9076   H         1 RES1   0.0000
   182 H97       3.6754    3.6593    2.5088   H         1 RES1   0.0000
   183 H98       2.4144    1.7706    5.2029   H         1 RES1   0.0000
   184 H99       2.1982    0.3683    4.1520   H         1 RES1   0.0000
   185 H100      0.0750    0.4803    4.9651   H         1 RES1   0.0000
   186 H101     -0.1217    1.5094    3.5614   H         1 RES1   0.0000
   187 H102     -1.2601    2.5486    5.3827   H         1 RES1   0.0000
   188 H103      0.1906    3.5105    5.1813   H         1 RES1   0.0000
   189 H104      1.2200    1.9873    7.0200   H         1 RES1   0.0000
   190 H105     -0.4006    1.3406    7.2390   H         1 RES1   0.0000
   191 H106     -0.3162    2.9791    8.8922   H         1 RES1   0.0000
   192 H107     -1.1310    3.8146    7.5810   H         1 RES1   0.0000
   193 H108      0.3951    5.4128    8.2393   H         1 RES1   0.0000
   194 H109      1.3028    4.6417    6.9443   H         1 RES1   0.0000
   195 H110      1.5909    4.1701    9.9482   H         1 RES1   0.0000
   196 H111      2.6884    5.0929    8.9272   H         1 RES1   0.0000
   197 H112      3.1267    2.9276    7.6323   H         1 RES1   0.0000
   198 H113      2.2244    2.0895    8.9095   H         1 RES1   0.0000
   199 H114      3.8637    3.2057   10.5612   H         1 RES1   0.0000
   200 H115      4.8365    3.6082    9.1582   H         1 RES1   0.0000
   201 H116      4.0425    0.8547   10.1950   H         1 RES1   0.0000
   202 H117      5.6598    1.5463   10.1266   H         1 RES1   0.0000
   203 H118      3.9600    0.6697    7.7473   H         1 RES1   0.0000
   204 H119      5.3338   -0.1820    8.4349   H         1 RES1   0.0000
   205 H120      5.4695    2.5500    7.0774   H         1 RES1   0.0000
   206 H121      6.0489    1.0168    6.4150   H         1 RES1   0.0000
   207 H122      6.8259    1.7222    7.8316   H         1 RES1   0.0000
   208 H123      3.1045    2.4797    0.2847   H         1 RES1   0.0000
   209 H124      1.9247    3.6380    0.9752   H         1 RES1   0.0000
   210 H125      0.0982    3.9285   -0.1061   H         1 RES1   0.0000
   211 H126      1.5207    3.2226   -2.7134   H         1 RES1   0.0000
   212 H127      2.0582    4.4316   -1.5447   H         1 RES1   0.0000
   213 H128      0.7931    5.4672   -3.4217   H         1 RES1   0.0000
   214 H129      0.0433    5.7689   -1.8660   H         1 RES1   0.0000
   215 H130     -0.8691    3.8973   -4.0762   H         1 RES1   0.0000
   216 H131     -1.7657    5.1831   -3.2600   H         1 RES1   0.0000
   217 H132     -3.5820    3.9568   -2.4724   H         1 RES1   0.0000
   218 H133     -3.3339    2.4021   -1.6440   H         1 RES1   0.0000
   219 H134     -2.3335    1.6184   -3.9215   H         1 RES1   0.0000
   220 H135     -3.2139    2.9729   -4.6368   H         1 RES1   0.0000
   221 H136     -4.4361    0.6793   -3.0459   H         1 RES1   0.0000
   222 H137     -4.3316    0.7918   -4.7984   H         1 RES1   0.0000
   223 H138     -6.5169    1.3342   -4.3624   H         1 RES1   0.0000
   224 H139     -5.7564    2.8808   -4.6990   H         1 RES1   0.0000
   225 H140     -7.3553    3.0803   -2.9165   H         1 RES1   0.0000
   226 H141     -5.7609    3.4019   -2.2572   H         1 RES1   0.0000
   227 H142     -7.2227    0.7277   -2.0189   H         1 RES1   0.0000
   228 H143     -7.2293    1.9805   -0.7839   H         1 RES1   0.0000
   229 H144     -5.7222    1.1665   -1.1921   H         1 RES1   0.0000
   230 C75       8.3000   -5.3239   -2.4099   C.3       1 RES1   0.0000
   231 C76       8.6649   -5.2217   -0.9313   C.3       1 RES1   0.0000
   232 C77       7.6681   -5.9231   -0.0050   C.3       1 RES1   0.0000
   233 C78       6.2905   -5.2640    0.0043   C.3       1 RES1   0.0000
   234 C79       5.3379   -5.8566    1.0428   C.3       1 RES1   0.0000
   235 C80       5.0078   -7.3268    0.7832   C.3       1 RES1   0.0000
   236 C81       3.8608   -7.8421    1.6560   C.3       1 RES1   0.0000
   237 C82       2.4870   -7.5087    1.0804   C.3       1 RES1   0.0000
   238 C83       1.3259   -8.0482    1.9154   C.3       1 RES1   0.0000
   239 C84       1.2534   -7.5159    3.3487   C.3       1 RES1   0.0000
   240 C85       1.2868   -5.9909    3.4866   C.3       1 RES1   0.0000
   241 C86       0.0939   -5.3427    2.7825   C.3       1 RES1   0.0000
   242 N5        0.1439   -3.8899    2.7204   N.am      1 RES1   0.0000
   243 C87      -0.1574   -3.1452    3.9392   C.3       1 RES1   0.0000
   244 C88       0.9362   -2.1214    4.2642   C.3       1 RES1   0.0000
   245 C89       2.1122   -2.6394    5.0973   C.3       1 RES1   0.0000
   246 C90       1.7838   -2.5987    6.5898   C.3       1 RES1   0.0000
   247 C91       2.9246   -3.1013    7.4752   C.3       1 RES1   0.0000
   248 C92       3.1596   -4.6143    7.4403   C.3       1 RES1   0.0000
   249 C93       2.3293   -5.4149    8.4467   C.3       1 RES1   0.0000
   250 C94       0.8175   -5.3284    8.2389   C.3       1 RES1   0.0000
   251 C95       0.0686   -6.4188    9.0067   C.3       1 RES1   0.0000
   252 C96      -1.4474   -6.2013    9.0425   C.3       1 RES1   0.0000
   253 C97      -2.1049   -5.9686    7.6810   C.3       1 RES1   0.0000
   254 C98      -1.9091   -7.1264    6.7107   C.3       1 RES1   0.0000
   255 C99       0.2370   -3.1938    1.5984   C.2       1 RES1   0.0000
   256 O7       -0.0818   -1.9862    1.5325   O.2       1 RES1   0.0000
   257 C100      0.8343   -3.8542    0.3496   C.3       1 RES1   0.0000
   258 O8        1.1372   -2.8328   -0.5891   O.3       1 RES1   0.0000
   259 C101      2.5267   -2.6590   -0.8836   C.3       1 RES1   0.0000
   260 C102      3.0854   -3.7149   -1.8377   C.3       1 RES1   0.0000
   261 C103      4.4426   -3.2440   -2.3425   C.3       1 RES1   0.0000
   262 C104      4.3041   -1.9413   -3.1102   C.3       1 RES1   0.0000
   263 N6        3.4487   -0.9747   -2.4414   N.am      1 RES1   0.0000
   264 C105      3.3924    0.3399   -3.0687   C.3       1 RES1   0.0000
   265 C106      2.6775    0.2208   -4.4204   C.3       1 RES1   0.0000
   266 C107      1.8873    1.4574   -4.8518   C.3       1 RES1   0.0000
   267 C108      2.6158    2.4266   -5.7917   C.3       1 RES1   0.0000
   268 C109      3.9621    3.0197   -5.3660   C.3       1 RES1   0.0000
   269 C110      3.9034    4.0210   -4.2191   C.3       1 RES1   0.0000
   270 C111      2.6070   -1.2469   -1.4628   C.2       1 RES1   0.0000
   271 O9        1.8667   -0.3748   -0.9588   O.2       1 RES1   0.0000
   272 H145      9.0974   -4.9096   -3.0225   H         1 RES1   0.0000
   273 H146      7.3862   -4.7753   -2.6348   H         1 RES1   0.0000
   274 H147      8.1598   -6.3643   -2.6940   H         1 RES1   0.0000
   275 H148      8.7482   -4.1683   -0.6503   H         1 RES1   0.0000
   276 H149      9.6453   -5.6791   -0.7840   H         1 RES1   0.0000
   277 H150      8.0715   -5.9150    1.0093   H         1 RES1   0.0000
   278 H151      7.5768   -6.9629   -0.3177   H         1 RES1   0.0000
   279 H152      5.8395   -5.3691   -0.9837   H         1 RES1   0.0000
   280 H153      6.4232   -4.1969    0.2130   H         1 RES1   0.0000
   281 H154      4.4159   -5.2644    1.0429   H         1 RES1   0.0000
   282 H155      5.7830   -5.7613    2.0347   H         1 RES1   0.0000
   283 H156      5.8974   -7.9187    0.9903   H         1 RES1   0.0000
   284 H157      4.7544   -7.4705   -0.2697   H         1 RES1   0.0000
   285 H158      3.9686   -7.4199    2.6552   H         1 RES1   0.0000
   286 H159      3.9357   -8.9255    1.7436   H         1 RES1   0.0000
   287 H160      2.4156   -7.9472    0.0833   H         1 RES1   0.0000
   288 H161      2.3851   -6.4271    0.9600   H         1 RES1   0.0000
   289 H162      1.4110   -9.1339    1.9734   H         1 RES1   0.0000
   290 H163      0.3888   -7.8332    1.3961   H         1 RES1   0.0000
   291 H164      2.0844   -7.9267    3.9211   H         1 RES1   0.0000
   292 H165      0.3327   -7.8857    3.8035   H         1 RES1   0.0000
   293 H166      2.2198   -5.5992    3.0801   H         1 RES1   0.0000
   294 H167      1.2592   -5.7483    4.5497   H         1 RES1   0.0000
   295 H168     -0.8245   -5.6070    3.3177   H         1 RES1   0.0000
   296 H169      0.0144   -5.7319    1.7701   H         1 RES1   0.0000
   297 H170     -0.2834   -3.8566    4.7533   H         1 RES1   0.0000
   298 H171     -1.1012   -2.6142    3.7871   H         1 RES1   0.0000
   299 H172      0.4626   -1.3200    4.8293   H         1 RES1   0.0000
   300 H173      1.2947   -1.6850    3.3284   H         1 RES1   0.0000
   301 H174      2.9786   -1.9956    4.9254   H         1 RES1   0.0000
   302 H175      2.3948   -3.6457    4.7876   H         1 RES1   0.0000
   303 H176      0.8740   -3.1640    6.7788   H         1 RES1   0.0000
   304 H177      1.5820   -1.5572    6.8557   H         1 RES1   0.0000
   305 H178      2.7269   -2.7969    8.5036   H         1 RES1   0.0000
   306 H179      3.8389   -2.5948    7.1589   H         1 RES1   0.0000
   307 H180      4.2103   -4.7955    7.6726   H         1 RES1   0.0000
   308 H181      2.9818   -5.0000    6.4330   H         1 RES1   0.0000
   309 H182      2.5672   -5.0749    9.4562   H         1 RES1   0.0000
   310 H183      2.6321   -6.4628    8.3760   H         1 RES1   0.0000
   311 H184      0.5935   -5.4321    7.1737   H         1 RES1   0.0000
   312 H185      0.4570   -4.3530    8.5715   H         1 RES1   0.0000
   313 H186      0.4316   -6.4462   10.0365   H         1 RES1   0.0000
   314 H187      0.2966   -7.3910    8.5660   H         1 RES1   0.0000
   315 H188     -1.6613   -5.3382    9.6774   H         1 RES1   0.0000
   316 H189     -1.9068   -7.0729    9.5118   H         1 RES1   0.0000
   317 H190     -1.7192   -5.0450    7.2420   H         1 RES1   0.0000
   318 H191     -3.1740   -5.8245    7.8463   H         1 RES1   0.0000
   319 H192     -0.8594   -7.2575    6.4605   H         1 RES1   0.0000
   320 H193     -2.4661   -6.9535    5.7910   H         1 RES1   0.0000
   321 H194     -2.2679   -8.0494    7.1559   H         1 RES1   0.0000
   322 H195      0.1193   -4.5452   -0.1119   H         1 RES1   0.0000
   323 H196      1.7319   -4.4154    0.6281   H         1 RES1   0.0000
   324 H197      3.1105   -2.6471    0.0534   H         1 RES1   0.0000
   325 H198      2.3975   -3.8529   -2.6728   H         1 RES1   0.0000
   326 H199      3.2027   -4.6708   -1.3284   H         1 RES1   0.0000
   327 H200      4.8754   -3.9917   -3.0079   H         1 RES1   0.0000
   328 H201      5.1187   -3.1150   -1.4979   H         1 RES1   0.0000
   329 H202      3.8908   -2.1437   -4.1009   H         1 RES1   0.0000
   330 H203      5.2839   -1.4799   -3.2554   H         1 RES1   0.0000
   331 H204      4.4099    0.7211   -3.1708   H         1 RES1   0.0000
   332 H205      2.8319    0.9892   -2.3920   H         1 RES1   0.0000
   333 H206      1.9640   -0.5987   -4.3241   H         1 RES1   0.0000
   334 H207      3.3899   -0.0400   -5.2009   H         1 RES1   0.0000
   335 H208      1.5166    1.9662   -3.9630   H         1 RES1   0.0000
   336 H209      1.0020    1.1214   -5.3994   H         1 RES1   0.0000
   337 H210      1.9292    3.2493   -6.0137   H         1 RES1   0.0000
   338 H211      2.7850    1.8929   -6.7292   H         1 RES1   0.0000
   339 H212      4.3554    3.5400   -6.2415   H         1 RES1   0.0000
   340 H213      4.6704    2.2252   -5.1275   H         1 RES1   0.0000
   341 H214      3.1220    4.7570   -4.3907   H         1 RES1   0.0000
   342 H215      4.8488    4.5535   -4.1583   H         1 RES1   0.0000
   343 H216      3.7233    3.5369   -3.2621   H         1 RES1   0.0000
@<TRIPOS>BOND
     1     1    28    1
     2     1    30    1
     3     1    43    1
     4     1   142    1
     5     1   144    1
     6     1   157    1
     7     1   256    1
     8     1   258    1
     9     1   271    1
    10     2     3    1
    11     2    44    1
    12     2    45    1
    13     2    46    1
    14     3     4    1
    15     3    47    1
    16     3    48    1
    17     4     5    1
    18     4    49    1
    19     4    50    1
    20     5     6    1
    21     5    51    1
    22     5    52    1
    23     6     7    1
    24     6    53    1
    25     6    54    1
    26     7     8    1
    27     7    55    1
    28     7    56    1
    29     8     9    1
    30     8    57    1
    31     8    58    1
    32     9    10    1
    33     9    59    1
    34     9    60    1
    35    10    11    1
    36    10    61    1
    37    10    62    1
    38    11    12    1
    39    11    63    1
    40    11    64    1
    41    12    13    1
    42    12    65    1
    43    12    66    1
    44    13    14    1
    45    13    67    1
    46    13    68    1
    47    14    15    1
    48    14    27    1
    49    15    16    1
    50    15    69    1
    51    15    70    1
    52    16    17    1
    53    16    71    1
    54    16    72    1
    55    17    18    1
    56    17    73    1
    57    17    74    1
    58    18    19    1
    59    18    75    1
    60    18    76    1
    61    19    20    1
    62    19    77    1
    63    19    78    1
    64    20    21    1
    65    20    79    1
    66    20    80    1
    67    21    22    1
    68    21    81    1
    69    21    82    1
    70    22    23    1
    71    22    83    1
    72    22    84    1
    73    23    24    1
    74    23    85    1
    75    23    86    1
    76    24    25    1
    77    24    87    1
    78    24    88    1
    79    25    26    1
    80    25    89    1
    81    25    90    1
    82    26    91    1
    83    26    92    1
    84    26    93    1
    85    27    28    2
    86    27    29    1
    87    29    30    1
    88    29    94    1
    89    29    95    1
    90    30    31    1
    91    31    32    1
    92    31    42    1
    93    31    96    1
    94    32    33    1
    95    32    97    1
    96    32    98    1
    97    33    34    1
    98    33    99    1
    99    33   100    1
   100    34    35    1
   101    34   101    1
   102    34   102    1
   103    35    36    1
   104    35    42    1
   105    36    37    1
   106    36   103    1
   107    36   104    1
   108    37    38    1
   109    37   105    1
   110    37   106    1
   111    38    39    1
   112    38   107    1
   113    38   108    1
   114    39    40    1
   115    39   109    1
   116    39   110    1
   117    40    41    1
   118    40   111    1
   119    40   112    1
   120    41   113    1
   121    41   114    1
   122    41   115    1
   123    42    43    2
   124   116   117    1
   125   116   158    1
   126   116   159    1
   127   116   160    1
   128   117   118    1
   129   117   161    1
   130   117   162    1
   131   118   119    1
   132   118   163    1
   133   118   164    1
   134   119   120    1
   135   119   165    1
   136   119   166    1
   137   120   121    1
   138   120   167    1
   139   120   168    1
   140   121   122    1
   141   121   169    1
   142   121   170    1
   143   122   123    1
   144   122   171    1
   145   122   172    1
   146   123   124    1
   147   123   173    1
   148   123   174    1
   149   124   125    1
   150   124   175    1
   151   124   176    1
   152   125   126    1
   153   125   177    1
   154   125   178    1
   155   126   127    1
   156   126   179    1
   157   126   180    1
   158   127   128    1
   159   127   181    1
   160   127   182    1
   161   128   129    1
   162   128   141    1
   163   129   130    1
   164   129   183    1
   165   129   184    1
   166   130   131    1
   167   130   185    1
   168   130   186    1
   169   131   132    1
   170   131   187    1
   171   131   188    1
   172   132   133    1
   173   132   189    1
   174   132   190    1
   175   133   134    1
   176   133   191    1
   177   133   192    1
   178   134   135    1
   179   134   193    1
   180   134   194    1
   181   135   136    1
   182   135   195    1
   183   135   196    1
   184   136   137    1
   185   136   197    1
   186   136   198    1
   187   137   138    1
   188   137   199    1
   189   137   200    1
   190   138   139    1
   191   138   201    1
   192   138   202    1
   193   139   140    1
   194   139   203    1
   195   139   204    1
   196   140   205    1
   197   140   206    1
   198   140   207    1
   199   141   142    2
   200   141   143    1
   201   143   144    1
   202   143   208    1
   203   143   209    1
   204   144   145    1
   205   145   146    1
   206   145   156    1
   207   145   210    1
   208   146   147    1
   209   146   211    1
   210   146   212    1
   211   147   148    1
   212   147   213    1
   213   147   214    1
   214   148   149    1
   215   148   215    1
   216   148   216    1
   217   149   150    1
   218   149   156    1
   219   150   151    1
   220   150   217    1
   221   150   218    1
   222   151   152    1
   223   151   219    1
   224   151   220    1
   225   152   153    1
   226   152   221    1
   227   152   222    1
   228   153   154    1
   229   153   223    1
   230   153   224    1
   231   154   155    1
   232   154   225    1
   233   154   226    1
   234   155   227    1
   235   155   228    1
   236   155   229    1
   237   156   157    2
   238   230   231    1
   239   230   272    1
   240   230   273    1
   241   230   274    1
   242   231   232    1
   243   231   275    1
   244   231   276    1
   245   232   233    1
   246   232   277    1
   247   232   278    1
   248   233   234    1
   249   233   279    1
   250   233   280    1
   251   234   235    1
   252   234   281    1
   253   234   282    1
   254   235   236    1
   255   235   283    1
   256   235   284    1
   257   236   237    1
   258   236   285    1
   259   236   286    1
   260   237   238    1
   261   237   287    1
   262   237   288    1
   263   238   239    1
   264   238   289    1
   265   238   290    1
   266   239   240    1
   267   239   291    1
   268   239   292    1
   269   240   241    1
   270   240   293    1
   271   240   294    1
   272   241   242    1
   273   241   295    1
   274   241   296    1
   275   242   243    1
   276   242   255    1
   277   243   244    1
   278   243   297    1
   279   243   298    1
   280   244   245    1
   281   244   299    1
   282   244   300    1
   283   245   246    1
   284   245   301    1
   285   245   302    1
   286   246   247    1
   287   246   303    1
   288   246   304    1
   289   247   248    1
   290   247   305    1
   291   247   306    1
   292   248   249    1
   293   248   307    1
   294   248   308    1
   295   249   250    1
   296   249   309    1
   297   249   310    1
   298   250   251    1
   299   250   311    1
   300   250   312    1
   301   251   252    1
   302   251   313    1
   303   251   314    1
   304   252   253    1
   305   252   315    1
   306   252   316    1
   307   253   254    1
   308   253   317    1
   309   253   318    1
   310   254   319    1
   311   254   320    1
   312   254   321    1
   313   255   256    2
   314   255   257    1
   315   257   258    1
   316   257   322    1
   317   257   323    1
   318   258   259    1
   319   259   260    1
   320   259   270    1
   321   259   324    1
   322   260   261    1
   323   260   325    1
   324   260   326    1
   325   261   262    1
   326   261   327    1
   327   261   328    1
   328   262   263    1
   329   262   329    1
   330   262   330    1
   331   263   264    1
   332   263   270    1
   333   264   265    1
   334   264   331    1
   335   264   332    1
   336   265   266    1
   337   265   333    1
   338   265   334    1
   339   266   267    1
   340   266   335    1
   341   266   336    1
   342   267   268    1
   343   267   337    1
   344   267   338    1
   345   268   269    1
   346   268   339    1
   347   268   340    1
   348   269   341    1
   349   269   342    1
   350   269   343    1
   351   270   271    2
@<TRIPOS>SUBSTRUCTURE
     1 RES1      343 GROUP             0 ****  ****    0  
