@<TRIPOS>MOLECULE
am_c3_9H2O_c0_0_nunpairedes_0_charge_3 Charge: 3 Unpaired_Electrons: 5 XTB_Unpaired_Electrons: 0 XTB_Charge: 3
   152   167     1     0     0
SMALL
NoCharges
****
Generated from Architector

@<TRIPOS>ATOM
     1 Sm1       0.0312    0.2018   -0.0224   Sm        1 RES1   0.0000
     2 C1       -5.2640   -6.0376   -6.3600   C.3       1 RES1   0.0000
     3 C2       -3.7405   -6.1510   -6.4733   C.3       1 RES1   0.0000
     4 C3       -3.0794   -5.0179   -5.7514   C.ar      1 RES1   0.0000
     5 C4       -3.1675   -3.7240   -6.2690   C.ar      1 RES1   0.0000
     6 C5       -2.5985   -2.6531   -5.6118   C.ar      1 RES1   0.0000
     7 C6       -1.9248   -2.8439   -4.4082   C.ar      1 RES1   0.0000
     8 N1       -1.2447   -1.7353   -3.8271   N.am      1 RES1   0.0000
     9 C7       -0.2829   -1.0981   -4.7346   C.3       1 RES1   0.0000
    10 C8        0.7029   -2.0848   -5.3364   C.3       1 RES1   0.0000
    11 C9       -1.3623   -1.2288   -2.6010   C.2       1 RES1   0.0000
    12 O1       -0.6259   -0.2653   -2.2585   O.2       1 RES1   0.0000
    13 C10      -2.3771   -1.6369   -1.5688   C.ar      1 RES1   0.0000
    14 C11      -3.5214   -2.4339   -1.7247   C.ar      1 RES1   0.0000
    15 C12      -4.3987   -2.5476   -0.6653   C.ar      1 RES1   0.0000
    16 C13      -4.1829   -1.8448    0.5374   C.ar      1 RES1   0.0000
    17 C14      -5.0656   -1.8647    1.6569   C.ar      1 RES1   0.0000
    18 C15      -4.8026   -1.1316    2.7692   C.ar      1 RES1   0.0000
    19 C16      -3.6279   -0.3277    2.8644   C.ar      1 RES1   0.0000
    20 C17      -3.3017    0.4836    3.9695   C.ar      1 RES1   0.0000
    21 C18      -2.1052    1.1648    4.0199   C.ar      1 RES1   0.0000
    22 C19      -1.1821    1.0163    2.9640   C.ar      1 RES1   0.0000
    23 C20       0.2493    1.4959    2.8544   C.2       1 RES1   0.0000
    24 O2        0.8617    1.1598    1.8133   O.2       1 RES1   0.0000
    25 N2        0.8607    2.2468    3.7863   N.am      1 RES1   0.0000
    26 C21       0.5940    2.1043    5.2150   C.3       1 RES1   0.0000
    27 C22       0.0817    3.3857    5.8586   C.3       1 RES1   0.0000
    28 C23       1.9518    3.0865    3.4007   C.ar      1 RES1   0.0000
    29 C24       1.9640    3.6810    2.1350   C.ar      1 RES1   0.0000
    30 C25       2.9742    4.5469    1.7658   C.ar      1 RES1   0.0000
    31 C26       4.0057    4.8782    2.6444   C.ar      1 RES1   0.0000
    32 C27       5.0995    5.8289    2.2643   C.3       1 RES1   0.0000
    33 C28       4.5819    7.2421    1.9935   C.3       1 RES1   0.0000
    34 C29       3.9720    4.2976    3.9068   C.ar      1 RES1   0.0000
    35 C30       2.9808    3.4102    4.2785   C.ar      1 RES1   0.0000
    36 N3       -1.5525    0.3745    1.8541   N.ar      1 RES1   0.0000
    37 C31      -2.7074   -0.3002    1.7914   C.ar      1 RES1   0.0000
    38 C32      -3.0003   -1.0695    0.5992   C.ar      1 RES1   0.0000
    39 N4       -2.1373   -1.0087   -0.4174   N.ar      1 RES1   0.0000
    40 C33      -1.8278   -4.1260   -3.8797   C.ar      1 RES1   0.0000
    41 C34      -2.4108   -5.1937   -4.5398   C.ar      1 RES1   0.0000
    42 H1       -5.7386   -6.8806   -6.8501   H         1 RES1   0.0000
    43 H2       -5.6220   -5.1253   -6.8276   H         1 RES1   0.0000
    44 H3       -5.5741   -6.0301   -5.3192   H         1 RES1   0.0000
    45 H4       -3.4660   -6.1262   -7.5304   H         1 RES1   0.0000
    46 H5       -3.4109   -7.1040   -6.0588   H         1 RES1   0.0000
    47 H6       -3.6775   -3.5592   -7.2050   H         1 RES1   0.0000
    48 H7       -2.6835   -1.6613   -6.0281   H         1 RES1   0.0000
    49 H8        0.2610   -0.3502   -4.1603   H         1 RES1   0.0000
    50 H9       -0.8421   -0.5939   -5.5273   H         1 RES1   0.0000
    51 H10       1.2436   -2.6159   -4.5578   H         1 RES1   0.0000
    52 H11       1.4175   -1.5308   -5.9379   H         1 RES1   0.0000
    53 H12       0.2011   -2.8077   -5.9703   H         1 RES1   0.0000
    54 H13      -3.7085   -2.9391   -2.6582   H         1 RES1   0.0000
    55 H14      -5.2735   -3.1700   -0.7670   H         1 RES1   0.0000
    56 H15      -5.9522   -2.4750    1.6007   H         1 RES1   0.0000
    57 H16      -5.4802   -1.1576    3.6079   H         1 RES1   0.0000
    58 H17      -3.9991    0.5691    4.7903   H         1 RES1   0.0000
    59 H18      -1.9059    1.8097    4.8592   H         1 RES1   0.0000
    60 H19       1.5308    1.8040    5.6949   H         1 RES1   0.0000
    61 H20      -0.0878    1.2674    5.3615   H         1 RES1   0.0000
    62 H21       0.8150    4.1808    5.7695   H         1 RES1   0.0000
    63 H22      -0.1020    3.2057    6.9130   H         1 RES1   0.0000
    64 H23      -0.8377    3.7337    5.3972   H         1 RES1   0.0000
    65 H24       1.1750    3.4567    1.4325   H         1 RES1   0.0000
    66 H25       2.9497    4.9823    0.7764   H         1 RES1   0.0000
    67 H26       5.6011    5.4590    1.3666   H         1 RES1   0.0000
    68 H27       5.8311    5.8692    3.0713   H         1 RES1   0.0000
    69 H28       3.8860    7.2587    1.1615   H         1 RES1   0.0000
    70 H29       5.4107    7.8994    1.7537   H         1 RES1   0.0000
    71 H30       4.0781    7.6395    2.8680   H         1 RES1   0.0000
    72 H31       4.7318    4.5413    4.6306   H         1 RES1   0.0000
    73 H32       3.0364    2.9736    5.2595   H         1 RES1   0.0000
    74 H33      -1.2859   -4.2827   -2.9562   H         1 RES1   0.0000
    75 H34      -2.3283   -6.1839   -4.1130   H         1 RES1   0.0000
    76 C35       4.7872   -8.1215    3.8367   C.3       1 RES1   0.0000
    77 C36       4.1288   -7.3361    4.9740   C.3       1 RES1   0.0000
    78 C37       3.1852   -6.3030    4.4378   C.ar      1 RES1   0.0000
    79 C38       3.6632   -5.1848    3.7533   C.ar      1 RES1   0.0000
    80 C39       2.8042   -4.2326    3.2384   C.ar      1 RES1   0.0000
    81 C40       1.4233   -4.3878    3.3599   C.ar      1 RES1   0.0000
    82 N5        0.5225   -3.3984    2.8738   N.am      1 RES1   0.0000
    83 C41      -0.5527   -3.0266    3.8000   C.3       1 RES1   0.0000
    84 C42       0.0068   -2.3670    5.0554   C.3       1 RES1   0.0000
    85 C43       0.6297   -2.6813    1.7560   C.2       1 RES1   0.0000
    86 O3       -0.1778   -1.7503    1.5149   O.2       1 RES1   0.0000
    87 C44       1.6136   -2.9223    0.6469   C.ar      1 RES1   0.0000
    88 C45       2.1624   -4.1617    0.2802   C.ar      1 RES1   0.0000
    89 C46       2.9292   -4.2398   -0.8625   C.ar      1 RES1   0.0000
    90 C47       3.1608   -3.0859   -1.6391   C.ar      1 RES1   0.0000
    91 C48       3.9450   -3.0745   -2.8312   C.ar      1 RES1   0.0000
    92 C49       4.0737   -1.9486   -3.5798   C.ar      1 RES1   0.0000
    93 C50       3.4140   -0.7382   -3.2094   C.ar      1 RES1   0.0000
    94 C51       3.4461    0.4485   -3.9700   C.ar      1 RES1   0.0000
    95 C52       2.6918    1.5386   -3.5907   C.ar      1 RES1   0.0000
    96 C53       1.8909    1.4475   -2.4382   C.ar      1 RES1   0.0000
    97 C54       0.9762    2.5054   -1.8726   C.2       1 RES1   0.0000
    98 O4        0.5961    2.3463   -0.6917   O.2       1 RES1   0.0000
    99 N6        0.6350    3.5986   -2.5635   N.am      1 RES1   0.0000
   100 C55       0.0035    4.7056   -1.8442   C.3       1 RES1   0.0000
   101 C56      -1.4957    4.7770   -2.1064   C.3       1 RES1   0.0000
   102 C57       0.5103    3.6544   -3.9738   C.ar      1 RES1   0.0000
   103 C58       0.8397    4.8051   -4.6865   C.ar      1 RES1   0.0000
   104 C59       0.5643    4.8788   -6.0363   C.ar      1 RES1   0.0000
   105 C60      -0.0319    3.8163   -6.7168   C.ar      1 RES1   0.0000
   106 C61      -0.3427    3.9391   -8.1764   C.3       1 RES1   0.0000
   107 C62       0.9210    4.0781   -9.0266   C.3       1 RES1   0.0000
   108 C63      -0.3258    2.6582   -6.0005   C.ar      1 RES1   0.0000
   109 C64      -0.0815    2.5843   -4.6430   C.ar      1 RES1   0.0000
   110 N7        1.9139    0.3643   -1.6652   N.ar      1 RES1   0.0000
   111 C65       2.6364   -0.7065   -2.0267   C.ar      1 RES1   0.0000
   112 C66       2.5265   -1.8942   -1.2126   C.ar      1 RES1   0.0000
   113 N8        1.7586   -1.8345   -0.1125   N.ar      1 RES1   0.0000
   114 C67       0.9389   -5.5068    4.0323   C.ar      1 RES1   0.0000
   115 C68       1.8049   -6.4412    4.5634   C.ar      1 RES1   0.0000
   116 H35       5.4633   -8.8645    4.2462   H         1 RES1   0.0000
   117 H36       5.3574   -7.4644    3.1868   H         1 RES1   0.0000
   118 H37       4.0393   -8.6334    3.2379   H         1 RES1   0.0000
   119 H38       4.9113   -6.8525    5.5639   H         1 RES1   0.0000
   120 H39       3.5940   -8.0286    5.6246   H         1 RES1   0.0000
   121 H40       4.7309   -5.0563    3.6335   H         1 RES1   0.0000
   122 H41       3.1972   -3.3569    2.7439   H         1 RES1   0.0000
   123 H42      -1.1199   -3.9211    4.0632   H         1 RES1   0.0000
   124 H43      -1.2158   -2.3445    3.2651   H         1 RES1   0.0000
   125 H44       0.6397   -3.0602    5.6029   H         1 RES1   0.0000
   126 H45      -0.8126   -2.0672    5.7017   H         1 RES1   0.0000
   127 H46       0.5947   -1.4877    4.8007   H         1 RES1   0.0000
   128 H47       1.9587   -5.0331    0.8841   H         1 RES1   0.0000
   129 H48       3.3521   -5.1894   -1.1571   H         1 RES1   0.0000
   130 H49       4.4307   -3.9892   -3.1318   H         1 RES1   0.0000
   131 H50       4.6746   -1.9626   -4.4755   H         1 RES1   0.0000
   132 H51       4.0443    0.4953   -4.8698   H         1 RES1   0.0000
   133 H52       2.7005    2.4497   -4.1717   H         1 RES1   0.0000
   134 H53       0.4837    5.6279   -2.1753   H         1 RES1   0.0000
   135 H54       0.2084    4.5555   -0.7840   H         1 RES1   0.0000
   136 H55      -1.6987    4.9351   -3.1622   H         1 RES1   0.0000
   137 H56      -1.9204    5.6057   -1.5495   H         1 RES1   0.0000
   138 H57      -1.9769    3.8580   -1.7858   H         1 RES1   0.0000
   139 H58       1.3122    5.6348   -4.1879   H         1 RES1   0.0000
   140 H59       0.8009    5.7825   -6.5775   H         1 RES1   0.0000
   141 H60      -0.9635    4.8251   -8.3342   H         1 RES1   0.0000
   142 H61      -0.9076    3.0671   -8.5076   H         1 RES1   0.0000
   143 H62       1.4646    4.9831   -8.7769   H         1 RES1   0.0000
   144 H63       0.6491    4.1248  -10.0757   H         1 RES1   0.0000
   145 H64       1.5843    3.2300   -8.8841   H         1 RES1   0.0000
   146 H65      -0.7789    1.8183   -6.5112   H         1 RES1   0.0000
   147 H66      -0.3679    1.7133   -4.0738   H         1 RES1   0.0000
   148 H67      -0.1202   -5.6739    4.1335   H         1 RES1   0.0000
   149 H68       1.3919   -7.2925    5.0838   H         1 RES1   0.0000
   150 O5       -2.2104    1.6814   -0.7749   O.3       1 RES1   0.0000
   151 H69      -3.0290    1.9430   -0.3393   H         1 RES1   0.0000
   152 H70      -2.4098    1.6613   -1.7199   H         1 RES1   0.0000
@<TRIPOS>BOND
     1     1    12    1
     2     1    24    1
     3     1    36    1
     4     1    39    1
     5     1    86    1
     6     1    98    1
     7     1   110    1
     8     1   113    1
     9     1   150    1
    10     2     3    1
    11     2    42    1
    12     2    43    1
    13     2    44    1
    14     3     4    1
    15     3    45    1
    16     3    46    1
    17     4     5    1
    18     4    41    2
    19     5     6    2
    20     5    47    1
    21     6     7    1
    22     6    48    1
    23     7     8    1
    24     7    40    2
    25     8     9    1
    26     8    11    1
    27     9    10    1
    28     9    49    1
    29     9    50    1
    30    10    51    1
    31    10    52    1
    32    10    53    1
    33    11    12    2
    34    11    13    1
    35    13    14    1
    36    13    39    2
    37    14    15    2
    38    14    54    1
    39    15    16    1
    40    15    55    1
    41    16    17    1
    42    16    38    2
    43    17    18    2
    44    17    56    1
    45    18    19    1
    46    18    57    1
    47    19    20    1
    48    19    37    2
    49    20    21    2
    50    20    58    1
    51    21    22    1
    52    21    59    1
    53    22    23    1
    54    22    36    2
    55    23    24    2
    56    23    25    1
    57    25    26    1
    58    25    28    1
    59    26    27    1
    60    26    60    1
    61    26    61    1
    62    27    62    1
    63    27    63    1
    64    27    64    1
    65    28    29    1
    66    28    35    2
    67    29    30    2
    68    29    65    1
    69    30    31    1
    70    30    66    1
    71    31    32    1
    72    31    34    2
    73    32    33    1
    74    32    67    1
    75    32    68    1
    76    33    69    1
    77    33    70    1
    78    33    71    1
    79    34    35    1
    80    34    72    1
    81    35    73    1
    82    36    37    1
    83    37    38    1
    84    38    39    1
    85    40    41    1
    86    40    74    1
    87    41    75    1
    88    76    77    1
    89    76   116    1
    90    76   117    1
    91    76   118    1
    92    77    78    1
    93    77   119    1
    94    77   120    1
    95    78    79    1
    96    78   115    2
    97    79    80    2
    98    79   121    1
    99    80    81    1
   100    80   122    1
   101    81    82    1
   102    81   114    2
   103    82    83    1
   104    82    85    1
   105    83    84    1
   106    83   123    1
   107    83   124    1
   108    84   125    1
   109    84   126    1
   110    84   127    1
   111    85    86    2
   112    85    87    1
   113    87    88    1
   114    87   113    2
   115    88    89    2
   116    88   128    1
   117    89    90    1
   118    89   129    1
   119    90    91    1
   120    90   112    2
   121    91    92    2
   122    91   130    1
   123    92    93    1
   124    92   131    1
   125    93    94    1
   126    93   111    2
   127    94    95    2
   128    94   132    1
   129    95    96    1
   130    95   133    1
   131    96    97    1
   132    96   110    2
   133    97    98    2
   134    97    99    1
   135    99   100    1
   136    99   102    1
   137   100   101    1
   138   100   134    1
   139   100   135    1
   140   101   136    1
   141   101   137    1
   142   101   138    1
   143   102   103    1
   144   102   109    2
   145   103   104    2
   146   103   139    1
   147   104   105    1
   148   104   140    1
   149   105   106    1
   150   105   108    2
   151   106   107    1
   152   106   141    1
   153   106   142    1
   154   107   143    1
   155   107   144    1
   156   107   145    1
   157   108   109    1
   158   108   146    1
   159   109   147    1
   160   110   111    1
   161   111   112    1
   162   112   113    1
   163   114   115    1
   164   114   148    1
   165   115   149    1
   166   150   151    1
   167   150   152    1
@<TRIPOS>SUBSTRUCTURE
     1 RES1      152 GROUP             0 ****  ****    0  
