@<TRIPOS>MOLECULE
am_c3_9H2O_c0_0_nunpairedes_0_charge_3 Charge: 3 Unpaired_Electrons: 5 XTB_Unpaired_Electrons: 0 XTB_Charge: 3
   430   435     1     0     0
SMALL
NoCharges
****
Generated from Architector

@<TRIPOS>ATOM
     1 Sm1       0.1279    0.0139   -0.0179   Sm        1 RES1   0.0000
     2 C1      -10.0334    5.6173    4.1142   C.3       1 RES1   0.0000
     3 C2       -9.4394    4.2270    4.3121   C.3       1 RES1   0.0000
     4 C3       -9.9343    3.2310    3.2645   C.3       1 RES1   0.0000
     5 C4       -9.2742    1.8622    3.4134   C.3       1 RES1   0.0000
     6 C5       -9.4900    0.9909    2.1806   C.3       1 RES1   0.0000
     7 C6       -8.8787   -0.4084    2.3098   C.3       1 RES1   0.0000
     8 C7       -7.3436   -0.4412    2.3614   C.3       1 RES1   0.0000
     9 C8       -6.7651    0.0304    1.0299   C.3       1 RES1   0.0000
    10 C9       -5.2376    0.0160    0.8863   C.3       1 RES1   0.0000
    11 C10      -4.8323    0.7450   -0.4278   C.3       1 RES1   0.0000
    12 N1       -4.0958    0.1351   -1.5891   N.am      1 RES1   0.0000
    13 C11      -4.8765    0.0331   -2.8526   C.3       1 RES1   0.0000
    14 C12      -4.7740   -0.9987   -4.0501   C.3       1 RES1   0.0000
    15 C13      -5.2609   -2.5079   -4.4060   C.3       1 RES1   0.0000
    16 C14      -5.2998   -3.9684   -3.7786   C.3       1 RES1   0.0000
    17 C15      -4.3147   -5.1595   -4.0397   C.3       1 RES1   0.0000
    18 C16      -3.2530   -5.6799   -3.0250   C.3       1 RES1   0.0000
    19 C17      -1.8172   -5.2188   -3.2745   C.3       1 RES1   0.0000
    20 C18      -0.7485   -5.9014   -2.4239   C.3       1 RES1   0.0000
    21 C19       0.6691   -5.5907   -2.9174   C.3       1 RES1   0.0000
    22 C20       1.1616   -4.1618   -2.6710   C.3       1 RES1   0.0000
    23 C21      -2.7791    0.4532   -1.4852   C.2       1 RES1   0.0000
    24 O1       -2.1665    0.1276   -0.4564   O.2       1 RES1   0.0000
    25 C22      -2.0929    1.5217   -2.3896   C.3       1 RES1   0.0000
    26 C23      -1.1224    1.1292   -3.5045   C.3       1 RES1   0.0000
    27 O2       -1.3021    2.2835   -1.4631   O.3       1 RES1   0.0000
    28 C24      -1.9993    3.2842   -0.7045   C.3       1 RES1   0.0000
    29 C25      -1.9088    4.6237   -1.4410   C.3       1 RES1   0.0000
    30 C26      -1.5603    3.0859    0.7759   C.2       1 RES1   0.0000
    31 O3       -1.0631    1.9702    1.0336   O.2       1 RES1   0.0000
    32 N2       -1.8846    3.9504    1.7545   N.am      1 RES1   0.0000
    33 C27      -1.9540    3.3773    3.1016   C.3       1 RES1   0.0000
    34 C28      -3.3748    3.2746    3.7011   C.3       1 RES1   0.0000
    35 C29      -4.4812    2.9510    2.6924   C.3       1 RES1   0.0000
    36 C30      -5.1097    4.1773    2.0355   C.3       1 RES1   0.0000
    37 C31      -6.4278    3.9277    1.3083   C.3       1 RES1   0.0000
    38 C32      -6.8850    5.2018    0.5953   C.3       1 RES1   0.0000
    39 C33      -8.3162    5.0808    0.0825   C.3       1 RES1   0.0000
    40 C34      -8.7021    6.2353   -0.8355   C.3       1 RES1   0.0000
    41 C35     -10.1743    6.1981   -1.2493   C.3       1 RES1   0.0000
    42 C36     -10.5768    4.9168   -1.9733   C.3       1 RES1   0.0000
    43 C37      -1.7946    5.4177    1.6519   C.3       1 RES1   0.0000
    44 C38      -2.5867    6.2658    2.6555   C.3       1 RES1   0.0000
    45 C39      -1.8770    6.6379    3.9579   C.3       1 RES1   0.0000
    46 C40      -2.7855    7.5294    4.8135   C.3       1 RES1   0.0000
    47 C41      -3.8562    6.7443    5.5769   C.3       1 RES1   0.0000
    48 C42      -4.9879    7.6374    6.0824   C.3       1 RES1   0.0000
    49 C43      -6.0789    6.8350    6.7931   C.3       1 RES1   0.0000
    50 C44      -7.3149    7.6816    7.0941   C.3       1 RES1   0.0000
    51 C45      -8.4402    6.8729    7.7397   C.3       1 RES1   0.0000
    52 C46      -9.6949    7.7134    7.9440   C.3       1 RES1   0.0000
    53 H1       -9.6361    6.3108    4.8526   H         1 RES1   0.0000
    54 H2      -11.1154    5.5910    4.2202   H         1 RES1   0.0000
    55 H3       -9.7951    5.9987    3.1210   H         1 RES1   0.0000
    56 H4       -9.6899    3.8589    5.3092   H         1 RES1   0.0000
    57 H5       -8.3486    4.3009    4.2516   H         1 RES1   0.0000
    58 H6       -9.7132    3.6277    2.2705   H         1 RES1   0.0000
    59 H7      -11.0186    3.1282    3.3368   H         1 RES1   0.0000
    60 H8       -9.6736    1.3556    4.2910   H         1 RES1   0.0000
    61 H9       -8.2037    2.0007    3.5767   H         1 RES1   0.0000
    62 H10      -9.0826    1.5061    1.3061   H         1 RES1   0.0000
    63 H11     -10.5620    0.8774    2.0106   H         1 RES1   0.0000
    64 H12      -9.2718   -0.8847    3.2102   H         1 RES1   0.0000
    65 H13      -9.2070   -1.0086    1.4572   H         1 RES1   0.0000
    66 H14      -7.0233   -1.4664    2.5546   H         1 RES1   0.0000
    67 H15      -6.9887    0.1799    3.1858   H         1 RES1   0.0000
    68 H16      -7.1007    1.0571    0.8787   H         1 RES1   0.0000
    69 H17      -7.2005   -0.5908    0.2487   H         1 RES1   0.0000
    70 H18      -4.8321   -0.9899    0.9630   H         1 RES1   0.0000
    71 H19      -4.8109    0.5615    1.7289   H         1 RES1   0.0000
    72 H20      -4.2348    1.6051   -0.1182   H         1 RES1   0.0000
    73 H21      -5.7451    1.1436   -0.8783   H         1 RES1   0.0000
    74 H22      -4.7465    0.9948   -3.3621   H         1 RES1   0.0000
    75 H23      -5.8985   -0.0364   -2.5242   H         1 RES1   0.0000
    76 H24      -3.8193   -0.8368   -4.5133   H         1 RES1   0.0000
    77 H25      -5.4503   -0.4802   -4.7339   H         1 RES1   0.0000
    78 H26      -4.8141   -2.6301   -5.3937   H         1 RES1   0.0000
    79 H27      -6.3172   -2.3670   -4.6216   H         1 RES1   0.0000
    80 H28      -6.2165   -4.3399   -4.2475   H         1 RES1   0.0000
    81 H29      -5.5340   -3.9618   -2.7297   H         1 RES1   0.0000
    82 H30      -3.8466   -5.0573   -5.0170   H         1 RES1   0.0000
    83 H31      -4.9964   -6.0062   -4.1315   H         1 RES1   0.0000
    84 H32      -3.2728   -6.7720   -3.0964   H         1 RES1   0.0000
    85 H33      -3.5337   -5.4775   -1.9888   H         1 RES1   0.0000
    86 H34      -1.7394   -4.1591   -3.0866   H         1 RES1   0.0000
    87 H35      -1.5771   -5.4063   -4.3186   H         1 RES1   0.0000
    88 H36      -0.8801   -6.9837   -2.4401   H         1 RES1   0.0000
    89 H37      -0.8484   -5.5838   -1.3846   H         1 RES1   0.0000
    90 H38       0.7160   -5.7984   -3.9899   H         1 RES1   0.0000
    91 H39       1.3673   -6.2780   -2.4348   H         1 RES1   0.0000
    92 H40       0.6171   -3.4337   -3.2619   H         1 RES1   0.0000
    93 H41       1.0719   -3.8525   -1.6284   H         1 RES1   0.0000
    94 H42       2.2079   -4.0851   -2.9668   H         1 RES1   0.0000
    95 H43      -2.8948    2.1526   -2.8041   H         1 RES1   0.0000
    96 H44      -0.3744    0.4253   -3.1374   H         1 RES1   0.0000
    97 H45      -0.6126    2.0374   -3.8209   H         1 RES1   0.0000
    98 H46      -1.6189    0.7133   -4.3734   H         1 RES1   0.0000
    99 H47      -3.0650    3.0113   -0.6517   H         1 RES1   0.0000
   100 H48      -0.9800    5.1547   -1.2627   H         1 RES1   0.0000
   101 H49      -2.7481    5.2638   -1.1859   H         1 RES1   0.0000
   102 H50      -1.9787    4.4288   -2.5113   H         1 RES1   0.0000
   103 H51      -1.3149    3.9592    3.7679   H         1 RES1   0.0000
   104 H52      -1.5517    2.3639    3.0324   H         1 RES1   0.0000
   105 H53      -3.6286    4.1759    4.2550   H         1 RES1   0.0000
   106 H54      -3.3223    2.4646    4.4317   H         1 RES1   0.0000
   107 H55      -5.2764    2.4050    3.2012   H         1 RES1   0.0000
   108 H56      -4.0489    2.3046    1.9278   H         1 RES1   0.0000
   109 H57      -4.4036    4.6028    1.3210   H         1 RES1   0.0000
   110 H58      -5.3226    4.9151    2.8108   H         1 RES1   0.0000
   111 H59      -7.1935    3.6265    2.0236   H         1 RES1   0.0000
   112 H60      -6.3183    3.1273    0.5731   H         1 RES1   0.0000
   113 H61      -6.2090    5.4165   -0.2393   H         1 RES1   0.0000
   114 H62      -6.8233    6.0448    1.2870   H         1 RES1   0.0000
   115 H63      -8.9978    5.0655    0.9334   H         1 RES1   0.0000
   116 H64      -8.4259    4.1357   -0.4502   H         1 RES1   0.0000
   117 H65      -8.0738    6.2167   -1.7322   H         1 RES1   0.0000
   118 H66      -8.5095    7.1791   -0.3177   H         1 RES1   0.0000
   119 H67     -10.3665    7.0522   -1.9005   H         1 RES1   0.0000
   120 H68     -10.7988    6.3168   -0.3622   H         1 RES1   0.0000
   121 H69      -9.8772    4.6896   -2.7760   H         1 RES1   0.0000
   122 H70     -11.5669    5.0362   -2.4044   H         1 RES1   0.0000
   123 H71     -10.6088    4.0720   -1.2881   H         1 RES1   0.0000
   124 H72      -2.1129    5.7015    0.6554   H         1 RES1   0.0000
   125 H73      -0.7415    5.7081    1.7621   H         1 RES1   0.0000
   126 H74      -3.5371    5.8097    2.8879   H         1 RES1   0.0000
   127 H75      -2.8067    7.2016    2.1387   H         1 RES1   0.0000
   128 H76      -0.9551    7.1715    3.7211   H         1 RES1   0.0000
   129 H77      -1.6031    5.7622    4.5466   H         1 RES1   0.0000
   130 H78      -3.2749    8.2570    4.1647   H         1 RES1   0.0000
   131 H79      -2.1767    8.0892    5.5243   H         1 RES1   0.0000
   132 H80      -3.3944    6.2181    6.4157   H         1 RES1   0.0000
   133 H81      -4.3086    5.9914    4.9260   H         1 RES1   0.0000
   134 H82      -5.4286    8.1577    5.2287   H         1 RES1   0.0000
   135 H83      -4.5888    8.3946    6.7567   H         1 RES1   0.0000
   136 H84      -5.6821    6.4232    7.7229   H         1 RES1   0.0000
   137 H85      -6.3768    5.9928    6.1606   H         1 RES1   0.0000
   138 H86      -7.6796    8.1136    6.1584   H         1 RES1   0.0000
   139 H87      -7.0438    8.5083    7.7532   H         1 RES1   0.0000
   140 H88      -8.1048    6.4814    8.7024   H         1 RES1   0.0000
   141 H89      -8.6817    6.0175    7.1033   H         1 RES1   0.0000
   142 H90      -9.4969    8.5446    8.6151   H         1 RES1   0.0000
   143 H91     -10.4917    7.1111    8.3714   H         1 RES1   0.0000
   144 H92     -10.0468    8.1167    6.9972   H         1 RES1   0.0000
   145 C47      10.6225    2.7346   -0.8820   C.3       1 RES1   0.0000
   146 C48      10.2836    1.2974   -0.5084   C.3       1 RES1   0.0000
   147 C49       9.6836    1.2079    0.8940   C.3       1 RES1   0.0000
   148 C50       9.0459   -0.1545    1.1662   C.3       1 RES1   0.0000
   149 C51       8.2200   -0.1534    2.4535   C.3       1 RES1   0.0000
   150 C52       7.3570   -1.4065    2.6218   C.3       1 RES1   0.0000
   151 C53       6.3188   -1.2649    3.7398   C.3       1 RES1   0.0000
   152 C54       5.1007   -0.4409    3.3158   C.3       1 RES1   0.0000
   153 C55       4.1584   -0.2051    4.4969   C.3       1 RES1   0.0000
   154 C56       2.7482    0.2179    4.0776   C.3       1 RES1   0.0000
   155 N3        2.6909    1.5006    3.3726   N.am      1 RES1   0.0000
   156 C57       3.2869    2.6352    4.0651   C.3       1 RES1   0.0000
   157 C58       2.8952    2.7899    5.5489   C.3       1 RES1   0.0000
   158 C59       1.4082    3.0098    5.8830   C.3       1 RES1   0.0000
   159 C60       0.6640    1.7977    6.4829   C.3       1 RES1   0.0000
   160 C61      -0.4716    1.3144    5.5836   C.3       1 RES1   0.0000
   161 C62      -1.1711    0.0399    6.0609   C.3       1 RES1   0.0000
   162 C63      -2.4273   -0.2200    5.2243   C.3       1 RES1   0.0000
   163 C64      -3.0905   -1.5732    5.4817   C.3       1 RES1   0.0000
   164 C65      -4.2577   -1.8014    4.5215   C.3       1 RES1   0.0000
   165 C66      -4.9280   -3.1502    4.7364   C.3       1 RES1   0.0000
   166 C67       2.0998    1.5193    2.1842   C.2       1 RES1   0.0000
   167 O4        1.4451    0.5290    1.7814   O.2       1 RES1   0.0000
   168 C68       2.2277    2.7106    1.2078   C.3       1 RES1   0.0000
   169 C69       1.4385    3.9553    1.6493   C.3       1 RES1   0.0000
   170 O5        1.7175    2.2108   -0.0293   O.3       1 RES1   0.0000
   171 C70       2.3540    2.6376   -1.2428   C.3       1 RES1   0.0000
   172 C71       1.5649    3.7800   -1.8896   C.3       1 RES1   0.0000
   173 C72       2.3461    1.3715   -2.1176   C.2       1 RES1   0.0000
   174 O6        1.5544    0.4642   -1.7645   O.2       1 RES1   0.0000
   175 N4        3.1639    1.2258   -3.1558   N.am      1 RES1   0.0000
   176 C73       3.2873   -0.1255   -3.6891   C.3       1 RES1   0.0000
   177 C74       4.5083   -0.8761   -3.1184   C.3       1 RES1   0.0000
   178 C75       4.7693   -0.6166   -1.6266   C.3       1 RES1   0.0000
   179 C76       5.5822    0.6601   -1.3977   C.3       1 RES1   0.0000
   180 C77       5.6013    1.1478    0.0480   C.3       1 RES1   0.0000
   181 C78       6.1078    2.5928    0.1184   C.3       1 RES1   0.0000
   182 C79       6.0631    3.1707    1.5369   C.3       1 RES1   0.0000
   183 C80       5.9181    4.6954    1.5807   C.3       1 RES1   0.0000
   184 C81       7.1536    5.4665    1.1080   C.3       1 RES1   0.0000
   185 C82       8.3004    5.4205    2.1086   C.3       1 RES1   0.0000
   186 C83       3.7746    2.3282   -3.9089   C.3       1 RES1   0.0000
   187 C84       5.1701    2.1301   -4.5338   C.3       1 RES1   0.0000
   188 C85       5.2472    1.5272   -5.9401   C.3       1 RES1   0.0000
   189 C86       6.7039    1.4960   -6.4152   C.3       1 RES1   0.0000
   190 C87       7.5507    0.4236   -5.7220   C.3       1 RES1   0.0000
   191 C88       9.0394    0.7715   -5.7108   C.3       1 RES1   0.0000
   192 C89       9.8440   -0.1743   -4.8192   C.3       1 RES1   0.0000
   193 C90      11.2796    0.3051   -4.6200   C.3       1 RES1   0.0000
   194 C91      12.0396   -0.5700   -3.6272   C.3       1 RES1   0.0000
   195 C92      13.4253   -0.0184   -3.3242   C.3       1 RES1   0.0000
   196 H93      11.0493    2.7826   -1.8795   H         1 RES1   0.0000
   197 H94      11.3398    3.1552   -0.1833   H         1 RES1   0.0000
   198 H95       9.7264    3.3530   -0.8631   H         1 RES1   0.0000
   199 H96      11.1812    0.6802   -0.5656   H         1 RES1   0.0000
   200 H97       9.5622    0.9006   -1.2298   H         1 RES1   0.0000
   201 H98       8.9215    1.9856    0.9929   H         1 RES1   0.0000
   202 H99      10.4552    1.4147    1.6367   H         1 RES1   0.0000
   203 H100      9.8217   -0.9190    1.2166   H         1 RES1   0.0000
   204 H101      8.3970   -0.4098    0.3228   H         1 RES1   0.0000
   205 H102      7.5746    0.7282    2.4467   H         1 RES1   0.0000
   206 H103      8.8849   -0.0619    3.3132   H         1 RES1   0.0000
   207 H104      8.0060   -2.2548    2.8424   H         1 RES1   0.0000
   208 H105      6.8336   -1.6311    1.6860   H         1 RES1   0.0000
   209 H106      6.7793   -0.7909    4.6084   H         1 RES1   0.0000
   210 H107      5.9803   -2.2585    4.0462   H         1 RES1   0.0000
   211 H108      4.5670   -0.9570    2.5100   H         1 RES1   0.0000
   212 H109      5.4318    0.5205    2.9213   H         1 RES1   0.0000
   213 H110      4.6021    0.5300    5.1675   H         1 RES1   0.0000
   214 H111      4.0552   -1.1315    5.0708   H         1 RES1   0.0000
   215 H112      2.1053    0.2661    4.9560   H         1 RES1   0.0000
   216 H113      2.3489   -0.5307    3.3921   H         1 RES1   0.0000
   217 H114      3.0289    3.5464    3.5293   H         1 RES1   0.0000
   218 H115      4.3773    2.5280    4.0365   H         1 RES1   0.0000
   219 H116      3.4459    3.6697    5.8865   H         1 RES1   0.0000
   220 H117      3.2799    1.9531    6.1294   H         1 RES1   0.0000
   221 H118      0.8860    3.3637    4.9918   H         1 RES1   0.0000
   222 H119      1.3589    3.8156    6.6132   H         1 RES1   0.0000
   223 H120      0.2363    2.0752    7.4460   H         1 RES1   0.0000
   224 H121      1.3622    0.9864    6.6912   H         1 RES1   0.0000
   225 H122     -0.0919    1.1466    4.5703   H         1 RES1   0.0000
   226 H123     -1.2146    2.1116    5.5286   H         1 RES1   0.0000
   227 H124     -1.4545    0.1390    7.1093   H         1 RES1   0.0000
   228 H125     -0.4861   -0.8076    5.9847   H         1 RES1   0.0000
   229 H126     -2.1782   -0.1384    4.1594   H         1 RES1   0.0000
   230 H127     -3.1575    0.5604    5.4474   H         1 RES1   0.0000
   231 H128     -3.4534   -1.6150    6.5086   H         1 RES1   0.0000
   232 H129     -2.3635   -2.3826    5.3678   H         1 RES1   0.0000
   233 H130     -3.8866   -1.7299    3.4941   H         1 RES1   0.0000
   234 H131     -4.9928   -1.0064    4.6554   H         1 RES1   0.0000
   235 H132     -4.2086   -3.9579    4.6315   H         1 RES1   0.0000
   236 H133     -5.7269   -3.3009    4.0160   H         1 RES1   0.0000
   237 H134     -5.3571   -3.2046    5.7315   H         1 RES1   0.0000
   238 H135      3.2890    2.9557    1.0907   H         1 RES1   0.0000
   239 H136      0.8213    3.7392    2.5171   H         1 RES1   0.0000
   240 H137      0.7859    4.2445    0.8276   H         1 RES1   0.0000
   241 H138      2.0943    4.7900    1.8785   H         1 RES1   0.0000
   242 H139      3.3907    2.9371   -1.0355   H         1 RES1   0.0000
   243 H140      0.5111    3.5176   -1.8833   H         1 RES1   0.0000
   244 H141      1.7069    4.7034   -1.3327   H         1 RES1   0.0000
   245 H142      1.8719    3.9518   -2.9176   H         1 RES1   0.0000
   246 H143      3.3436   -0.0618   -4.7746   H         1 RES1   0.0000
   247 H144      2.3774   -0.6657   -3.4145   H         1 RES1   0.0000
   248 H145      5.4048   -0.6289   -3.6870   H         1 RES1   0.0000
   249 H146      4.3165   -1.9376   -3.2803   H         1 RES1   0.0000
   250 H147      5.3231   -1.4603   -1.2105   H         1 RES1   0.0000
   251 H148      3.8150   -0.5575   -1.0920   H         1 RES1   0.0000
   252 H149      5.1608    1.4645   -1.9943   H         1 RES1   0.0000
   253 H150      6.6076    0.4998   -1.7348   H         1 RES1   0.0000
   254 H151      6.2372    0.5109    0.6578   H         1 RES1   0.0000
   255 H152      4.5846    1.0834    0.4555   H         1 RES1   0.0000
   256 H153      5.4940    3.2185   -0.5420   H         1 RES1   0.0000
   257 H154      7.1261    2.6248   -0.2713   H         1 RES1   0.0000
   258 H155      6.9608    2.8831    2.0843   H         1 RES1   0.0000
   259 H156      5.2078    2.7288    2.0601   H         1 RES1   0.0000
   260 H157      5.6983    4.9937    2.6094   H         1 RES1   0.0000
   261 H158      5.0592    4.9903    0.9666   H         1 RES1   0.0000
   262 H159      6.8679    6.5089    0.9538   H         1 RES1   0.0000
   263 H160      7.4892    5.0769    0.1461   H         1 RES1   0.0000
   264 H161      7.9819    5.8117    3.0718   H         1 RES1   0.0000
   265 H162      9.1276    6.0268    1.7526   H         1 RES1   0.0000
   266 H163      8.6641    4.4069    2.2496   H         1 RES1   0.0000
   267 H164      3.8410    3.1895   -3.2439   H         1 RES1   0.0000
   268 H165      3.0829    2.5750   -4.7234   H         1 RES1   0.0000
   269 H166      5.8169    1.5704   -3.8653   H         1 RES1   0.0000
   270 H167      5.6006    3.1317   -4.6141   H         1 RES1   0.0000
   271 H168      4.6589    2.1392   -6.6262   H         1 RES1   0.0000
   272 H169      4.8526    0.5132   -5.9796   H         1 RES1   0.0000
   273 H170      7.1530    2.4733   -6.2356   H         1 RES1   0.0000
   274 H171      6.7224    1.3248   -7.4904   H         1 RES1   0.0000
   275 H172      7.4010   -0.5397   -6.2115   H         1 RES1   0.0000
   276 H173      7.2448    0.3049   -4.6797   H         1 RES1   0.0000
   277 H174      9.1598    1.7903   -5.3325   H         1 RES1   0.0000
   278 H175      9.4391    0.7511   -6.7247   H         1 RES1   0.0000
   279 H176      9.8479   -1.1779   -5.2481   H         1 RES1   0.0000
   280 H177      9.3599   -0.2372   -3.8391   H         1 RES1   0.0000
   281 H178     11.2584    1.3327   -4.2497   H         1 RES1   0.0000
   282 H179     11.8035    0.3132   -5.5763   H         1 RES1   0.0000
   283 H180     12.1288   -1.5814   -4.0269   H         1 RES1   0.0000
   284 H181     11.4664   -0.6327   -2.6993   H         1 RES1   0.0000
   285 H182     14.0209    0.0433   -4.2310   H         1 RES1   0.0000
   286 H183     13.9420   -0.6580   -2.6135   H         1 RES1   0.0000
   287 H184     13.3533    0.9777   -2.8943   H         1 RES1   0.0000
   288 C93       0.2401   -9.7370   -3.3872   C.3       1 RES1   0.0000
   289 C94       0.9231   -8.9588   -4.5086   C.3       1 RES1   0.0000
   290 C95      -0.1218   -8.3471   -5.4470   C.3       1 RES1   0.0000
   291 C96       0.4127   -7.2828   -6.4176   C.3       1 RES1   0.0000
   292 C97      -0.6993   -6.3199   -6.8725   C.3       1 RES1   0.0000
   293 C98      -0.2550   -4.8541   -7.0323   C.3       1 RES1   0.0000
   294 C99      -1.3490   -3.8160   -6.6920   C.3       1 RES1   0.0000
   295 C100     -1.0423   -3.0091   -5.4123   C.3       1 RES1   0.0000
   296 C101     -2.3311   -2.5436   -4.7150   C.3       1 RES1   0.0000
   297 C102     -2.1615   -1.9095   -3.3088   C.3       1 RES1   0.0000
   298 N5       -2.7435   -2.3533   -1.9805   N.am      1 RES1   0.0000
   299 C103     -4.1181   -2.7377   -1.4107   C.3       1 RES1   0.0000
   300 C104     -5.6463   -2.1728   -1.2945   C.3       1 RES1   0.0000
   301 C105     -7.0502   -2.2089   -2.0317   C.3       1 RES1   0.0000
   302 C106     -7.7761   -1.1454   -2.9178   C.3       1 RES1   0.0000
   303 C107     -8.0534    0.3085   -2.4381   C.3       1 RES1   0.0000
   304 C108     -7.6937    1.3734   -3.5058   C.3       1 RES1   0.0000
   305 C109     -7.1428    2.6926   -2.9506   C.3       1 RES1   0.0000
   306 C110     -6.3868    3.5158   -4.0032   C.3       1 RES1   0.0000
   307 C111     -5.6023    4.6816   -3.3905   C.3       1 RES1   0.0000
   308 C112     -4.7854    5.4673   -4.4154   C.3       1 RES1   0.0000
   309 C113     -1.7595   -2.2880   -1.0587   C.2       1 RES1   0.0000
   310 O7       -0.6679   -1.7179   -1.3193   O.2       1 RES1   0.0000
   311 C114     -1.6353   -3.0499    0.2943   C.3       1 RES1   0.0000
   312 C115     -2.7817   -3.5413    1.1724   C.3       1 RES1   0.0000
   313 O8       -0.8209   -2.1798    1.1067   O.3       1 RES1   0.0000
   314 C116      0.0895   -2.8102    2.0269   C.3       1 RES1   0.0000
   315 C117     -0.0124   -1.9679    3.3000   C.3       1 RES1   0.0000
   316 C118      1.4921   -2.7734    1.3642   C.2       1 RES1   0.0000
   317 O9        1.6013   -1.9736    0.4128   O.2       1 RES1   0.0000
   318 N6        2.4790   -3.5996    1.7441   N.am      1 RES1   0.0000
   319 C119      3.6795   -3.5881    0.9068   C.3       1 RES1   0.0000
   320 C120      4.2102   -4.9437    0.4275   C.3       1 RES1   0.0000
   321 C121      3.2733   -5.8104   -0.4287   C.3       1 RES1   0.0000
   322 C122      2.4896   -6.9563    0.2402   C.3       1 RES1   0.0000
   323 C123      1.1132   -6.5464    0.7635   C.3       1 RES1   0.0000
   324 C124      0.2451   -7.7257    1.2078   C.3       1 RES1   0.0000
   325 C125     -1.2124   -7.2842    1.3821   C.3       1 RES1   0.0000
   326 C126     -2.0683   -8.2034    2.2613   C.3       1 RES1   0.0000
   327 C127     -2.2775   -9.6277    1.7439   C.3       1 RES1   0.0000
   328 C128     -3.0947   -9.7146    0.4608   C.3       1 RES1   0.0000
   329 C129      2.6783   -4.0666    3.1260   C.3       1 RES1   0.0000
   330 C130      3.1496   -5.5221    3.3518   C.3       1 RES1   0.0000
   331 C131      4.5572   -5.6608    3.9517   C.3       1 RES1   0.0000
   332 C132      5.0323   -7.1260    3.9778   C.3       1 RES1   0.0000
   333 C133      5.8677   -7.5299    2.7525   C.3       1 RES1   0.0000
   334 C134      5.6585   -8.9794    2.3046   C.3       1 RES1   0.0000
   335 C135      6.0200   -9.1589    0.8281   C.3       1 RES1   0.0000
   336 C136      5.6919  -10.5534    0.2912   C.3       1 RES1   0.0000
   337 C137      5.5440  -10.5509   -1.2294   C.3       1 RES1   0.0000
   338 C138      5.2564  -11.9417   -1.7751   C.3       1 RES1   0.0000
   339 H185      0.9666  -10.1357   -2.6836   H         1 RES1   0.0000
   340 H186     -0.3375  -10.5660   -3.7856   H         1 RES1   0.0000
   341 H187     -0.4416   -9.0843   -2.8438   H         1 RES1   0.0000
   342 H188      1.5972   -9.6226   -5.0509   H         1 RES1   0.0000
   343 H189      1.5276   -8.1603   -4.0700   H         1 RES1   0.0000
   344 H190     -0.8937   -7.8995   -4.8126   H         1 RES1   0.0000
   345 H191     -0.5959   -9.1440   -6.0209   H         1 RES1   0.0000
   346 H192      0.8529   -7.7717   -7.2854   H         1 RES1   0.0000
   347 H193      1.2171   -6.7259   -5.9286   H         1 RES1   0.0000
   348 H194     -1.5088   -6.3739   -6.1445   H         1 RES1   0.0000
   349 H195     -1.1176   -6.6607   -7.8185   H         1 RES1   0.0000
   350 H196      0.0770   -4.7063   -8.0600   H         1 RES1   0.0000
   351 H197      0.6147   -4.6668   -6.3990   H         1 RES1   0.0000
   352 H198     -2.3047   -4.3351   -6.5864   H         1 RES1   0.0000
   353 H199     -1.4641   -3.1178   -7.5218   H         1 RES1   0.0000
   354 H200     -0.4514   -3.6313   -4.7612   H         1 RES1   0.0000
   355 H201     -0.4368   -2.1407   -5.6776   H         1 RES1   0.0000
   356 H202     -3.0201   -3.3681   -4.6717   H         1 RES1   0.0000
   357 H203     -2.7288   -1.7964   -5.3999   H         1 RES1   0.0000
   358 H204     -2.3980   -0.8554   -3.3577   H         1 RES1   0.0000
   359 H205     -1.0904   -1.9813   -3.1254   H         1 RES1   0.0000
   360 H206     -3.8852   -2.5640   -0.3729   H         1 RES1   0.0000
   361 H207     -4.1725   -3.8087   -1.5642   H         1 RES1   0.0000
   362 H208     -5.5598   -1.1753   -0.9195   H         1 RES1   0.0000
   363 H209     -5.8951   -2.7945   -0.4270   H         1 RES1   0.0000
   364 H210     -7.7200   -2.3196   -1.1742   H         1 RES1   0.0000
   365 H211     -7.1759   -3.1191   -2.6027   H         1 RES1   0.0000
   366 H212     -8.7442   -1.6262   -3.0822   H         1 RES1   0.0000
   367 H213     -7.3434   -1.0762   -3.9095   H         1 RES1   0.0000
   368 H214     -7.5303    0.5183   -1.5040   H         1 RES1   0.0000
   369 H215     -9.1128    0.4024   -2.1911   H         1 RES1   0.0000
   370 H216     -8.5690    1.5921   -4.1123   H         1 RES1   0.0000
   371 H217     -6.9544    0.9588   -4.1904   H         1 RES1   0.0000
   372 H218     -6.4465    2.4883   -2.1328   H         1 RES1   0.0000
   373 H219     -7.9544    3.2846   -2.5323   H         1 RES1   0.0000
   374 H220     -7.0805    3.8959   -4.7539   H         1 RES1   0.0000
   375 H221     -5.6728    2.8670   -4.5199   H         1 RES1   0.0000
   376 H222     -4.9239    4.2862   -2.6227   H         1 RES1   0.0000
   377 H223     -6.2950    5.3632   -2.8948   H         1 RES1   0.0000
   378 H224     -3.9969    4.8577   -4.8555   H         1 RES1   0.0000
   379 H225     -4.3311    6.3395   -3.9499   H         1 RES1   0.0000
   380 H226     -5.4170    5.8263   -5.2216   H         1 RES1   0.0000
   381 H227     -1.0331   -3.9196   -0.0279   H         1 RES1   0.0000
   382 H228     -3.3371   -2.6975    1.5777   H         1 RES1   0.0000
   383 H229     -3.4402   -4.2398    0.6708   H         1 RES1   0.0000
   384 H230     -2.3527   -4.0803    2.0150   H         1 RES1   0.0000
   385 H231     -0.2136   -3.8479    2.2155   H         1 RES1   0.0000
   386 H232      0.0227   -0.9097    3.0179   H         1 RES1   0.0000
   387 H233     -0.9680   -2.1510    3.7869   H         1 RES1   0.0000
   388 H234      0.7892   -2.1779    4.0021   H         1 RES1   0.0000
   389 H235      4.4776   -3.0898    1.4690   H         1 RES1   0.0000
   390 H236      3.4405   -2.9855    0.0279   H         1 RES1   0.0000
   391 H237      4.5950   -5.5141    1.2634   H         1 RES1   0.0000
   392 H238      5.0761   -4.6888   -0.1903   H         1 RES1   0.0000
   393 H239      3.9018   -6.2684   -1.1919   H         1 RES1   0.0000
   394 H240      2.5718   -5.1530   -0.9322   H         1 RES1   0.0000
   395 H241      3.0906   -7.4281    1.0193   H         1 RES1   0.0000
   396 H242      2.3273   -7.7349   -0.5097   H         1 RES1   0.0000
   397 H243      0.5934   -6.0260   -0.0394   H         1 RES1   0.0000
   398 H244      1.2036   -5.8453    1.5938   H         1 RES1   0.0000
   399 H245      0.6258   -8.1211    2.1519   H         1 RES1   0.0000
   400 H246      0.2994   -8.5271    0.4692   H         1 RES1   0.0000
   401 H247     -1.6859   -7.1695    0.4026   H         1 RES1   0.0000
   402 H248     -1.2162   -6.2927    1.8540   H         1 RES1   0.0000
   403 H249     -3.0493   -7.7338    2.3903   H         1 RES1   0.0000
   404 H250     -1.6093   -8.2651    3.2521   H         1 RES1   0.0000
   405 H251     -2.8072  -10.1765    2.5238   H         1 RES1   0.0000
   406 H252     -1.3115  -10.1121    1.5974   H         1 RES1   0.0000
   407 H253     -4.0508   -9.2053    0.5698   H         1 RES1   0.0000
   408 H254     -3.3051  -10.7559    0.2338   H         1 RES1   0.0000
   409 H255     -2.5585   -9.2837   -0.3817   H         1 RES1   0.0000
   410 H256      1.7501   -3.9208    3.6714   H         1 RES1   0.0000
   411 H257      3.4334   -3.4016    3.5619   H         1 RES1   0.0000
   412 H258      3.1023   -6.0765    2.4257   H         1 RES1   0.0000
   413 H259      2.4517   -6.0033    4.0401   H         1 RES1   0.0000
   414 H260      4.5424   -5.2603    4.9657   H         1 RES1   0.0000
   415 H261      5.2811   -5.0725    3.3875   H         1 RES1   0.0000
   416 H262      4.1650   -7.7849    4.0539   H         1 RES1   0.0000
   417 H263      5.6283   -7.2895    4.8750   H         1 RES1   0.0000
   418 H264      6.9246   -7.3649    2.9617   H         1 RES1   0.0000
   419 H265      5.6178   -6.8946    1.9030   H         1 RES1   0.0000
   420 H266      4.6074   -9.2531    2.4321   H         1 RES1   0.0000
   421 H267      6.2443   -9.6613    2.9213   H         1 RES1   0.0000
   422 H268      7.0793   -8.9452    0.6748   H         1 RES1   0.0000
   423 H269      5.4524   -8.4269    0.2439   H         1 RES1   0.0000
   424 H270      4.7527  -10.8960    0.7322   H         1 RES1   0.0000
   425 H271      6.4668  -11.2617    0.5869   H         1 RES1   0.0000
   426 H272      6.4543  -10.1597   -1.6865   H         1 RES1   0.0000
   427 H273      4.7232   -9.8802   -1.4992   H         1 RES1   0.0000
   428 H274      6.0975  -12.6064   -1.6012   H         1 RES1   0.0000
   429 H275      5.0667  -11.9018   -2.8440   H         1 RES1   0.0000
   430 H276      4.3810  -12.3659   -1.2900   H         1 RES1   0.0000
@<TRIPOS>BOND
     1     1    24    1
     2     1    27    1
     3     1    31    1
     4     1   167    1
     5     1   170    1
     6     1   174    1
     7     1   310    1
     8     1   313    1
     9     1   317    1
    10     2     3    1
    11     2    53    1
    12     2    54    1
    13     2    55    1
    14     3     4    1
    15     3    56    1
    16     3    57    1
    17     4     5    1
    18     4    58    1
    19     4    59    1
    20     5     6    1
    21     5    60    1
    22     5    61    1
    23     6     7    1
    24     6    62    1
    25     6    63    1
    26     7     8    1
    27     7    64    1
    28     7    65    1
    29     8     9    1
    30     8    66    1
    31     8    67    1
    32     9    10    1
    33     9    68    1
    34     9    69    1
    35    10    11    1
    36    10    70    1
    37    10    71    1
    38    11    12    1
    39    11    72    1
    40    11    73    1
    41    12    13    1
    42    12    23    1
    43    13    14    1
    44    13    74    1
    45    13    75    1
    46    14    15    1
    47    14    76    1
    48    14    77    1
    49    15    16    1
    50    15    78    1
    51    15    79    1
    52    16    17    1
    53    16    80    1
    54    16    81    1
    55    17    18    1
    56    17    82    1
    57    17    83    1
    58    18    19    1
    59    18    84    1
    60    18    85    1
    61    19    20    1
    62    19    86    1
    63    19    87    1
    64    20    21    1
    65    20    88    1
    66    20    89    1
    67    21    22    1
    68    21    90    1
    69    21    91    1
    70    22    92    1
    71    22    93    1
    72    22    94    1
    73    23    24    2
    74    23    25    1
    75    25    26    1
    76    25    27    1
    77    25    95    1
    78    26    96    1
    79    26    97    1
    80    26    98    1
    81    27    28    1
    82    28    29    1
    83    28    30    1
    84    28    99    1
    85    29   100    1
    86    29   101    1
    87    29   102    1
    88    30    31    2
    89    30    32    1
    90    32    33    1
    91    32    43    1
    92    33    34    1
    93    33   103    1
    94    33   104    1
    95    34    35    1
    96    34   105    1
    97    34   106    1
    98    35    36    1
    99    35   107    1
   100    35   108    1
   101    36    37    1
   102    36   109    1
   103    36   110    1
   104    37    38    1
   105    37   111    1
   106    37   112    1
   107    38    39    1
   108    38   113    1
   109    38   114    1
   110    39    40    1
   111    39   115    1
   112    39   116    1
   113    40    41    1
   114    40   117    1
   115    40   118    1
   116    41    42    1
   117    41   119    1
   118    41   120    1
   119    42   121    1
   120    42   122    1
   121    42   123    1
   122    43    44    1
   123    43   124    1
   124    43   125    1
   125    44    45    1
   126    44   126    1
   127    44   127    1
   128    45    46    1
   129    45   128    1
   130    45   129    1
   131    46    47    1
   132    46   130    1
   133    46   131    1
   134    47    48    1
   135    47   132    1
   136    47   133    1
   137    48    49    1
   138    48   134    1
   139    48   135    1
   140    49    50    1
   141    49   136    1
   142    49   137    1
   143    50    51    1
   144    50   138    1
   145    50   139    1
   146    51    52    1
   147    51   140    1
   148    51   141    1
   149    52   142    1
   150    52   143    1
   151    52   144    1
   152   145   146    1
   153   145   196    1
   154   145   197    1
   155   145   198    1
   156   146   147    1
   157   146   199    1
   158   146   200    1
   159   147   148    1
   160   147   201    1
   161   147   202    1
   162   148   149    1
   163   148   203    1
   164   148   204    1
   165   149   150    1
   166   149   205    1
   167   149   206    1
   168   150   151    1
   169   150   207    1
   170   150   208    1
   171   151   152    1
   172   151   209    1
   173   151   210    1
   174   152   153    1
   175   152   211    1
   176   152   212    1
   177   153   154    1
   178   153   213    1
   179   153   214    1
   180   154   155    1
   181   154   215    1
   182   154   216    1
   183   155   156    1
   184   155   166    1
   185   156   157    1
   186   156   217    1
   187   156   218    1
   188   157   158    1
   189   157   219    1
   190   157   220    1
   191   158   159    1
   192   158   221    1
   193   158   222    1
   194   159   160    1
   195   159   223    1
   196   159   224    1
   197   160   161    1
   198   160   225    1
   199   160   226    1
   200   161   162    1
   201   161   227    1
   202   161   228    1
   203   162   163    1
   204   162   229    1
   205   162   230    1
   206   163   164    1
   207   163   231    1
   208   163   232    1
   209   164   165    1
   210   164   233    1
   211   164   234    1
   212   165   235    1
   213   165   236    1
   214   165   237    1
   215   166   167    2
   216   166   168    1
   217   168   169    1
   218   168   170    1
   219   168   238    1
   220   169   239    1
   221   169   240    1
   222   169   241    1
   223   170   171    1
   224   171   172    1
   225   171   173    1
   226   171   242    1
   227   172   243    1
   228   172   244    1
   229   172   245    1
   230   173   174    2
   231   173   175    1
   232   175   176    1
   233   175   186    1
   234   176   177    1
   235   176   246    1
   236   176   247    1
   237   177   178    1
   238   177   248    1
   239   177   249    1
   240   178   179    1
   241   178   250    1
   242   178   251    1
   243   179   180    1
   244   179   252    1
   245   179   253    1
   246   180   181    1
   247   180   254    1
   248   180   255    1
   249   181   182    1
   250   181   256    1
   251   181   257    1
   252   182   183    1
   253   182   258    1
   254   182   259    1
   255   183   184    1
   256   183   260    1
   257   183   261    1
   258   184   185    1
   259   184   262    1
   260   184   263    1
   261   185   264    1
   262   185   265    1
   263   185   266    1
   264   186   187    1
   265   186   267    1
   266   186   268    1
   267   187   188    1
   268   187   269    1
   269   187   270    1
   270   188   189    1
   271   188   271    1
   272   188   272    1
   273   189   190    1
   274   189   273    1
   275   189   274    1
   276   190   191    1
   277   190   275    1
   278   190   276    1
   279   191   192    1
   280   191   277    1
   281   191   278    1
   282   192   193    1
   283   192   279    1
   284   192   280    1
   285   193   194    1
   286   193   281    1
   287   193   282    1
   288   194   195    1
   289   194   283    1
   290   194   284    1
   291   195   285    1
   292   195   286    1
   293   195   287    1
   294   288   289    1
   295   288   339    1
   296   288   340    1
   297   288   341    1
   298   289   290    1
   299   289   342    1
   300   289   343    1
   301   290   291    1
   302   290   344    1
   303   290   345    1
   304   291   292    1
   305   291   346    1
   306   291   347    1
   307   292   293    1
   308   292   348    1
   309   292   349    1
   310   293   294    1
   311   293   350    1
   312   293   351    1
   313   294   295    1
   314   294   352    1
   315   294   353    1
   316   295   296    1
   317   295   354    1
   318   295   355    1
   319   296   297    1
   320   296   356    1
   321   296   357    1
   322   297   298    1
   323   297   358    1
   324   297   359    1
   325   298   299    1
   326   298   309    1
   327   299   300    1
   328   299   360    1
   329   299   361    1
   330   300   301    1
   331   300   362    1
   332   300   363    1
   333   301   302    1
   334   301   364    1
   335   301   365    1
   336   302   303    1
   337   302   366    1
   338   302   367    1
   339   303   304    1
   340   303   368    1
   341   303   369    1
   342   304   305    1
   343   304   370    1
   344   304   371    1
   345   305   306    1
   346   305   372    1
   347   305   373    1
   348   306   307    1
   349   306   374    1
   350   306   375    1
   351   307   308    1
   352   307   376    1
   353   307   377    1
   354   308   378    1
   355   308   379    1
   356   308   380    1
   357   309   310    2
   358   309   311    1
   359   311   312    1
   360   311   313    1
   361   311   381    1
   362   312   382    1
   363   312   383    1
   364   312   384    1
   365   313   314    1
   366   314   315    1
   367   314   316    1
   368   314   385    1
   369   315   386    1
   370   315   387    1
   371   315   388    1
   372   316   317    2
   373   316   318    1
   374   318   319    1
   375   318   329    1
   376   319   320    1
   377   319   389    1
   378   319   390    1
   379   320   321    1
   380   320   391    1
   381   320   392    1
   382   321   322    1
   383   321   393    1
   384   321   394    1
   385   322   323    1
   386   322   395    1
   387   322   396    1
   388   323   324    1
   389   323   397    1
   390   323   398    1
   391   324   325    1
   392   324   399    1
   393   324   400    1
   394   325   326    1
   395   325   401    1
   396   325   402    1
   397   326   327    1
   398   326   403    1
   399   326   404    1
   400   327   328    1
   401   327   405    1
   402   327   406    1
   403   328   407    1
   404   328   408    1
   405   328   409    1
   406   329   330    1
   407   329   410    1
   408   329   411    1
   409   330   331    1
   410   330   412    1
   411   330   413    1
   412   331   332    1
   413   331   414    1
   414   331   415    1
   415   332   333    1
   416   332   416    1
   417   332   417    1
   418   333   334    1
   419   333   418    1
   420   333   419    1
   421   334   335    1
   422   334   420    1
   423   334   421    1
   424   335   336    1
   425   335   422    1
   426   335   423    1
   427   336   337    1
   428   336   424    1
   429   336   425    1
   430   337   338    1
   431   337   426    1
   432   337   427    1
   433   338   428    1
   434   338   429    1
   435   338   430    1
@<TRIPOS>SUBSTRUCTURE
     1 RES1      430 GROUP             0 ****  ****    0  
