@<TRIPOS>MOLECULE
am_c3_9H2O_c0_0_nunpairedes_0_charge_3 Charge: 3 Unpaired_Electrons: 5 XTB_Unpaired_Electrons: 0 XTB_Charge: 3
   268   273     1     0     0
SMALL
NoCharges
****
Generated from Architector

@<TRIPOS>ATOM
     1 Sm1      -0.1123    0.2093   -0.1667   Sm        1 RES1   0.0000
     2 C1        5.3124    3.1643   -1.4577   C.3       1 RES1   0.0000
     3 C2        4.4652    4.3617   -1.8576   C.3       1 RES1   0.0000
     4 C3        4.2068    4.4079   -3.3628   C.3       1 RES1   0.0000
     5 C4        3.4228    3.2203   -3.9300   C.3       1 RES1   0.0000
     6 C5        2.0020    3.0258   -3.3815   C.3       1 RES1   0.0000
     7 C6        1.1341    4.2353   -3.7084   C.3       1 RES1   0.0000
     8 C7       -0.3890    4.1093   -3.5822   C.3       1 RES1   0.0000
     9 C8       -0.9462    2.9033   -4.3272   C.3       1 RES1   0.0000
    10 N1       -0.9548    4.2210   -2.2082   N.am      1 RES1   0.0000
    11 C9       -1.5820    5.5317   -1.9723   C.3       1 RES1   0.0000
    12 C10      -0.6584    6.7573   -2.0972   C.3       1 RES1   0.0000
    13 C11       0.1780    7.0496   -0.8509   C.3       1 RES1   0.0000
    14 C12       1.4554    6.2310   -0.7392   C.3       1 RES1   0.0000
    15 C13      -1.1548    3.1435   -1.4475   C.2       1 RES1   0.0000
    16 O1       -0.5276    2.0695   -1.5938   O.2       1 RES1   0.0000
    17 C14      -2.3151    3.1309   -0.4347   C.3       1 RES1   0.0000
    18 O2       -2.0540    2.1785    0.5873   O.3       1 RES1   0.0000
    19 C15      -3.1817    1.8140    1.3841   C.3       1 RES1   0.0000
    20 C16      -3.2801    0.2883    1.3249   C.2       1 RES1   0.0000
    21 O3       -2.2549   -0.2690    0.8601   O.2       1 RES1   0.0000
    22 N2       -4.3375   -0.4123    1.7220   N.am      1 RES1   0.0000
    23 C17      -4.2211   -1.8671    1.4974   C.3       1 RES1   0.0000
    24 C18      -4.9237   -2.8130    2.4785   C.3       1 RES1   0.0000
    25 C19      -4.2558   -4.1949    2.4872   C.3       1 RES1   0.0000
    26 C20      -5.0249   -5.1823    3.3608   C.3       1 RES1   0.0000
    27 C21      -5.5639    0.0319    2.4142   C.3       1 RES1   0.0000
    28 C22      -5.2683    0.3047    3.8902   C.3       1 RES1   0.0000
    29 C23      -6.3607    1.1895    1.8077   C.3       1 RES1   0.0000
    30 C24      -6.8939    0.9155    0.3987   C.3       1 RES1   0.0000
    31 C25      -8.2070    0.1121    0.3810   C.3       1 RES1   0.0000
    32 C26      -9.1922    0.6325   -0.6721   C.3       1 RES1   0.0000
    33 C27      -8.8229    0.2539   -2.1091   C.3       1 RES1   0.0000
    34 C28      -9.3292   -1.1380   -2.4739   C.3       1 RES1   0.0000
    35 H1        5.5669    3.1998   -0.4000   H         1 RES1   0.0000
    36 H2        6.2370    3.1478   -2.0288   H         1 RES1   0.0000
    37 H3        4.7625    2.2477   -1.6566   H         1 RES1   0.0000
    38 H4        4.9866    5.2748   -1.5726   H         1 RES1   0.0000
    39 H5        3.5235    4.3342   -1.3083   H         1 RES1   0.0000
    40 H6        5.1731    4.4409   -3.8702   H         1 RES1   0.0000
    41 H7        3.6911    5.3362   -3.6096   H         1 RES1   0.0000
    42 H8        3.9942    2.3059   -3.7683   H         1 RES1   0.0000
    43 H9        3.3571    3.3560   -5.0124   H         1 RES1   0.0000
    44 H10       2.0172    2.8476   -2.3025   H         1 RES1   0.0000
    45 H11       1.5858    2.1329   -3.8500   H         1 RES1   0.0000
    46 H12       1.3183    4.5013   -4.7503   H         1 RES1   0.0000
    47 H13       1.4608    5.0729   -3.1026   H         1 RES1   0.0000
    48 H14      -0.7993    4.9902   -4.0853   H         1 RES1   0.0000
    49 H15      -0.5595    1.9667   -3.9408   H         1 RES1   0.0000
    50 H16      -0.6774    2.9966   -5.3774   H         1 RES1   0.0000
    51 H17      -2.0294    2.8835   -4.2463   H         1 RES1   0.0000
    52 H18      -2.0015    5.5710   -0.9687   H         1 RES1   0.0000
    53 H19      -2.4062    5.6380   -2.6886   H         1 RES1   0.0000
    54 H20      -1.3227    7.6085   -2.2521   H         1 RES1   0.0000
    55 H21      -0.0161    6.6923   -2.9721   H         1 RES1   0.0000
    56 H22      -0.4397    6.8849    0.0333   H         1 RES1   0.0000
    57 H23       0.4555    8.1027   -0.8627   H         1 RES1   0.0000
    58 H24       1.2333    5.1668   -0.6872   H         1 RES1   0.0000
    59 H25       2.0081    6.5209    0.1520   H         1 RES1   0.0000
    60 H26       2.1035    6.4200   -1.5913   H         1 RES1   0.0000
    61 H27      -3.1835    2.8041   -1.0301   H         1 RES1   0.0000
    62 H28      -2.5504    4.0987    0.0179   H         1 RES1   0.0000
    63 H29      -4.0854    2.2995    1.0180   H         1 RES1   0.0000
    64 H30      -2.9879    2.1304    2.4171   H         1 RES1   0.0000
    65 H31      -3.1526   -2.0798    1.5069   H         1 RES1   0.0000
    66 H32      -4.5880   -2.0637    0.4866   H         1 RES1   0.0000
    67 H33      -5.9720   -2.9531    2.2105   H         1 RES1   0.0000
    68 H34      -4.8968   -2.4301    3.4962   H         1 RES1   0.0000
    69 H35      -3.2365   -4.1099    2.8722   H         1 RES1   0.0000
    70 H36      -4.1998   -4.5828    1.4666   H         1 RES1   0.0000
    71 H37      -5.1382   -4.8089    4.3754   H         1 RES1   0.0000
    72 H38      -4.4967   -6.1313    3.4207   H         1 RES1   0.0000
    73 H39      -6.0134   -5.3621    2.9501   H         1 RES1   0.0000
    74 H40      -6.2256   -0.8331    2.3564   H         1 RES1   0.0000
    75 H41      -4.7845    1.2680    4.0343   H         1 RES1   0.0000
    76 H42      -4.6357   -0.4728    4.3023   H         1 RES1   0.0000
    77 H43      -6.1980    0.3097    4.4541   H         1 RES1   0.0000
    78 H44      -5.7936    2.1176    1.8345   H         1 RES1   0.0000
    79 H45      -7.2128    1.3537    2.4734   H         1 RES1   0.0000
    80 H46      -6.1228    0.4101   -0.1864   H         1 RES1   0.0000
    81 H47      -7.0887    1.8765   -0.0800   H         1 RES1   0.0000
    82 H48      -8.6938    0.1945    1.3546   H         1 RES1   0.0000
    83 H49      -8.0141   -0.9483    0.2098   H         1 RES1   0.0000
    84 H50      -9.2570    1.7185   -0.5779   H         1 RES1   0.0000
    85 H51     -10.1851    0.2357   -0.4585   H         1 RES1   0.0000
    86 H52      -7.7390    0.3080   -2.2353   H         1 RES1   0.0000
    87 H53      -9.2736    0.9701   -2.7980   H         1 RES1   0.0000
    88 H54      -8.9567   -1.8880   -1.7786   H         1 RES1   0.0000
    89 H55      -9.0212   -1.4182   -3.4798   H         1 RES1   0.0000
    90 H56     -10.4165   -1.1530   -2.4416   H         1 RES1   0.0000
    91 C29       6.3406   -5.6816    3.3644   C.3       1 RES1   0.0000
    92 C30       7.3328   -5.1688    2.3252   C.3       1 RES1   0.0000
    93 C31       6.7342   -4.1294    1.3688   C.3       1 RES1   0.0000
    94 C32       6.0135   -4.8011    0.1964   C.3       1 RES1   0.0000
    95 C33       5.1426   -3.8667   -0.6501   C.3       1 RES1   0.0000
    96 C34       5.9473   -2.7338   -1.2988   C.3       1 RES1   0.0000
    97 C35       5.4091   -1.3323   -0.9808   C.3       1 RES1   0.0000
    98 C36       6.3382   -0.2914   -1.6023   C.3       1 RES1   0.0000
    99 N3        4.0073   -1.1256   -1.3933   N.am      1 RES1   0.0000
   100 C37       3.5526   -1.7069   -2.6616   C.3       1 RES1   0.0000
   101 C38       3.5432   -0.6842   -3.7972   C.3       1 RES1   0.0000
   102 C39       2.9977   -1.2728   -5.0999   C.3       1 RES1   0.0000
   103 C40       3.9767   -2.2092   -5.7969   C.3       1 RES1   0.0000
   104 C41       3.1181   -0.3775   -0.7503   C.2       1 RES1   0.0000
   105 O4        1.9586   -0.2133   -1.2005   O.2       1 RES1   0.0000
   106 C42       3.4602    0.3063    0.5852   C.3       1 RES1   0.0000
   107 O5        2.2116    0.6073    1.1981   O.3       1 RES1   0.0000
   108 C43       2.2455    1.4072    2.3806   C.3       1 RES1   0.0000
   109 C44       1.1774    2.4946    2.1738   C.2       1 RES1   0.0000
   110 O6        0.4398    2.3063    1.1858   O.2       1 RES1   0.0000
   111 N4        1.0922    3.5839    2.9382   N.am      1 RES1   0.0000
   112 C45       0.4756    4.7581    2.2888   C.3       1 RES1   0.0000
   113 C46      -0.5633    5.5552    3.0663   C.3       1 RES1   0.0000
   114 C47      -1.9143    4.8576    3.2050   C.3       1 RES1   0.0000
   115 C48      -2.8088    5.6179    4.1787   C.3       1 RES1   0.0000
   116 C49       1.6896    3.8971    4.2545   C.3       1 RES1   0.0000
   117 C50       3.0415    3.2846    4.5916   C.3       1 RES1   0.0000
   118 C51       0.7136    3.7155    5.4454   C.3       1 RES1   0.0000
   119 C52       0.4941    2.3483    6.1020   C.3       1 RES1   0.0000
   120 C53      -0.5713    1.4664    5.4488   C.3       1 RES1   0.0000
   121 C54      -1.0800    0.4343    6.4599   C.3       1 RES1   0.0000
   122 C55      -2.2379   -0.4283    5.9621   C.3       1 RES1   0.0000
   123 C56      -1.8323   -1.3995    4.8576   C.3       1 RES1   0.0000
   124 H57       6.7764   -6.5120    3.9114   H         1 RES1   0.0000
   125 H58       5.4210   -6.0320    2.8988   H         1 RES1   0.0000
   126 H59       6.0950   -4.9005    4.0821   H         1 RES1   0.0000
   127 H60       7.7073   -6.0068    1.7339   H         1 RES1   0.0000
   128 H61       8.1841   -4.7297    2.8474   H         1 RES1   0.0000
   129 H62       7.5442   -3.5024    0.9925   H         1 RES1   0.0000
   130 H63       6.0463   -3.4769    1.9130   H         1 RES1   0.0000
   131 H64       5.3894   -5.6121    0.5827   H         1 RES1   0.0000
   132 H65       6.7622   -5.2557   -0.4550   H         1 RES1   0.0000
   133 H66       4.3498   -3.4345   -0.0363   H         1 RES1   0.0000
   134 H67       4.6595   -4.4725   -1.4168   H         1 RES1   0.0000
   135 H68       6.0467   -2.8819   -2.3739   H         1 RES1   0.0000
   136 H69       6.9626   -2.7565   -0.9074   H         1 RES1   0.0000
   137 H70       5.4433   -1.2108    0.1057   H         1 RES1   0.0000
   138 H71       6.3678   -0.3914   -2.6828   H         1 RES1   0.0000
   139 H72       7.3468   -0.4351   -1.2265   H         1 RES1   0.0000
   140 H73       6.0330    0.7144   -1.3444   H         1 RES1   0.0000
   141 H74       2.5377   -2.0896   -2.5122   H         1 RES1   0.0000
   142 H75       4.1940   -2.5440   -2.9194   H         1 RES1   0.0000
   143 H76       4.5573   -0.3218   -3.9651   H         1 RES1   0.0000
   144 H77       2.9178    0.1555   -3.4892   H         1 RES1   0.0000
   145 H78       2.7701   -0.4472   -5.7753   H         1 RES1   0.0000
   146 H79       2.0606   -1.7950   -4.8961   H         1 RES1   0.0000
   147 H80       4.8818   -1.6719   -6.0647   H         1 RES1   0.0000
   148 H81       3.5357   -2.5973   -6.7105   H         1 RES1   0.0000
   149 H82       4.2483   -3.0523   -5.1672   H         1 RES1   0.0000
   150 H83       4.0481    1.2218    0.4068   H         1 RES1   0.0000
   151 H84       4.0390   -0.3624    1.2351   H         1 RES1   0.0000
   152 H85       3.2329    1.8491    2.5229   H         1 RES1   0.0000
   153 H86       1.9894    0.7887    3.2500   H         1 RES1   0.0000
   154 H87       0.0395    4.3969    1.3565   H         1 RES1   0.0000
   155 H88       1.3086    5.4292    2.0565   H         1 RES1   0.0000
   156 H89      -0.7035    6.4985    2.5355   H         1 RES1   0.0000
   157 H90      -0.1912    5.8239    4.0526   H         1 RES1   0.0000
   158 H91      -1.7703    3.8320    3.5611   H         1 RES1   0.0000
   159 H92      -2.4035    4.8094    2.2291   H         1 RES1   0.0000
   160 H93      -2.3446    5.6630    5.1615   H         1 RES1   0.0000
   161 H94      -3.7779    5.1344    4.2864   H         1 RES1   0.0000
   162 H95      -2.9650    6.6378    3.8319   H         1 RES1   0.0000
   163 H96       1.8558    4.9779    4.1906   H         1 RES1   0.0000
   164 H97       2.9829    2.2128    4.7451   H         1 RES1   0.0000
   165 H98       3.3697    3.7383    5.5240   H         1 RES1   0.0000
   166 H99       3.7967    3.5248    3.8494   H         1 RES1   0.0000
   167 H100     -0.2660    4.1067    5.1857   H         1 RES1   0.0000
   168 H101      1.1213    4.3628    6.2238   H         1 RES1   0.0000
   169 H102      0.1431    2.5646    7.1151   H         1 RES1   0.0000
   170 H103      1.4269    1.7976    6.2146   H         1 RES1   0.0000
   171 H104     -0.1789    0.9758    4.5523   H         1 RES1   0.0000
   172 H105     -1.4108    2.0959    5.1423   H         1 RES1   0.0000
   173 H106     -1.4265    0.9730    7.3449   H         1 RES1   0.0000
   174 H107     -0.2556   -0.2120    6.7680   H         1 RES1   0.0000
   175 H108     -3.0444    0.2216    5.6200   H         1 RES1   0.0000
   176 H109     -2.6197   -1.0049    6.8071   H         1 RES1   0.0000
   177 H110     -1.5251   -0.8698    3.9530   H         1 RES1   0.0000
   178 H111     -2.6604   -2.0617    4.6083   H         1 RES1   0.0000
   179 H112     -1.0028   -2.0106    5.2073   H         1 RES1   0.0000
   180 C57      -4.8985    3.6644   -3.0983   C.3       1 RES1   0.0000
   181 C58      -5.2336    2.2093   -2.7917   C.3       1 RES1   0.0000
   182 C59      -5.4245    1.3562   -4.0440   C.3       1 RES1   0.0000
   183 C60      -4.1651    1.1843   -4.8900   C.3       1 RES1   0.0000
   184 C61      -3.0895    0.2566   -4.3045   C.3       1 RES1   0.0000
   185 C62      -3.5237   -1.2001   -4.4490   C.3       1 RES1   0.0000
   186 C63      -2.4888   -2.3118   -4.1941   C.3       1 RES1   0.0000
   187 C64      -1.0861   -1.9937   -4.6968   C.3       1 RES1   0.0000
   188 N5       -2.4388   -2.8418   -2.8046   N.am      1 RES1   0.0000
   189 C65      -3.1075   -4.1442   -2.6821   C.3       1 RES1   0.0000
   190 C66      -4.5889   -4.1832   -3.1070   C.3       1 RES1   0.0000
   191 C67      -5.5942   -3.8292   -2.0073   C.3       1 RES1   0.0000
   192 C68      -5.8625   -2.3403   -1.8321   C.3       1 RES1   0.0000
   193 C69      -1.6415   -2.3164   -1.8754   C.2       1 RES1   0.0000
   194 O7       -1.2157   -1.1399   -1.8993   O.2       1 RES1   0.0000
   195 C70      -1.0975   -3.2065   -0.7445   C.3       1 RES1   0.0000
   196 O8       -1.1034   -2.4368    0.4449   O.3       1 RES1   0.0000
   197 C71      -0.6013   -3.0999    1.5979   C.3       1 RES1   0.0000
   198 C72       0.9003   -2.8393    1.6792   C.2       1 RES1   0.0000
   199 O9        1.2937   -1.8262    1.0666   O.2       1 RES1   0.0000
   200 N6        1.6998   -3.6436    2.3701   N.am      1 RES1   0.0000
   201 C73       3.1284   -3.3403    2.4060   C.3       1 RES1   0.0000
   202 C74       3.7050   -2.9117    3.7580   C.3       1 RES1   0.0000
   203 C75       3.3057   -1.5061    4.1945   C.3       1 RES1   0.0000
   204 C76       4.1537   -1.0032    5.3609   C.3       1 RES1   0.0000
   205 C77       1.3225   -4.8431    3.1306   C.3       1 RES1   0.0000
   206 C78       0.5272   -4.4590    4.3781   C.3       1 RES1   0.0000
   207 C79       0.6069   -5.9782    2.3635   C.3       1 RES1   0.0000
   208 C80       0.8197   -6.1058    0.8522   C.3       1 RES1   0.0000
   209 C81       2.1753   -6.6615    0.4095   C.3       1 RES1   0.0000
   210 C82       2.0829   -7.3862   -0.9417   C.3       1 RES1   0.0000
   211 C83       1.3735   -6.6237   -2.0646   C.3       1 RES1   0.0000
   212 C84       2.0486   -5.3138   -2.4570   C.3       1 RES1   0.0000
   213 H113     -4.8937    4.2616   -2.1875   H         1 RES1   0.0000
   214 H114     -5.6423    4.0787   -3.7717   H         1 RES1   0.0000
   215 H115     -3.9241    3.7654   -3.5694   H         1 RES1   0.0000
   216 H116     -6.1641    2.1877   -2.2229   H         1 RES1   0.0000
   217 H117     -4.4528    1.7645   -2.1664   H         1 RES1   0.0000
   218 H118     -6.1918    1.8266   -4.6587   H         1 RES1   0.0000
   219 H119     -5.8044    0.3776   -3.7501   H         1 RES1   0.0000
   220 H120     -3.7412    2.1685   -5.0824   H         1 RES1   0.0000
   221 H121     -4.4564    0.7850   -5.8627   H         1 RES1   0.0000
   222 H122     -2.8789    0.4837   -3.2554   H         1 RES1   0.0000
   223 H123     -2.1725    0.4140   -4.8705   H         1 RES1   0.0000
   224 H124     -3.8555   -1.3391   -5.4807   H         1 RES1   0.0000
   225 H125     -4.3830   -1.3690   -3.8055   H         1 RES1   0.0000
   226 H126     -2.8392   -3.1740   -4.7713   H         1 RES1   0.0000
   227 H127     -0.6064   -1.2229   -4.0987   H         1 RES1   0.0000
   228 H128     -1.1596   -1.6587   -5.7274   H         1 RES1   0.0000
   229 H129     -0.4707   -2.8915   -4.6776   H         1 RES1   0.0000
   230 H130     -3.0756   -4.4959   -1.6515   H         1 RES1   0.0000
   231 H131     -2.5456   -4.8544   -3.3015   H         1 RES1   0.0000
   232 H132     -4.7810   -5.2144   -3.4061   H         1 RES1   0.0000
   233 H133     -4.7773   -3.5652   -3.9812   H         1 RES1   0.0000
   234 H134     -5.2575   -4.2607   -1.0622   H         1 RES1   0.0000
   235 H135     -6.5413   -4.3085   -2.2553   H         1 RES1   0.0000
   236 H136     -4.9460   -1.7864   -1.6279   H         1 RES1   0.0000
   237 H137     -6.5562   -2.1963   -1.0067   H         1 RES1   0.0000
   238 H138     -6.3354   -1.9318   -2.7225   H         1 RES1   0.0000
   239 H139     -0.0681   -3.4653   -1.0458   H         1 RES1   0.0000
   240 H140     -1.6581   -4.1297   -0.5876   H         1 RES1   0.0000
   241 H141     -0.8694   -4.1550    1.5999   H         1 RES1   0.0000
   242 H142     -1.0721   -2.6117    2.4615   H         1 RES1   0.0000
   243 H143      3.2933   -2.5495    1.6738   H         1 RES1   0.0000
   244 H144      3.6503   -4.2410    2.0798   H         1 RES1   0.0000
   245 H145      4.7913   -2.9404    3.6507   H         1 RES1   0.0000
   246 H146      3.4451   -3.6248    4.5379   H         1 RES1   0.0000
   247 H147      2.2499   -1.4855    4.4813   H         1 RES1   0.0000
   248 H148      3.4418   -0.8366    3.3436   H         1 RES1   0.0000
   249 H149      4.0420   -1.6477    6.2293   H         1 RES1   0.0000
   250 H150      3.8467    0.0009    5.6492   H         1 RES1   0.0000
   251 H151      5.2104   -0.9712    5.0999   H         1 RES1   0.0000
   252 H152      2.2799   -5.2444    3.4686   H         1 RES1   0.0000
   253 H153     -0.4778   -4.1329    4.1275   H         1 RES1   0.0000
   254 H154      1.0327   -3.6643    4.9197   H         1 RES1   0.0000
   255 H155      0.4470   -5.3150    5.0419   H         1 RES1   0.0000
   256 H156     -0.4671   -5.9297    2.5582   H         1 RES1   0.0000
   257 H157      0.9396   -6.9079    2.8259   H         1 RES1   0.0000
   258 H158      0.6624   -5.1461    0.3567   H         1 RES1   0.0000
   259 H159      0.0509   -6.7980    0.4991   H         1 RES1   0.0000
   260 H160      2.5302   -7.3896    1.1410   H         1 RES1   0.0000
   261 H161      2.9159   -5.8610    0.3534   H         1 RES1   0.0000
   262 H162      1.5450   -8.3254   -0.7920   H         1 RES1   0.0000
   263 H163      3.0916   -7.6409   -1.2708   H         1 RES1   0.0000
   264 H164      0.3356   -6.4310   -1.7812   H         1 RES1   0.0000
   265 H165      1.3550   -7.2722   -2.9424   H         1 RES1   0.0000
   266 H166      2.0999   -4.6232   -1.6158   H         1 RES1   0.0000
   267 H167      1.4998   -4.8328   -3.2659   H         1 RES1   0.0000
   268 H168      3.0586   -5.5090   -2.8107   H         1 RES1   0.0000
@<TRIPOS>BOND
     1     1    16    1
     2     1    18    1
     3     1    21    1
     4     1   105    1
     5     1   107    1
     6     1   110    1
     7     1   194    1
     8     1   196    1
     9     1   199    1
    10     2     3    1
    11     2    35    1
    12     2    36    1
    13     2    37    1
    14     3     4    1
    15     3    38    1
    16     3    39    1
    17     4     5    1
    18     4    40    1
    19     4    41    1
    20     5     6    1
    21     5    42    1
    22     5    43    1
    23     6     7    1
    24     6    44    1
    25     6    45    1
    26     7     8    1
    27     7    46    1
    28     7    47    1
    29     8     9    1
    30     8    10    1
    31     8    48    1
    32     9    49    1
    33     9    50    1
    34     9    51    1
    35    10    11    1
    36    10    15    1
    37    11    12    1
    38    11    52    1
    39    11    53    1
    40    12    13    1
    41    12    54    1
    42    12    55    1
    43    13    14    1
    44    13    56    1
    45    13    57    1
    46    14    58    1
    47    14    59    1
    48    14    60    1
    49    15    16    2
    50    15    17    1
    51    17    18    1
    52    17    61    1
    53    17    62    1
    54    18    19    1
    55    19    20    1
    56    19    63    1
    57    19    64    1
    58    20    21    2
    59    20    22    1
    60    22    23    1
    61    22    27    1
    62    23    24    1
    63    23    65    1
    64    23    66    1
    65    24    25    1
    66    24    67    1
    67    24    68    1
    68    25    26    1
    69    25    69    1
    70    25    70    1
    71    26    71    1
    72    26    72    1
    73    26    73    1
    74    27    28    1
    75    27    29    1
    76    27    74    1
    77    28    75    1
    78    28    76    1
    79    28    77    1
    80    29    30    1
    81    29    78    1
    82    29    79    1
    83    30    31    1
    84    30    80    1
    85    30    81    1
    86    31    32    1
    87    31    82    1
    88    31    83    1
    89    32    33    1
    90    32    84    1
    91    32    85    1
    92    33    34    1
    93    33    86    1
    94    33    87    1
    95    34    88    1
    96    34    89    1
    97    34    90    1
    98    91    92    1
    99    91   124    1
   100    91   125    1
   101    91   126    1
   102    92    93    1
   103    92   127    1
   104    92   128    1
   105    93    94    1
   106    93   129    1
   107    93   130    1
   108    94    95    1
   109    94   131    1
   110    94   132    1
   111    95    96    1
   112    95   133    1
   113    95   134    1
   114    96    97    1
   115    96   135    1
   116    96   136    1
   117    97    98    1
   118    97    99    1
   119    97   137    1
   120    98   138    1
   121    98   139    1
   122    98   140    1
   123    99   100    1
   124    99   104    1
   125   100   101    1
   126   100   141    1
   127   100   142    1
   128   101   102    1
   129   101   143    1
   130   101   144    1
   131   102   103    1
   132   102   145    1
   133   102   146    1
   134   103   147    1
   135   103   148    1
   136   103   149    1
   137   104   105    2
   138   104   106    1
   139   106   107    1
   140   106   150    1
   141   106   151    1
   142   107   108    1
   143   108   109    1
   144   108   152    1
   145   108   153    1
   146   109   110    2
   147   109   111    1
   148   111   112    1
   149   111   116    1
   150   112   113    1
   151   112   154    1
   152   112   155    1
   153   113   114    1
   154   113   156    1
   155   113   157    1
   156   114   115    1
   157   114   158    1
   158   114   159    1
   159   115   160    1
   160   115   161    1
   161   115   162    1
   162   116   117    1
   163   116   118    1
   164   116   163    1
   165   117   164    1
   166   117   165    1
   167   117   166    1
   168   118   119    1
   169   118   167    1
   170   118   168    1
   171   119   120    1
   172   119   169    1
   173   119   170    1
   174   120   121    1
   175   120   171    1
   176   120   172    1
   177   121   122    1
   178   121   173    1
   179   121   174    1
   180   122   123    1
   181   122   175    1
   182   122   176    1
   183   123   177    1
   184   123   178    1
   185   123   179    1
   186   180   181    1
   187   180   213    1
   188   180   214    1
   189   180   215    1
   190   181   182    1
   191   181   216    1
   192   181   217    1
   193   182   183    1
   194   182   218    1
   195   182   219    1
   196   183   184    1
   197   183   220    1
   198   183   221    1
   199   184   185    1
   200   184   222    1
   201   184   223    1
   202   185   186    1
   203   185   224    1
   204   185   225    1
   205   186   187    1
   206   186   188    1
   207   186   226    1
   208   187   227    1
   209   187   228    1
   210   187   229    1
   211   188   189    1
   212   188   193    1
   213   189   190    1
   214   189   230    1
   215   189   231    1
   216   190   191    1
   217   190   232    1
   218   190   233    1
   219   191   192    1
   220   191   234    1
   221   191   235    1
   222   192   236    1
   223   192   237    1
   224   192   238    1
   225   193   194    2
   226   193   195    1
   227   195   196    1
   228   195   239    1
   229   195   240    1
   230   196   197    1
   231   197   198    1
   232   197   241    1
   233   197   242    1
   234   198   199    2
   235   198   200    1
   236   200   201    1
   237   200   205    1
   238   201   202    1
   239   201   243    1
   240   201   244    1
   241   202   203    1
   242   202   245    1
   243   202   246    1
   244   203   204    1
   245   203   247    1
   246   203   248    1
   247   204   249    1
   248   204   250    1
   249   204   251    1
   250   205   206    1
   251   205   207    1
   252   205   252    1
   253   206   253    1
   254   206   254    1
   255   206   255    1
   256   207   208    1
   257   207   256    1
   258   207   257    1
   259   208   209    1
   260   208   258    1
   261   208   259    1
   262   209   210    1
   263   209   260    1
   264   209   261    1
   265   210   211    1
   266   210   262    1
   267   210   263    1
   268   211   212    1
   269   211   264    1
   270   211   265    1
   271   212   266    1
   272   212   267    1
   273   212   268    1
@<TRIPOS>SUBSTRUCTURE
     1 RES1      268 GROUP             0 ****  ****    0  
