@<TRIPOS>MOLECULE
am_c3_9H2O_c0_0_nunpairedes_0_charge_3 Charge: 3 Unpaired_Electrons: 5 XTB_Unpaired_Electrons: 0 XTB_Charge: 3
   196   201     1     0     0
SMALL
NoCharges
****
Generated from Architector

@<TRIPOS>ATOM
     1 Sm1       0.0483    0.1478    0.0654   Sm        1 RES1   0.0000
     2 C1        0.1931    4.9883   -4.2681   C.3       1 RES1   0.0000
     3 C2       -1.0777    5.5322   -3.6237   C.3       1 RES1   0.0000
     4 C3       -2.0492    6.0618   -4.6717   C.3       1 RES1   0.0000
     5 C4       -1.7934    4.4247   -2.8416   C.3       1 RES1   0.0000
     6 N1       -1.0182    3.8972   -1.7289   N.am      1 RES1   0.0000
     7 C5       -0.9345    4.7530   -0.5306   C.3       1 RES1   0.0000
     8 C6        0.3776    5.4270   -0.0650   C.3       1 RES1   0.0000
     9 C7        1.4428    4.4360    0.3829   C.3       1 RES1   0.0000
    10 C8        0.9822    6.4341   -1.0319   C.3       1 RES1   0.0000
    11 C9       -0.6089    2.6346   -1.6584   C.2       1 RES1   0.0000
    12 O1        0.0893    2.2332   -0.7167   O.2       1 RES1   0.0000
    13 C10      -1.0805    1.6014   -2.7032   C.3       1 RES1   0.0000
    14 O2       -1.0427    0.3400   -2.0454   O.3       1 RES1   0.0000
    15 C11      -1.8452   -0.6917   -2.6143   C.3       1 RES1   0.0000
    16 C12      -2.4057   -1.4878   -1.4211   C.2       1 RES1   0.0000
    17 O3       -1.7705   -1.3846   -0.3521   O.2       1 RES1   0.0000
    18 N2       -3.4956   -2.2399   -1.5580   N.am      1 RES1   0.0000
    19 C13      -4.0494   -2.5778   -2.8786   C.3       1 RES1   0.0000
    20 C14      -5.2159   -1.7690   -3.4993   C.3       1 RES1   0.0000
    21 C15      -4.8267   -0.4437   -4.1563   C.3       1 RES1   0.0000
    22 C16      -5.8347   -2.6569   -4.5842   C.3       1 RES1   0.0000
    23 C17      -3.8061   -3.1644   -0.4477   C.3       1 RES1   0.0000
    24 C18      -5.0747   -3.0207    0.4307   C.3       1 RES1   0.0000
    25 C19      -4.9438   -1.9801    1.5422   C.3       1 RES1   0.0000
    26 C20      -6.3803   -2.8202   -0.3263   C.3       1 RES1   0.0000
    27 H1        0.7397    5.7859   -4.7619   H         1 RES1   0.0000
    28 H2       -0.0486    4.2321   -5.0119   H         1 RES1   0.0000
    29 H3        0.8502    4.5404   -3.5246   H         1 RES1   0.0000
    30 H4       -0.8217    6.3409   -2.9400   H         1 RES1   0.0000
    31 H5       -2.3268    5.2781   -5.3723   H         1 RES1   0.0000
    32 H6       -1.6021    6.8765   -5.2303   H         1 RES1   0.0000
    33 H7       -2.9548    6.4296   -4.1974   H         1 RES1   0.0000
    34 H8       -2.0069    3.6370   -3.5589   H         1 RES1   0.0000
    35 H9       -2.7486    4.7982   -2.4574   H         1 RES1   0.0000
    36 H10      -1.2725    4.1242    0.3043   H         1 RES1   0.0000
    37 H11      -1.6693    5.5467   -0.6847   H         1 RES1   0.0000
    38 H12       0.0648    5.9887    0.8252   H         1 RES1   0.0000
    39 H13       1.7928    3.8427   -0.4559   H         1 RES1   0.0000
    40 H14       1.0542    3.7583    1.1385   H         1 RES1   0.0000
    41 H15       2.2814    4.9845    0.8010   H         1 RES1   0.0000
    42 H16       1.3367    5.9590   -1.9383   H         1 RES1   0.0000
    43 H17       1.8318    6.9071   -0.5503   H         1 RES1   0.0000
    44 H18       0.2760    7.2173   -1.2851   H         1 RES1   0.0000
    45 H19      -0.4129    1.5885   -3.5742   H         1 RES1   0.0000
    46 H20      -2.1064    1.8158   -3.0200   H         1 RES1   0.0000
    47 H21      -1.2166   -1.3510   -3.2370   H         1 RES1   0.0000
    48 H22      -2.6357   -0.2799   -3.2399   H         1 RES1   0.0000
    49 H23      -4.4244   -3.5990   -2.7863   H         1 RES1   0.0000
    50 H24      -3.2333   -2.5922   -3.6056   H         1 RES1   0.0000
    51 H25      -5.9692   -1.5738   -2.7364   H         1 RES1   0.0000
    52 H26      -4.0718   -0.6043   -4.9251   H         1 RES1   0.0000
    53 H27      -4.4836    0.2983   -3.4408   H         1 RES1   0.0000
    54 H28      -5.6963   -0.0146   -4.6503   H         1 RES1   0.0000
    55 H29      -5.0965   -2.8771   -5.3525   H         1 RES1   0.0000
    56 H30      -6.6723   -2.1551   -5.0609   H         1 RES1   0.0000
    57 H31      -6.1966   -3.5942   -4.1727   H         1 RES1   0.0000
    58 H32      -2.9546   -3.0943    0.2339   H         1 RES1   0.0000
    59 H33      -3.8154   -4.1724   -0.8747   H         1 RES1   0.0000
    60 H34      -5.1370   -3.9939    0.9317   H         1 RES1   0.0000
    61 H35      -4.9932   -0.9697    1.1560   H         1 RES1   0.0000
    62 H36      -4.0140   -2.1039    2.0914   H         1 RES1   0.0000
    63 H37      -5.7650   -2.0976    2.2452   H         1 RES1   0.0000
    64 H38      -6.4483   -1.8158   -0.7320   H         1 RES1   0.0000
    65 H39      -7.2118   -2.9478    0.3611   H         1 RES1   0.0000
    66 H40      -6.4992   -3.5450   -1.1259   H         1 RES1   0.0000
    67 C21      -4.6222    0.8543   -0.7941   C.3       1 RES1   0.0000
    68 C22      -5.2233    2.0940   -0.1507   C.3       1 RES1   0.0000
    69 C23      -6.2961    1.7365    0.8681   C.3       1 RES1   0.0000
    70 C24      -4.1400    3.0571    0.3722   C.3       1 RES1   0.0000
    71 N3       -3.3756    2.7404    1.5871   N.am      1 RES1   0.0000
    72 C25      -3.8725    3.3040    2.8361   C.3       1 RES1   0.0000
    73 C26      -3.5495    4.7859    3.1402   C.3       1 RES1   0.0000
    74 C27      -4.0617    5.7645    2.0882   C.3       1 RES1   0.0000
    75 C28      -2.0705    5.0711    3.3958   C.3       1 RES1   0.0000
    76 C29      -2.2910    1.9742    1.5064   C.2       1 RES1   0.0000
    77 O4       -2.0115    1.3313    0.4812   O.2       1 RES1   0.0000
    78 C30      -1.2841    1.9207    2.6695   C.3       1 RES1   0.0000
    79 O5       -0.0784    1.4011    2.1074   O.3       1 RES1   0.0000
    80 C31       1.1004    1.6028    2.8856   C.3       1 RES1   0.0000
    81 C32       2.2817    1.4224    1.8942   C.2       1 RES1   0.0000
    82 O6        2.1085    0.6266    0.9556   O.2       1 RES1   0.0000
    83 N4        3.3902    2.1444    2.0128   N.am      1 RES1   0.0000
    84 C33       3.6619    3.0278    3.1407   C.3       1 RES1   0.0000
    85 C34       4.9148    2.7179    3.9917   C.3       1 RES1   0.0000
    86 C35       4.9479    1.2660    4.4585   C.3       1 RES1   0.0000
    87 C36       6.2402    3.1238    3.3558   C.3       1 RES1   0.0000
    88 C37       4.2621    2.3547    0.8422   C.3       1 RES1   0.0000
    89 C38       4.8759    1.1556    0.0984   C.3       1 RES1   0.0000
    90 C39       5.5108    0.1234    1.0182   C.3       1 RES1   0.0000
    91 C40       5.9404    1.7165   -0.8484   C.3       1 RES1   0.0000
    92 H41      -5.4068    0.2776   -1.2748   H         1 RES1   0.0000
    93 H42      -4.1152    0.2324   -0.0656   H         1 RES1   0.0000
    94 H43      -3.8891    1.1478   -1.5413   H         1 RES1   0.0000
    95 H44      -5.7176    2.6570   -0.9524   H         1 RES1   0.0000
    96 H45      -5.8910    1.1903    1.7143   H         1 RES1   0.0000
    97 H46      -7.0422    1.1104    0.3875   H         1 RES1   0.0000
    98 H47      -6.8036    2.6268    1.2270   H         1 RES1   0.0000
    99 H48      -4.6301    4.0093    0.5625   H         1 RES1   0.0000
   100 H49      -3.4060    3.1830   -0.4298   H         1 RES1   0.0000
   101 H50      -3.5001    2.6904    3.6580   H         1 RES1   0.0000
   102 H51      -4.9604    3.1947    2.8085   H         1 RES1   0.0000
   103 H52      -4.0847    4.9886    4.0731   H         1 RES1   0.0000
   104 H53      -3.4971    5.6842    1.1619   H         1 RES1   0.0000
   105 H54      -3.9393    6.7784    2.4566   H         1 RES1   0.0000
   106 H55      -5.1194    5.6202    1.8884   H         1 RES1   0.0000
   107 H56      -1.4731    4.9119    2.4986   H         1 RES1   0.0000
   108 H57      -1.6856    4.4729    4.2190   H         1 RES1   0.0000
   109 H58      -1.9521    6.1132    3.6808   H         1 RES1   0.0000
   110 H59      -1.6491    1.2746    3.4784   H         1 RES1   0.0000
   111 H60      -1.1146    2.9224    3.0720   H         1 RES1   0.0000
   112 H61       1.1372    0.8788    3.7127   H         1 RES1   0.0000
   113 H62       1.0972    2.6158    3.3014   H         1 RES1   0.0000
   114 H63       2.8297    2.9732    3.8358   H         1 RES1   0.0000
   115 H64       3.7271    4.0536    2.7624   H         1 RES1   0.0000
   116 H65       4.7899    3.3482    4.8786   H         1 RES1   0.0000
   117 H66       5.0616    0.5824    3.6241   H         1 RES1   0.0000
   118 H67       4.0443    1.0021    5.0043   H         1 RES1   0.0000
   119 H68       5.7937    1.1212    5.1249   H         1 RES1   0.0000
   120 H69       6.5436    2.4514    2.5602   H         1 RES1   0.0000
   121 H70       7.0169    3.0962    4.1146   H         1 RES1   0.0000
   122 H71       6.1907    4.1403    2.9728   H         1 RES1   0.0000
   123 H72       5.0747    2.9868    1.1877   H         1 RES1   0.0000
   124 H73       3.6815    2.9219    0.1060   H         1 RES1   0.0000
   125 H74       4.0866    0.6613   -0.4756   H         1 RES1   0.0000
   126 H75       6.3185    0.5601    1.5979   H         1 RES1   0.0000
   127 H76       5.9375   -0.6823    0.4276   H         1 RES1   0.0000
   128 H77       4.7700   -0.3026    1.6897   H         1 RES1   0.0000
   129 H78       6.7337    2.1933   -0.2799   H         1 RES1   0.0000
   130 H79       5.5310    2.4543   -1.5329   H         1 RES1   0.0000
   131 H80       6.3979    0.9225   -1.4307   H         1 RES1   0.0000
   132 C41       2.0675    1.8675   -4.8883   C.3       1 RES1   0.0000
   133 C42       3.5414    1.6159   -4.5962   C.3       1 RES1   0.0000
   134 C43       4.2752    1.0996   -5.8263   C.3       1 RES1   0.0000
   135 C44       3.7358    0.7658   -3.3306   C.3       1 RES1   0.0000
   136 N5        3.1274   -0.5699   -3.2561   N.am      1 RES1   0.0000
   137 C45       3.9079   -1.6643   -3.8240   C.3       1 RES1   0.0000
   138 C46       3.1717   -2.7082   -4.6829   C.3       1 RES1   0.0000
   139 C47       2.5730   -2.0979   -5.9455   C.3       1 RES1   0.0000
   140 C48       4.1884   -3.7903   -5.0455   C.3       1 RES1   0.0000
   141 C49       2.1472   -0.7449   -2.3773   C.2       1 RES1   0.0000
   142 O7        1.5586    0.2064   -1.8362   O.2       1 RES1   0.0000
   143 C50       1.7324   -2.1568   -1.9234   C.3       1 RES1   0.0000
   144 O8        1.1064   -1.9844   -0.6519   O.3       1 RES1   0.0000
   145 C51       1.3184   -3.0512    0.2607   C.3       1 RES1   0.0000
   146 C52       0.7885   -2.5819    1.6258   C.2       1 RES1   0.0000
   147 O9        0.3456   -1.4218    1.7151   O.2       1 RES1   0.0000
   148 N6        0.8310   -3.4037    2.6643   N.am      1 RES1   0.0000
   149 C53       0.5067   -2.8873    4.0045   C.3       1 RES1   0.0000
   150 C54      -0.9573   -2.7184    4.4710   C.3       1 RES1   0.0000
   151 C55      -1.8224   -3.9689    4.3856   C.3       1 RES1   0.0000
   152 C56      -1.6580   -1.5279    3.8247   C.3       1 RES1   0.0000
   153 C57       1.5617   -4.6659    2.6571   C.3       1 RES1   0.0000
   154 C58       0.6911   -5.8923    2.9525   C.3       1 RES1   0.0000
   155 C59       1.6042   -7.1030    3.1179   C.3       1 RES1   0.0000
   156 C60      -0.3221   -6.1151    1.8330   C.3       1 RES1   0.0000
   157 H81       1.9733    2.5216   -5.7502   H         1 RES1   0.0000
   158 H82       1.5997    2.3519   -4.0340   H         1 RES1   0.0000
   159 H83       1.5412    0.9410   -5.1070   H         1 RES1   0.0000
   160 H84       3.9929    2.5812   -4.3395   H         1 RES1   0.0000
   161 H85       3.8334    0.1880   -6.2059   H         1 RES1   0.0000
   162 H86       5.3262    0.9267   -5.6099   H         1 RES1   0.0000
   163 H87       4.2151    1.8467   -6.6123   H         1 RES1   0.0000
   164 H88       3.3185    1.3328   -2.4952   H         1 RES1   0.0000
   165 H89       4.8068    0.6348   -3.1599   H         1 RES1   0.0000
   166 H90       4.4266   -2.1846   -3.0080   H         1 RES1   0.0000
   167 H91       4.6645   -1.2067   -4.4598   H         1 RES1   0.0000
   168 H92       2.3640   -3.1782   -4.1190   H         1 RES1   0.0000
   169 H93       3.3621   -1.7768   -6.6192   H         1 RES1   0.0000
   170 H94       1.9341   -1.2477   -5.7131   H         1 RES1   0.0000
   171 H95       1.9788   -2.8353   -6.4783   H         1 RES1   0.0000
   172 H96       5.0130   -3.3577   -5.6043   H         1 RES1   0.0000
   173 H97       3.7295   -4.5579   -5.6612   H         1 RES1   0.0000
   174 H98       4.5916   -4.2614   -4.1521   H         1 RES1   0.0000
   175 H99       2.6155   -2.8011   -1.8562   H         1 RES1   0.0000
   176 H100      1.0143   -2.6232   -2.6144   H         1 RES1   0.0000
   177 H101      2.3937   -3.2682    0.3394   H         1 RES1   0.0000
   178 H102      0.7900   -3.9537   -0.0731   H         1 RES1   0.0000
   179 H103      0.9874   -1.9045    4.0818   H         1 RES1   0.0000
   180 H104      0.9896   -3.5654    4.7079   H         1 RES1   0.0000
   181 H105     -0.8504   -2.4785    5.5362   H         1 RES1   0.0000
   182 H106     -1.9599   -4.2978    3.3614   H         1 RES1   0.0000
   183 H107     -2.8020   -3.7526    4.8024   H         1 RES1   0.0000
   184 H108     -1.4016   -4.7825    4.9680   H         1 RES1   0.0000
   185 H109     -1.8304   -1.6801    2.7609   H         1 RES1   0.0000
   186 H110     -1.0435   -0.6406    3.9511   H         1 RES1   0.0000
   187 H111     -2.6143   -1.3592    4.3146   H         1 RES1   0.0000
   188 H112      2.3506   -4.5883    3.4132   H         1 RES1   0.0000
   189 H113      2.0463   -4.8271    1.6967   H         1 RES1   0.0000
   190 H114      0.1587   -5.7301    3.8899   H         1 RES1   0.0000
   191 H115      2.1595   -7.2983    2.2032   H         1 RES1   0.0000
   192 H116      1.0200   -7.9857    3.3581   H         1 RES1   0.0000
   193 H117      2.3164   -6.9354    3.9217   H         1 RES1   0.0000
   194 H118      0.1846   -6.3867    0.9091   H         1 RES1   0.0000
   195 H119     -0.9186   -5.2215    1.6524   H         1 RES1   0.0000
   196 H120     -0.9972   -6.9251    2.0932   H         1 RES1   0.0000
@<TRIPOS>BOND
     1     1    12    1
     2     1    14    1
     3     1    17    1
     4     1    77    1
     5     1    79    1
     6     1    82    1
     7     1   142    1
     8     1   144    1
     9     1   147    1
    10     2     3    1
    11     2    27    1
    12     2    28    1
    13     2    29    1
    14     3     4    1
    15     3     5    1
    16     3    30    1
    17     4    31    1
    18     4    32    1
    19     4    33    1
    20     5     6    1
    21     5    34    1
    22     5    35    1
    23     6     7    1
    24     6    11    1
    25     7     8    1
    26     7    36    1
    27     7    37    1
    28     8     9    1
    29     8    10    1
    30     8    38    1
    31     9    39    1
    32     9    40    1
    33     9    41    1
    34    10    42    1
    35    10    43    1
    36    10    44    1
    37    11    12    2
    38    11    13    1
    39    13    14    1
    40    13    45    1
    41    13    46    1
    42    14    15    1
    43    15    16    1
    44    15    47    1
    45    15    48    1
    46    16    17    2
    47    16    18    1
    48    18    19    1
    49    18    23    1
    50    19    20    1
    51    19    49    1
    52    19    50    1
    53    20    21    1
    54    20    22    1
    55    20    51    1
    56    21    52    1
    57    21    53    1
    58    21    54    1
    59    22    55    1
    60    22    56    1
    61    22    57    1
    62    23    24    1
    63    23    58    1
    64    23    59    1
    65    24    25    1
    66    24    26    1
    67    24    60    1
    68    25    61    1
    69    25    62    1
    70    25    63    1
    71    26    64    1
    72    26    65    1
    73    26    66    1
    74    67    68    1
    75    67    92    1
    76    67    93    1
    77    67    94    1
    78    68    69    1
    79    68    70    1
    80    68    95    1
    81    69    96    1
    82    69    97    1
    83    69    98    1
    84    70    71    1
    85    70    99    1
    86    70   100    1
    87    71    72    1
    88    71    76    1
    89    72    73    1
    90    72   101    1
    91    72   102    1
    92    73    74    1
    93    73    75    1
    94    73   103    1
    95    74   104    1
    96    74   105    1
    97    74   106    1
    98    75   107    1
    99    75   108    1
   100    75   109    1
   101    76    77    2
   102    76    78    1
   103    78    79    1
   104    78   110    1
   105    78   111    1
   106    79    80    1
   107    80    81    1
   108    80   112    1
   109    80   113    1
   110    81    82    2
   111    81    83    1
   112    83    84    1
   113    83    88    1
   114    84    85    1
   115    84   114    1
   116    84   115    1
   117    85    86    1
   118    85    87    1
   119    85   116    1
   120    86   117    1
   121    86   118    1
   122    86   119    1
   123    87   120    1
   124    87   121    1
   125    87   122    1
   126    88    89    1
   127    88   123    1
   128    88   124    1
   129    89    90    1
   130    89    91    1
   131    89   125    1
   132    90   126    1
   133    90   127    1
   134    90   128    1
   135    91   129    1
   136    91   130    1
   137    91   131    1
   138   132   133    1
   139   132   157    1
   140   132   158    1
   141   132   159    1
   142   133   134    1
   143   133   135    1
   144   133   160    1
   145   134   161    1
   146   134   162    1
   147   134   163    1
   148   135   136    1
   149   135   164    1
   150   135   165    1
   151   136   137    1
   152   136   141    1
   153   137   138    1
   154   137   166    1
   155   137   167    1
   156   138   139    1
   157   138   140    1
   158   138   168    1
   159   139   169    1
   160   139   170    1
   161   139   171    1
   162   140   172    1
   163   140   173    1
   164   140   174    1
   165   141   142    2
   166   141   143    1
   167   143   144    1
   168   143   175    1
   169   143   176    1
   170   144   145    1
   171   145   146    1
   172   145   177    1
   173   145   178    1
   174   146   147    2
   175   146   148    1
   176   148   149    1
   177   148   153    1
   178   149   150    1
   179   149   179    1
   180   149   180    1
   181   150   151    1
   182   150   152    1
   183   150   181    1
   184   151   182    1
   185   151   183    1
   186   151   184    1
   187   152   185    1
   188   152   186    1
   189   152   187    1
   190   153   154    1
   191   153   188    1
   192   153   189    1
   193   154   155    1
   194   154   156    1
   195   154   190    1
   196   155   191    1
   197   155   192    1
   198   155   193    1
   199   156   194    1
   200   156   195    1
   201   156   196    1
@<TRIPOS>SUBSTRUCTURE
     1 RES1      196 GROUP             0 ****  ****    0  
