@<TRIPOS>MOLECULE
am_c3_9H2O_c0_0_nunpairedes_0_charge_3 Charge: 3 Unpaired_Electrons: 5 XTB_Unpaired_Electrons: 0 XTB_Charge: 3
   160   171     1     0     0
SMALL
NoCharges
****
Generated from Architector

@<TRIPOS>ATOM
     1 Sm1       0.0196    0.0642    0.0168   Sm        1 RES1   0.0000
     2 C1        2.7709   -0.3465    5.1639   C.3       1 RES1   0.0000
     3 C2        2.1094    0.3556    6.3411   C.3       1 RES1   0.0000
     4 C3        0.7322    0.9495    6.0251   C.3       1 RES1   0.0000
     5 C4        0.7627    2.2659    5.2349   C.3       1 RES1   0.0000
     6 N1        1.0357    2.1459    3.8091   N.am      1 RES1   0.0000
     7 C5        2.2470    2.8524    3.3897   C.3       1 RES1   0.0000
     8 C6        2.1110    4.3668    3.6011   C.3       1 RES1   0.0000
     9 C7        0.8407    4.9301    2.9673   C.3       1 RES1   0.0000
    10 C8        0.7147    6.4338    3.1772   C.3       1 RES1   0.0000
    11 C9        0.3374    1.5326    2.8567   C.2       1 RES1   0.0000
    12 O1        0.8300    1.3974    1.7082   O.2       1 RES1   0.0000
    13 C10      -1.0598    0.9717    3.0263   C.ar      1 RES1   0.0000
    14 C11      -1.9398    1.1166    4.1101   C.ar      1 RES1   0.0000
    15 C12      -3.1796    0.5237    4.0383   C.ar      1 RES1   0.0000
    16 C13      -3.5222   -0.2886    2.9479   C.ar      1 RES1   0.0000
    17 C14      -4.7717   -0.9658    2.8684   C.ar      1 RES1   0.0000
    18 C15      -5.0642   -1.7445    1.7991   C.ar      1 RES1   0.0000
    19 C16      -4.1208   -1.9168    0.7460   C.ar      1 RES1   0.0000
    20 C17      -4.4109   -2.6807   -0.3906   C.ar      1 RES1   0.0000
    21 C18      -3.5199   -2.7505   -1.4355   C.ar      1 RES1   0.0000
    22 C19      -2.2797   -2.1079   -1.3159   C.ar      1 RES1   0.0000
    23 C20      -1.2365   -1.8765   -2.3948   C.2       1 RES1   0.0000
    24 O2       -0.5215   -0.8621   -2.1754   O.2       1 RES1   0.0000
    25 N2       -1.0623   -2.5789   -3.5141   N.am      1 RES1   0.0000
    26 C21      -0.1191   -2.0351   -4.5138   C.3       1 RES1   0.0000
    27 C22       0.9765   -2.9953   -5.0002   C.3       1 RES1   0.0000
    28 C23       1.6513   -2.5350   -6.3009   C.3       1 RES1   0.0000
    29 C24       2.4702   -1.2552   -6.2083   C.3       1 RES1   0.0000
    30 C25      -1.7983   -3.7539   -3.9654   C.3       1 RES1   0.0000
    31 C26      -2.6674   -3.5438   -5.2246   C.3       1 RES1   0.0000
    32 C27      -3.8406   -2.5642   -5.1315   C.3       1 RES1   0.0000
    33 C28      -3.4551   -1.0941   -5.0055   C.3       1 RES1   0.0000
    34 N3       -1.9698   -1.4170   -0.2130   N.ar      1 RES1   0.0000
    35 C29      -2.8601   -1.2694    0.7797   C.ar      1 RES1   0.0000
    36 C30      -2.5717   -0.3970    1.9041   C.ar      1 RES1   0.0000
    37 N4       -1.4294    0.2965    1.9391   N.ar      1 RES1   0.0000
    38 H1        3.6882   -0.8259    5.4955   H         1 RES1   0.0000
    39 H2        3.0240    0.3438    4.3640   H         1 RES1   0.0000
    40 H3        2.1084   -1.1101    4.7614   H         1 RES1   0.0000
    41 H4        2.7729    1.1298    6.7269   H         1 RES1   0.0000
    42 H5        1.9785   -0.3711    7.1441   H         1 RES1   0.0000
    43 H6        0.2504    1.1823    6.9770   H         1 RES1   0.0000
    44 H7        0.1265    0.2001    5.5093   H         1 RES1   0.0000
    45 H8        1.5739    2.8644    5.6506   H         1 RES1   0.0000
    46 H9       -0.1506    2.8463    5.3984   H         1 RES1   0.0000
    47 H10       2.4137    2.6371    2.3314   H         1 RES1   0.0000
    48 H11       3.0968    2.4682    3.9591   H         1 RES1   0.0000
    49 H12       2.9896    4.8264    3.1458   H         1 RES1   0.0000
    50 H13       2.1329    4.6168    4.6639   H         1 RES1   0.0000
    51 H14      -0.0388    4.4459    3.3993   H         1 RES1   0.0000
    52 H15       0.8537    4.7079    1.8998   H         1 RES1   0.0000
    53 H16       0.6746    6.6783    4.2367   H         1 RES1   0.0000
    54 H17      -0.1994    6.8006    2.7158   H         1 RES1   0.0000
    55 H18       1.5598    6.9594    2.7389   H         1 RES1   0.0000
    56 H19      -1.6884    1.6860    4.9856   H         1 RES1   0.0000
    57 H20      -3.8947    0.6541    4.8352   H         1 RES1   0.0000
    58 H21      -5.4716   -0.8351    3.6797   H         1 RES1   0.0000
    59 H22      -6.0145   -2.2504    1.7175   H         1 RES1   0.0000
    60 H23      -5.3687   -3.1714   -0.4591   H         1 RES1   0.0000
    61 H24      -3.8231   -3.2680   -2.3279   H         1 RES1   0.0000
    62 H25       0.3411   -1.1465   -4.0770   H         1 RES1   0.0000
    63 H26      -0.7125   -1.7167   -5.3745   H         1 RES1   0.0000
    64 H27       0.5469   -3.9726   -5.2206   H         1 RES1   0.0000
    65 H28       1.7311   -3.1303   -4.2202   H         1 RES1   0.0000
    66 H29       0.8997   -2.4252   -7.0835   H         1 RES1   0.0000
    67 H30       2.3208   -3.3376   -6.6104   H         1 RES1   0.0000
    68 H31       1.8560   -0.4013   -5.9304   H         1 RES1   0.0000
    69 H32       2.9148   -1.0500   -7.1792   H         1 RES1   0.0000
    70 H33       3.2700   -1.3732   -5.4815   H         1 RES1   0.0000
    71 H34      -2.3948   -4.1692   -3.1560   H         1 RES1   0.0000
    72 H35      -1.0541   -4.5163   -4.2172   H         1 RES1   0.0000
    73 H36      -3.0726   -4.5298   -5.4618   H         1 RES1   0.0000
    74 H37      -2.0402   -3.2651   -6.0724   H         1 RES1   0.0000
    75 H38      -4.4927   -2.8462   -4.3052   H         1 RES1   0.0000
    76 H39      -4.4261   -2.6788   -6.0457   H         1 RES1   0.0000
    77 H40      -2.9340   -0.8851   -4.0722   H         1 RES1   0.0000
    78 H41      -4.3544   -0.4846   -5.0338   H         1 RES1   0.0000
    79 H42      -2.8254   -0.7915   -5.8396   H         1 RES1   0.0000
    80 C31       3.4691   -3.6059    3.8538   C.3       1 RES1   0.0000
    81 C32       3.0760   -5.0771    3.8334   C.3       1 RES1   0.0000
    82 C33       1.5970   -5.3442    4.1191   C.3       1 RES1   0.0000
    83 C34       0.5771   -4.9205    3.0446   C.3       1 RES1   0.0000
    84 N5        0.3742   -3.4854    2.8946   N.am      1 RES1   0.0000
    85 C35      -0.2493   -2.8371    4.0601   C.3       1 RES1   0.0000
    86 C36      -1.6932   -3.2471    4.3749   C.3       1 RES1   0.0000
    87 C37      -2.2045   -2.5166    5.6222   C.3       1 RES1   0.0000
    88 C38      -3.6510   -2.8823    5.9349   C.3       1 RES1   0.0000
    89 C39       0.6914   -2.6848    1.8753   C.2       1 RES1   0.0000
    90 O3        0.2886   -1.4980    1.8857   O.2       1 RES1   0.0000
    91 C40       1.5977   -2.9774    0.6988   C.ar      1 RES1   0.0000
    92 C41       2.4155   -4.0891    0.4615   C.ar      1 RES1   0.0000
    93 C42       3.3035   -4.0520   -0.5884   C.ar      1 RES1   0.0000
    94 C43       3.4102   -2.9093   -1.3911   C.ar      1 RES1   0.0000
    95 C44       4.3761   -2.7974   -2.4301   C.ar      1 RES1   0.0000
    96 C45       4.4928   -1.6511   -3.1395   C.ar      1 RES1   0.0000
    97 C46       3.6294   -0.5457   -2.8878   C.ar      1 RES1   0.0000
    98 C47       3.7488    0.6669   -3.5837   C.ar      1 RES1   0.0000
    99 C48       2.8746    1.6995   -3.3372   C.ar      1 RES1   0.0000
   100 C49       1.8641    1.5092   -2.3850   C.ar      1 RES1   0.0000
   101 C50       0.7780    2.4824   -2.0026   C.2       1 RES1   0.0000
   102 O4        0.1699    2.2222   -0.9347   O.2       1 RES1   0.0000
   103 N6        0.4224    3.5642   -2.6953   N.am      1 RES1   0.0000
   104 C51       0.6236    3.8565   -4.1125   C.3       1 RES1   0.0000
   105 C52       1.2450    5.2351   -4.4084   C.3       1 RES1   0.0000
   106 C53       2.7716    5.3088   -4.4245   C.3       1 RES1   0.0000
   107 C54       3.3944    4.6914   -5.6707   C.3       1 RES1   0.0000
   108 C55      -0.6180    4.4063   -2.0856   C.3       1 RES1   0.0000
   109 C56      -0.2884    5.0309   -0.7230   C.3       1 RES1   0.0000
   110 C57       0.9559    5.9217   -0.6952   C.3       1 RES1   0.0000
   111 C58       2.2635    5.1376   -0.6893   C.3       1 RES1   0.0000
   112 N7        1.7988    0.3982   -1.6493   N.ar      1 RES1   0.0000
   113 C59       2.6318   -0.6238   -1.8880   C.ar      1 RES1   0.0000
   114 C60       2.5331   -1.8361   -1.1003   C.ar      1 RES1   0.0000
   115 N8        1.6526   -1.9011   -0.0957   N.ar      1 RES1   0.0000
   116 H43       4.5394   -3.5116    3.6915   H         1 RES1   0.0000
   117 H44       3.2373   -3.1757    4.8244   H         1 RES1   0.0000
   118 H45       2.9613   -3.0283    3.0835   H         1 RES1   0.0000
   119 H46       3.6513   -5.5843    4.6096   H         1 RES1   0.0000
   120 H47       3.3581   -5.5326    2.8842   H         1 RES1   0.0000
   121 H48       1.3361   -4.8967    5.0788   H         1 RES1   0.0000
   122 H49       1.4657   -6.4212    4.2387   H         1 RES1   0.0000
   123 H50      -0.3935   -5.3352    3.3399   H         1 RES1   0.0000
   124 H51       0.8225   -5.3735    2.0861   H         1 RES1   0.0000
   125 H52      -0.2182   -1.7582    3.8833   H         1 RES1   0.0000
   126 H53       0.3728   -3.0575    4.9318   H         1 RES1   0.0000
   127 H54      -1.7494   -4.3194    4.5711   H         1 RES1   0.0000
   128 H55      -2.3436   -3.0237    3.5234   H         1 RES1   0.0000
   129 H56      -2.1254   -1.4351    5.4807   H         1 RES1   0.0000
   130 H57      -1.5829   -2.7896    6.4764   H         1 RES1   0.0000
   131 H58      -4.3095   -2.6305    5.1055   H         1 RES1   0.0000
   132 H59      -3.9902   -2.3497    6.8183   H         1 RES1   0.0000
   133 H60      -3.7460   -3.9466    6.1326   H         1 RES1   0.0000
   134 H61       2.3917   -4.9685    1.0787   H         1 RES1   0.0000
   135 H62       3.9446   -4.8953   -0.7893   H         1 RES1   0.0000
   136 H63       5.0177   -3.6441   -2.6224   H         1 RES1   0.0000
   137 H64       5.2412   -1.5463   -3.9101   H         1 RES1   0.0000
   138 H65       4.5321    0.7742   -4.3161   H         1 RES1   0.0000
   139 H66       3.0053    2.6323   -3.8571   H         1 RES1   0.0000
   140 H67      -0.3849    3.8475   -4.5466   H         1 RES1   0.0000
   141 H68       1.1851    3.0584   -4.5967   H         1 RES1   0.0000
   142 H69       0.8691    5.9658   -3.6930   H         1 RES1   0.0000
   143 H70       0.8804    5.5493   -5.3868   H         1 RES1   0.0000
   144 H71       3.1811    4.8512   -3.5228   H         1 RES1   0.0000
   145 H72       3.0486    6.3637   -4.3998   H         1 RES1   0.0000
   146 H73       3.1623    3.6320   -5.7782   H         1 RES1   0.0000
   147 H74       4.4745    4.8013   -5.6279   H         1 RES1   0.0000
   148 H75       3.0382    5.2018   -6.5624   H         1 RES1   0.0000
   149 H76      -1.5307    3.8036   -1.9809   H         1 RES1   0.0000
   150 H77      -0.8406    5.2118   -2.7833   H         1 RES1   0.0000
   151 H78      -0.1841    4.2436    0.0263   H         1 RES1   0.0000
   152 H79      -1.1625    5.6339   -0.4587   H         1 RES1   0.0000
   153 H80       0.9068    6.5346    0.2055   H         1 RES1   0.0000
   154 H81       0.9405    6.6059   -1.5434   H         1 RES1   0.0000
   155 H82       2.2985    4.4422    0.1480   H         1 RES1   0.0000
   156 H83       3.1052    5.8175   -0.5992   H         1 RES1   0.0000
   157 H84       2.3877    4.5698   -1.6064   H         1 RES1   0.0000
   158 O5       -2.2911    1.2826   -0.6456   O.3       1 RES1   0.0000
   159 H85      -2.2541    2.1646   -0.2430   H         1 RES1   0.0000
   160 H86      -2.3056    1.4319   -1.6024   H         1 RES1   0.0000
@<TRIPOS>BOND
     1     1    12    1
     2     1    24    1
     3     1    34    1
     4     1    37    1
     5     1    90    1
     6     1   102    1
     7     1   112    1
     8     1   115    1
     9     1   158    1
    10     2     3    1
    11     2    38    1
    12     2    39    1
    13     2    40    1
    14     3     4    1
    15     3    41    1
    16     3    42    1
    17     4     5    1
    18     4    43    1
    19     4    44    1
    20     5     6    1
    21     5    45    1
    22     5    46    1
    23     6     7    1
    24     6    11    1
    25     7     8    1
    26     7    47    1
    27     7    48    1
    28     8     9    1
    29     8    49    1
    30     8    50    1
    31     9    10    1
    32     9    51    1
    33     9    52    1
    34    10    53    1
    35    10    54    1
    36    10    55    1
    37    11    12    2
    38    11    13    1
    39    13    14    1
    40    13    37    2
    41    14    15    2
    42    14    56    1
    43    15    16    1
    44    15    57    1
    45    16    17    1
    46    16    36    2
    47    17    18    2
    48    17    58    1
    49    18    19    1
    50    18    59    1
    51    19    20    1
    52    19    35    2
    53    20    21    2
    54    20    60    1
    55    21    22    1
    56    21    61    1
    57    22    23    1
    58    22    34    2
    59    23    24    2
    60    23    25    1
    61    25    26    1
    62    25    30    1
    63    26    27    1
    64    26    62    1
    65    26    63    1
    66    27    28    1
    67    27    64    1
    68    27    65    1
    69    28    29    1
    70    28    66    1
    71    28    67    1
    72    29    68    1
    73    29    69    1
    74    29    70    1
    75    30    31    1
    76    30    71    1
    77    30    72    1
    78    31    32    1
    79    31    73    1
    80    31    74    1
    81    32    33    1
    82    32    75    1
    83    32    76    1
    84    33    77    1
    85    33    78    1
    86    33    79    1
    87    34    35    1
    88    35    36    1
    89    36    37    1
    90    80    81    1
    91    80   116    1
    92    80   117    1
    93    80   118    1
    94    81    82    1
    95    81   119    1
    96    81   120    1
    97    82    83    1
    98    82   121    1
    99    82   122    1
   100    83    84    1
   101    83   123    1
   102    83   124    1
   103    84    85    1
   104    84    89    1
   105    85    86    1
   106    85   125    1
   107    85   126    1
   108    86    87    1
   109    86   127    1
   110    86   128    1
   111    87    88    1
   112    87   129    1
   113    87   130    1
   114    88   131    1
   115    88   132    1
   116    88   133    1
   117    89    90    2
   118    89    91    1
   119    91    92    1
   120    91   115    2
   121    92    93    2
   122    92   134    1
   123    93    94    1
   124    93   135    1
   125    94    95    1
   126    94   114    2
   127    95    96    2
   128    95   136    1
   129    96    97    1
   130    96   137    1
   131    97    98    1
   132    97   113    2
   133    98    99    2
   134    98   138    1
   135    99   100    1
   136    99   139    1
   137   100   101    1
   138   100   112    2
   139   101   102    2
   140   101   103    1
   141   103   104    1
   142   103   108    1
   143   104   105    1
   144   104   140    1
   145   104   141    1
   146   105   106    1
   147   105   142    1
   148   105   143    1
   149   106   107    1
   150   106   144    1
   151   106   145    1
   152   107   146    1
   153   107   147    1
   154   107   148    1
   155   108   109    1
   156   108   149    1
   157   108   150    1
   158   109   110    1
   159   109   151    1
   160   109   152    1
   161   110   111    1
   162   110   153    1
   163   110   154    1
   164   111   155    1
   165   111   156    1
   166   111   157    1
   167   112   113    1
   168   113   114    1
   169   114   115    1
   170   158   159    1
   171   158   160    1
@<TRIPOS>SUBSTRUCTURE
     1 RES1      160 GROUP             0 ****  ****    0  
