@<TRIPOS>MOLECULE
am_c3_9H2O_c0_0_nunpairedes_0_charge_3 Charge: 3 Unpaired_Electrons: 5 XTB_Unpaired_Electrons: 0 XTB_Charge: 3
   248   251     1     0     0
SMALL
NoCharges
****
Generated from Architector

@<TRIPOS>ATOM
     1 Sm1       0.0259   -0.2259   -0.2240   Sm        1 RES1   0.0000
     2 C1       -0.7007    0.4219   -6.9262   C.3       1 RES1   0.0000
     3 C2       -1.7371    0.9097   -5.9285   C.3       1 RES1   0.0000
     4 C3       -1.1365    1.6548   -4.7350   C.3       1 RES1   0.0000
     5 C4       -2.2849    2.2726   -3.9384   C.3       1 RES1   0.0000
     6 N1       -1.8897    3.1687   -2.8604   N.am      1 RES1   0.0000
     7 C5       -2.4385    4.5194   -2.9165   C.3       1 RES1   0.0000
     8 C6       -1.6467    5.4868   -3.8042   C.3       1 RES1   0.0000
     9 C7       -1.9351    5.3231   -5.2991   C.3       1 RES1   0.0000
    10 C8       -1.3089    6.4453   -6.1174   C.3       1 RES1   0.0000
    11 C9       -1.2032    2.6572   -1.8323   C.2       1 RES1   0.0000
    12 O1       -1.0057    1.4373   -1.7256   O.2       1 RES1   0.0000
    13 C10      -0.6831    3.6349   -0.7900   C.3       1 RES1   0.0000
    14 C11       0.6890    3.2513   -0.2354   C.2       1 RES1   0.0000
    15 O2        1.0748    2.0724   -0.2022   O.2       1 RES1   0.0000
    16 N2        1.4380    4.2615    0.2243   N.am      1 RES1   0.0000
    17 C12       2.7879    3.9610    0.6988   C.3       1 RES1   0.0000
    18 C13       3.7252    3.4013   -0.3727   C.3       1 RES1   0.0000
    19 C14       4.0661    4.4097   -1.4661   C.3       1 RES1   0.0000
    20 C15       4.9246    3.7845   -2.5553   C.3       1 RES1   0.0000
    21 C16       0.9115    5.6026    0.4770   C.3       1 RES1   0.0000
    22 C17       1.1207    6.6125   -0.6640   C.3       1 RES1   0.0000
    23 C18       2.3988    7.4385   -0.5011   C.3       1 RES1   0.0000
    24 C19       2.6120    8.3895   -1.6722   C.3       1 RES1   0.0000
    25 H1       -1.1809   -0.1304   -7.7295   H         1 RES1   0.0000
    26 H2        0.0293   -0.2199   -6.4432   H         1 RES1   0.0000
    27 H3       -0.1838    1.2638   -7.3742   H         1 RES1   0.0000
    28 H4       -2.2971    0.0524   -5.5599   H         1 RES1   0.0000
    29 H5       -2.4375    1.5713   -6.4433   H         1 RES1   0.0000
    30 H6       -0.4631    2.4380   -5.0827   H         1 RES1   0.0000
    31 H7       -0.5610    0.9751   -4.1039   H         1 RES1   0.0000
    32 H8       -2.8914    1.4635   -3.5218   H         1 RES1   0.0000
    33 H9       -2.9136    2.8467   -4.6154   H         1 RES1   0.0000
    34 H10      -2.5342    4.9206   -1.9078   H         1 RES1   0.0000
    35 H11      -3.4534    4.4462   -3.3152   H         1 RES1   0.0000
    36 H12      -0.5766    5.3712   -3.6211   H         1 RES1   0.0000
    37 H13      -1.9295    6.5005   -3.5160   H         1 RES1   0.0000
    38 H14      -3.0168    5.3379   -5.4551   H         1 RES1   0.0000
    39 H15      -1.5484    4.3681   -5.6585   H         1 RES1   0.0000
    40 H16      -1.6851    7.4116   -5.7953   H         1 RES1   0.0000
    41 H17      -1.5514    6.3226   -7.1685   H         1 RES1   0.0000
    42 H18      -0.2275    6.4448   -6.0134   H         1 RES1   0.0000
    43 H19      -1.3854    3.6102    0.0473   H         1 RES1   0.0000
    44 H20      -0.6372    4.6343   -1.2046   H         1 RES1   0.0000
    45 H21       2.7128    3.2347    1.5151   H         1 RES1   0.0000
    46 H22       3.2103    4.8807    1.0967   H         1 RES1   0.0000
    47 H23       3.2736    2.5131   -0.8177   H         1 RES1   0.0000
    48 H24       4.6471    3.1019    0.1305   H         1 RES1   0.0000
    49 H25       4.6048    5.2513   -1.0294   H         1 RES1   0.0000
    50 H26       3.1476    4.7877   -1.9149   H         1 RES1   0.0000
    51 H27       5.8476    3.3977   -2.1322   H         1 RES1   0.0000
    52 H28       5.1821    4.5206   -3.3117   H         1 RES1   0.0000
    53 H29       4.3824    2.9710   -3.0292   H         1 RES1   0.0000
    54 H30       1.4099    5.9916    1.3667   H         1 RES1   0.0000
    55 H31      -0.1490    5.5250    0.7215   H         1 RES1   0.0000
    56 H32       0.2754    7.3012   -0.6800   H         1 RES1   0.0000
    57 H33       1.1415    6.0987   -1.6269   H         1 RES1   0.0000
    58 H34       3.2593    6.7750   -0.4190   H         1 RES1   0.0000
    59 H35       2.3318    8.0189    0.4210   H         1 RES1   0.0000
    60 H36       2.6756    7.8418   -2.6089   H         1 RES1   0.0000
    61 H37       3.5348    8.9468   -1.5414   H         1 RES1   0.0000
    62 H38       1.7951    9.1014   -1.7468   H         1 RES1   0.0000
    63 C20       6.9130   -1.3867    2.4550   C.3       1 RES1   0.0000
    64 C21       5.9694   -0.1970    2.5693   C.3       1 RES1   0.0000
    65 C22       4.5275   -0.5819    2.9057   C.3       1 RES1   0.0000
    66 C23       3.7176    0.6805    3.2173   C.3       1 RES1   0.0000
    67 N3        2.4213    0.4067    3.8277   N.am      1 RES1   0.0000
    68 C24       2.2602    0.6683    5.2550   C.3       1 RES1   0.0000
    69 C25       2.6450   -0.5075    6.1684   C.3       1 RES1   0.0000
    70 C26       4.1185   -0.4743    6.5798   C.3       1 RES1   0.0000
    71 C27       4.4759   -1.6447    7.4850   C.3       1 RES1   0.0000
    72 C28       1.4361   -0.0358    3.0368   C.2       1 RES1   0.0000
    73 O3        1.5564   -0.0688    1.8019   O.2       1 RES1   0.0000
    74 C29       0.1653   -0.4912    3.7547   C.3       1 RES1   0.0000
    75 C30      -0.6980   -1.4600    2.9398   C.2       1 RES1   0.0000
    76 O4       -0.5851   -1.5531    1.7112   O.2       1 RES1   0.0000
    77 N4       -1.5493   -2.2180    3.6389   N.am      1 RES1   0.0000
    78 C31      -2.2147   -3.3112    2.9278   C.3       1 RES1   0.0000
    79 C32      -1.2723   -4.4239    2.4616   C.3       1 RES1   0.0000
    80 C33      -0.6793   -5.2552    3.5950   C.3       1 RES1   0.0000
    81 C34       0.2099   -6.3820    3.0873   C.3       1 RES1   0.0000
    82 C35      -1.9743   -1.8907    4.9966   C.3       1 RES1   0.0000
    83 C36      -1.2828   -2.6858    6.1157   C.3       1 RES1   0.0000
    84 C37      -2.1107   -3.8952    6.5576   C.3       1 RES1   0.0000
    85 C38      -1.4045   -4.7026    7.6377   C.3       1 RES1   0.0000
    86 H39       7.9325   -1.0394    2.3174   H         1 RES1   0.0000
    87 H40       6.6675   -2.0299    1.6173   H         1 RES1   0.0000
    88 H41       6.8812   -1.9851    3.3598   H         1 RES1   0.0000
    89 H42       5.9927    0.3845    1.6459   H         1 RES1   0.0000
    90 H43       6.3463    0.4490    3.3626   H         1 RES1   0.0000
    91 H44       4.5314   -1.2455    3.7699   H         1 RES1   0.0000
    92 H45       4.0537   -1.1202    2.0846   H         1 RES1   0.0000
    93 H46       3.5547    1.2414    2.2914   H         1 RES1   0.0000
    94 H47       4.2817    1.3073    3.9054   H         1 RES1   0.0000
    95 H48       1.2321    0.9807    5.4518   H         1 RES1   0.0000
    96 H49       2.8970    1.5168    5.5149   H         1 RES1   0.0000
    97 H50       2.4229   -1.4581    5.6769   H         1 RES1   0.0000
    98 H51       2.0391   -0.4527    7.0742   H         1 RES1   0.0000
    99 H52       4.3153    0.4610    7.1076   H         1 RES1   0.0000
   100 H53       4.7552   -0.4970    5.6949   H         1 RES1   0.0000
   101 H54       3.8884   -1.6183    8.3972   H         1 RES1   0.0000
   102 H55       5.5254   -1.6003    7.7564   H         1 RES1   0.0000
   103 H56       4.2914   -2.5927    6.9867   H         1 RES1   0.0000
   104 H57      -0.4261    0.3869    4.0203   H         1 RES1   0.0000
   105 H58       0.4524   -0.9923    4.6759   H         1 RES1   0.0000
   106 H59      -2.7104   -2.9004    2.0423   H         1 RES1   0.0000
   107 H60      -2.9655   -3.7290    3.5940   H         1 RES1   0.0000
   108 H61      -0.4842   -3.9908    1.8449   H         1 RES1   0.0000
   109 H62      -1.8636   -5.0877    1.8293   H         1 RES1   0.0000
   110 H63      -1.4943   -5.6965    4.1691   H         1 RES1   0.0000
   111 H64      -0.0998   -4.6193    4.2640   H         1 RES1   0.0000
   112 H65      -0.3356   -7.0003    2.3805   H         1 RES1   0.0000
   113 H66       0.5246   -7.0143    3.9128   H         1 RES1   0.0000
   114 H67       1.0977   -5.9908    2.5986   H         1 RES1   0.0000
   115 H68      -3.0456   -2.0889    5.0659   H         1 RES1   0.0000
   116 H69      -1.8438   -0.8187    5.1573   H         1 RES1   0.0000
   117 H70      -1.1475   -2.0339    6.9795   H         1 RES1   0.0000
   118 H71      -0.2919   -3.0146    5.7969   H         1 RES1   0.0000
   119 H72      -2.3105   -4.5387    5.7005   H         1 RES1   0.0000
   120 H73      -3.0702   -3.5434    6.9425   H         1 RES1   0.0000
   121 H74      -0.4402   -5.0581    7.2852   H         1 RES1   0.0000
   122 H75      -2.0038   -5.5640    7.9154   H         1 RES1   0.0000
   123 H76      -1.2448   -4.0998    8.5268   H         1 RES1   0.0000
   124 C39       2.5812   -0.7615   -7.6230   C.3       1 RES1   0.0000
   125 C40       2.7416    0.3305   -6.5717   C.3       1 RES1   0.0000
   126 C41       2.6073   -0.2240   -5.1548   C.3       1 RES1   0.0000
   127 C42       3.0083    0.8094   -4.0976   C.3       1 RES1   0.0000
   128 N5        3.6136    0.1811   -2.9301   N.am      1 RES1   0.0000
   129 C43       5.0689    0.1101   -2.8801   C.3       1 RES1   0.0000
   130 C44       5.6374   -1.0936   -3.6534   C.3       1 RES1   0.0000
   131 C45       6.0587   -0.6888   -5.0695   C.3       1 RES1   0.0000
   132 C46       6.3470   -1.8844   -5.9652   C.3       1 RES1   0.0000
   133 C47       2.7988   -0.3627   -2.0230   C.2       1 RES1   0.0000
   134 O5        1.5683   -0.2089   -2.0716   O.2       1 RES1   0.0000
   135 C48       3.4624   -1.1603   -0.9034   C.3       1 RES1   0.0000
   136 C49       2.5850   -2.2732   -0.3208   C.2       1 RES1   0.0000
   137 O6        1.3523   -2.1788   -0.3083   O.2       1 RES1   0.0000
   138 N6        3.2206   -3.3284    0.1920   N.am      1 RES1   0.0000
   139 C50       2.4350   -4.4241    0.7540   C.3       1 RES1   0.0000
   140 C51       1.6070   -5.2358   -0.2446   C.3       1 RES1   0.0000
   141 C52       2.4065   -5.8792   -1.3762   C.3       1 RES1   0.0000
   142 C53       1.6639   -7.0395   -2.0323   C.3       1 RES1   0.0000
   143 C54       4.6655   -3.3868    0.3523   C.3       1 RES1   0.0000
   144 C55       5.3842   -4.1098   -0.7981   C.3       1 RES1   0.0000
   145 C56       5.8740   -5.4906   -0.3609   C.3       1 RES1   0.0000
   146 C57       6.4502   -6.2832   -1.5237   C.3       1 RES1   0.0000
   147 H77       2.5912   -0.3299   -8.6198   H         1 RES1   0.0000
   148 H78       1.6494   -1.3065   -7.4999   H         1 RES1   0.0000
   149 H79       3.3961   -1.4776   -7.5521   H         1 RES1   0.0000
   150 H80       2.0153    1.1262   -6.7345   H         1 RES1   0.0000
   151 H81       3.7308    0.7736   -6.6979   H         1 RES1   0.0000
   152 H82       3.2499   -1.0983   -5.0695   H         1 RES1   0.0000
   153 H83       1.5872   -0.5587   -4.9674   H         1 RES1   0.0000
   154 H84       2.1367    1.3773   -3.7646   H         1 RES1   0.0000
   155 H85       3.7341    1.5041   -4.5168   H         1 RES1   0.0000
   156 H86       5.3967    0.1094   -1.8394   H         1 RES1   0.0000
   157 H87       5.4662    1.0222   -3.3303   H         1 RES1   0.0000
   158 H88       4.8899   -1.8898   -3.7013   H         1 RES1   0.0000
   159 H89       6.5020   -1.4909   -3.1207   H         1 RES1   0.0000
   160 H90       6.9468   -0.0580   -4.9974   H         1 RES1   0.0000
   161 H91       5.2692   -0.0963   -5.5300   H         1 RES1   0.0000
   162 H92       7.1716   -2.4729   -5.5769   H         1 RES1   0.0000
   163 H93       6.6070   -1.5391   -6.9609   H         1 RES1   0.0000
   164 H94       5.4757   -2.5304   -6.0469   H         1 RES1   0.0000
   165 H95       3.6790   -0.4592   -0.0910   H         1 RES1   0.0000
   166 H96       4.3793   -1.5925   -1.2830   H         1 RES1   0.0000
   167 H97       1.7414   -3.9978    1.4860   H         1 RES1   0.0000
   168 H98       3.1325   -5.0794    1.2714   H         1 RES1   0.0000
   169 H99       0.8302   -4.5952   -0.6506   H         1 RES1   0.0000
   170 H100      1.1257   -6.0294    0.3290   H         1 RES1   0.0000
   171 H101      3.3390   -6.2726   -0.9774   H         1 RES1   0.0000
   172 H102      2.6549   -5.1305   -2.1319   H         1 RES1   0.0000
   173 H103      1.4299   -7.7939   -1.2855   H         1 RES1   0.0000
   174 H104      2.2885   -7.5001   -2.7943   H         1 RES1   0.0000
   175 H105      0.7357   -6.7197   -2.4990   H         1 RES1   0.0000
   176 H106      4.8775   -3.9128    1.2865   H         1 RES1   0.0000
   177 H107      5.0415   -2.3722    0.4681   H         1 RES1   0.0000
   178 H108      6.2434   -3.5222   -1.1225   H         1 RES1   0.0000
   179 H109      4.7155   -4.2099   -1.6549   H         1 RES1   0.0000
   180 H110      5.0478   -6.0507    0.0835   H         1 RES1   0.0000
   181 H111      6.6363   -5.3625    0.4103   H         1 RES1   0.0000
   182 H112      5.7111   -6.4066   -2.3115   H         1 RES1   0.0000
   183 H113      6.7604   -7.2676   -1.1880   H         1 RES1   0.0000
   184 H114      7.3136   -5.7749   -1.9419   H         1 RES1   0.0000
   185 C58      -5.7929   -1.7528    3.9823   C.3       1 RES1   0.0000
   186 C59      -5.5107   -0.4333    3.2769   C.3       1 RES1   0.0000
   187 C60      -4.8927   -0.6595    1.9001   C.3       1 RES1   0.0000
   188 C61      -4.8695    0.6125    1.0501   C.3       1 RES1   0.0000
   189 N7       -4.6201    0.2984   -0.3516   N.am      1 RES1   0.0000
   190 C62      -5.6872    0.5125   -1.3173   C.3       1 RES1   0.0000
   191 C63      -6.5849   -0.7086   -1.5677   C.3       1 RES1   0.0000
   192 C64      -7.7690   -0.7876   -0.6058   C.3       1 RES1   0.0000
   193 C65      -8.6513   -1.9824   -0.9405   C.3       1 RES1   0.0000
   194 C66      -3.4241   -0.2103   -0.6851   C.2       1 RES1   0.0000
   195 O7       -2.4723   -0.1869    0.1086   O.2       1 RES1   0.0000
   196 C67      -3.3503   -0.8175   -2.0744   C.3       1 RES1   0.0000
   197 C68      -2.0861   -1.5977   -2.3960   C.2       1 RES1   0.0000
   198 O8       -1.1005   -1.5908   -1.6469   O.2       1 RES1   0.0000
   199 N8       -2.1062   -2.3269   -3.5129   N.am      1 RES1   0.0000
   200 C69      -0.9673   -3.2101   -3.7458   C.3       1 RES1   0.0000
   201 C70      -0.8054   -4.2581   -2.6439   C.3       1 RES1   0.0000
   202 C71      -1.9814   -5.2220   -2.5126   C.3       1 RES1   0.0000
   203 C72      -1.9517   -6.0212   -1.2147   C.3       1 RES1   0.0000
   204 C73      -3.1097   -2.2029   -4.5571   C.3       1 RES1   0.0000
   205 C74      -4.2188   -3.2663   -4.5524   C.3       1 RES1   0.0000
   206 C75      -3.8947   -4.4514   -5.4627   C.3       1 RES1   0.0000
   207 C76      -5.0994   -5.3642   -5.6392   C.3       1 RES1   0.0000
   208 H115     -6.1698   -1.5803    4.9858   H         1 RES1   0.0000
   209 H116     -4.8958   -2.3618    4.0483   H         1 RES1   0.0000
   210 H117     -6.5380   -2.3224    3.4356   H         1 RES1   0.0000
   211 H118     -4.8501    0.1831    3.8882   H         1 RES1   0.0000
   212 H119     -6.4509    0.1069    3.1670   H         1 RES1   0.0000
   213 H120     -5.4813   -1.4130    1.3758   H         1 RES1   0.0000
   214 H121     -3.8760   -1.0409    1.9989   H         1 RES1   0.0000
   215 H122     -4.0984    1.3013    1.4082   H         1 RES1   0.0000
   216 H123     -5.8311    1.1176    1.1214   H         1 RES1   0.0000
   217 H124     -5.2450    0.8515   -2.2566   H         1 RES1   0.0000
   218 H125     -6.3142    1.3305   -0.9564   H         1 RES1   0.0000
   219 H126     -6.0127   -1.6352   -1.4852   H         1 RES1   0.0000
   220 H127     -6.9703   -0.6492   -2.5871   H         1 RES1   0.0000
   221 H128     -8.3547    0.1303   -0.6843   H         1 RES1   0.0000
   222 H129     -7.4082   -0.8743    0.4210   H         1 RES1   0.0000
   223 H130     -9.0256   -1.9040   -1.9572   H         1 RES1   0.0000
   224 H131     -9.5005   -2.0267   -0.2672   H         1 RES1   0.0000
   225 H132     -8.0920   -2.9106   -0.8534   H         1 RES1   0.0000
   226 H133     -3.4512   -0.0099   -2.7987   H         1 RES1   0.0000
   227 H134     -4.2055   -1.4774   -2.2035   H         1 RES1   0.0000
   228 H135     -0.0568   -2.6001   -3.7705   H         1 RES1   0.0000
   229 H136     -1.1105   -3.6844   -4.7142   H         1 RES1   0.0000
   230 H137     -0.6685   -3.7376   -1.6951   H         1 RES1   0.0000
   231 H138      0.1054   -4.8098   -2.8667   H         1 RES1   0.0000
   232 H139     -1.9883   -5.9101   -3.3584   H         1 RES1   0.0000
   233 H140     -2.9108   -4.6543   -2.5274   H         1 RES1   0.0000
   234 H141     -1.0729   -6.6557   -1.1599   H         1 RES1   0.0000
   235 H142     -2.8313   -6.6584   -1.1524   H         1 RES1   0.0000
   236 H143     -1.9465   -5.3483   -0.3588   H         1 RES1   0.0000
   237 H144     -2.5893   -2.2627   -5.5171   H         1 RES1   0.0000
   238 H145     -3.5649   -1.2143   -4.4935   H         1 RES1   0.0000
   239 H146     -5.1351   -2.8013   -4.9195   H         1 RES1   0.0000
   240 H147     -4.4184   -3.6159   -3.5377   H         1 RES1   0.0000
   241 H148     -3.0585   -5.0224   -5.0589   H         1 RES1   0.0000
   242 H149     -3.5974   -4.0648   -6.4401   H         1 RES1   0.0000
   243 H150     -5.4257   -5.7686   -4.6852   H         1 RES1   0.0000
   244 H151     -4.8505   -6.1914   -6.2962   H         1 RES1   0.0000
   245 H152     -5.9260   -4.8147   -6.0807   H         1 RES1   0.0000
   246 O9       -0.9361    1.6110    1.6324   O.3       1 RES1   0.0000
   247 H153     -0.4301    2.0360    2.3356   H         1 RES1   0.0000
   248 H154     -1.7614    1.2717    2.0040   H         1 RES1   0.0000
@<TRIPOS>BOND
     1     1    12    1
     2     1    15    1
     3     1    73    1
     4     1    76    1
     5     1   134    1
     6     1   137    1
     7     1   195    1
     8     1   198    1
     9     1   246    1
    10     2     3    1
    11     2    25    1
    12     2    26    1
    13     2    27    1
    14     3     4    1
    15     3    28    1
    16     3    29    1
    17     4     5    1
    18     4    30    1
    19     4    31    1
    20     5     6    1
    21     5    32    1
    22     5    33    1
    23     6     7    1
    24     6    11    1
    25     7     8    1
    26     7    34    1
    27     7    35    1
    28     8     9    1
    29     8    36    1
    30     8    37    1
    31     9    10    1
    32     9    38    1
    33     9    39    1
    34    10    40    1
    35    10    41    1
    36    10    42    1
    37    11    12    2
    38    11    13    1
    39    13    14    1
    40    13    43    1
    41    13    44    1
    42    14    15    2
    43    14    16    1
    44    16    17    1
    45    16    21    1
    46    17    18    1
    47    17    45    1
    48    17    46    1
    49    18    19    1
    50    18    47    1
    51    18    48    1
    52    19    20    1
    53    19    49    1
    54    19    50    1
    55    20    51    1
    56    20    52    1
    57    20    53    1
    58    21    22    1
    59    21    54    1
    60    21    55    1
    61    22    23    1
    62    22    56    1
    63    22    57    1
    64    23    24    1
    65    23    58    1
    66    23    59    1
    67    24    60    1
    68    24    61    1
    69    24    62    1
    70    63    64    1
    71    63    86    1
    72    63    87    1
    73    63    88    1
    74    64    65    1
    75    64    89    1
    76    64    90    1
    77    65    66    1
    78    65    91    1
    79    65    92    1
    80    66    67    1
    81    66    93    1
    82    66    94    1
    83    67    68    1
    84    67    72    1
    85    68    69    1
    86    68    95    1
    87    68    96    1
    88    69    70    1
    89    69    97    1
    90    69    98    1
    91    70    71    1
    92    70    99    1
    93    70   100    1
    94    71   101    1
    95    71   102    1
    96    71   103    1
    97    72    73    2
    98    72    74    1
    99    74    75    1
   100    74   104    1
   101    74   105    1
   102    75    76    2
   103    75    77    1
   104    77    78    1
   105    77    82    1
   106    78    79    1
   107    78   106    1
   108    78   107    1
   109    79    80    1
   110    79   108    1
   111    79   109    1
   112    80    81    1
   113    80   110    1
   114    80   111    1
   115    81   112    1
   116    81   113    1
   117    81   114    1
   118    82    83    1
   119    82   115    1
   120    82   116    1
   121    83    84    1
   122    83   117    1
   123    83   118    1
   124    84    85    1
   125    84   119    1
   126    84   120    1
   127    85   121    1
   128    85   122    1
   129    85   123    1
   130   124   125    1
   131   124   147    1
   132   124   148    1
   133   124   149    1
   134   125   126    1
   135   125   150    1
   136   125   151    1
   137   126   127    1
   138   126   152    1
   139   126   153    1
   140   127   128    1
   141   127   154    1
   142   127   155    1
   143   128   129    1
   144   128   133    1
   145   129   130    1
   146   129   156    1
   147   129   157    1
   148   130   131    1
   149   130   158    1
   150   130   159    1
   151   131   132    1
   152   131   160    1
   153   131   161    1
   154   132   162    1
   155   132   163    1
   156   132   164    1
   157   133   134    2
   158   133   135    1
   159   135   136    1
   160   135   165    1
   161   135   166    1
   162   136   137    2
   163   136   138    1
   164   138   139    1
   165   138   143    1
   166   139   140    1
   167   139   167    1
   168   139   168    1
   169   140   141    1
   170   140   169    1
   171   140   170    1
   172   141   142    1
   173   141   171    1
   174   141   172    1
   175   142   173    1
   176   142   174    1
   177   142   175    1
   178   143   144    1
   179   143   176    1
   180   143   177    1
   181   144   145    1
   182   144   178    1
   183   144   179    1
   184   145   146    1
   185   145   180    1
   186   145   181    1
   187   146   182    1
   188   146   183    1
   189   146   184    1
   190   185   186    1
   191   185   208    1
   192   185   209    1
   193   185   210    1
   194   186   187    1
   195   186   211    1
   196   186   212    1
   197   187   188    1
   198   187   213    1
   199   187   214    1
   200   188   189    1
   201   188   215    1
   202   188   216    1
   203   189   190    1
   204   189   194    1
   205   190   191    1
   206   190   217    1
   207   190   218    1
   208   191   192    1
   209   191   219    1
   210   191   220    1
   211   192   193    1
   212   192   221    1
   213   192   222    1
   214   193   223    1
   215   193   224    1
   216   193   225    1
   217   194   195    2
   218   194   196    1
   219   196   197    1
   220   196   226    1
   221   196   227    1
   222   197   198    2
   223   197   199    1
   224   199   200    1
   225   199   204    1
   226   200   201    1
   227   200   228    1
   228   200   229    1
   229   201   202    1
   230   201   230    1
   231   201   231    1
   232   202   203    1
   233   202   232    1
   234   202   233    1
   235   203   234    1
   236   203   235    1
   237   203   236    1
   238   204   205    1
   239   204   237    1
   240   204   238    1
   241   205   206    1
   242   205   239    1
   243   205   240    1
   244   206   207    1
   245   206   241    1
   246   206   242    1
   247   207   243    1
   248   207   244    1
   249   207   245    1
   250   246   247    1
   251   246   248    1
@<TRIPOS>SUBSTRUCTURE
     1 RES1      248 GROUP             0 ****  ****    0  
