@<TRIPOS>MOLECULE
am_c3_9H2O_c0_0_nunpairedes_0_charge_3 Charge: 3 Unpaired_Electrons: 5 XTB_Unpaired_Electrons: 0 XTB_Charge: 3
   340   345     1     0     0
SMALL
NoCharges
****
Generated from Architector

@<TRIPOS>ATOM
     1 Sm1       0.0706    0.0805   -0.3299   Sm        1 RES1   0.0000
     2 C1        6.3775    3.4171   -0.6833   C.3       1 RES1   0.0000
     3 C2        4.8843    3.1459   -0.7823   C.3       1 RES1   0.0000
     4 C3        4.3711    2.8567   -2.1866   C.3       1 RES1   0.0000
     5 C4        2.8457    2.7479   -2.1881   C.3       1 RES1   0.0000
     6 C5        2.3002    2.4212   -3.5790   C.3       1 RES1   0.0000
     7 C6        0.8950    1.8110   -3.5528   C.3       1 RES1   0.0000
     8 C7       -0.2484    2.8033   -3.7986   C.3       1 RES1   0.0000
     9 C8       -0.3013    4.0214   -2.8693   C.3       1 RES1   0.0000
    10 N1       -1.0839    3.9610   -1.6183   N.am      1 RES1   0.0000
    11 C9       -1.5989    5.2765   -1.2263   C.3       1 RES1   0.0000
    12 C10      -0.5400    6.3759   -1.0316   C.3       1 RES1   0.0000
    13 C11      -1.2163    7.7101   -0.6640   C.3       1 RES1   0.0000
    14 C12      -1.4028    7.9340    0.8413   C.3       1 RES1   0.0000
    15 C13      -0.1542    8.5077    1.5151   C.3       1 RES1   0.0000
    16 C14      -0.1133    8.3683    3.0409   C.3       1 RES1   0.0000
    17 C15      -1.3528    8.8760    3.7752   C.3       1 RES1   0.0000
    18 C16      -1.2777    8.5820    5.2718   C.3       1 RES1   0.0000
    19 C17      -1.3421    2.8242   -0.9899   C.2       1 RES1   0.0000
    20 O1       -0.9777    1.7089   -1.4093   O.2       1 RES1   0.0000
    21 C18      -2.1605    2.7791    0.3033   C.3       1 RES1   0.0000
    22 O2       -1.7203    1.6366    1.0474   O.3       1 RES1   0.0000
    23 C19      -2.7107    1.0268    1.8647   C.3       1 RES1   0.0000
    24 C20      -3.1628   -0.2647    1.1755   C.2       1 RES1   0.0000
    25 O3       -2.3915   -0.7190    0.3135   O.2       1 RES1   0.0000
    26 N2       -4.2994   -0.8395    1.5437   N.am      1 RES1   0.0000
    27 C21      -5.1592   -0.2660    2.5714   C.3       1 RES1   0.0000
    28 C22      -6.0331    0.9082    2.0951   C.3       1 RES1   0.0000
    29 C23      -7.3932    0.4979    1.5205   C.3       1 RES1   0.0000
    30 C24      -7.3986    0.1673    0.0268   C.3       1 RES1   0.0000
    31 C25      -7.1125    1.3811   -0.8603   C.3       1 RES1   0.0000
    32 C26      -7.5383    1.1257   -2.3048   C.3       1 RES1   0.0000
    33 C27      -7.3907    2.3330   -3.2290   C.3       1 RES1   0.0000
    34 C28      -5.9436    2.6421   -3.5893   C.3       1 RES1   0.0000
    35 C29      -4.7234   -2.1061    0.9558   C.3       1 RES1   0.0000
    36 C30      -4.2513   -3.3362    1.7350   C.3       1 RES1   0.0000
    37 C31      -4.8013   -4.6288    1.1202   C.3       1 RES1   0.0000
    38 C32      -4.0148   -5.8745    1.5542   C.3       1 RES1   0.0000
    39 C33      -2.9712   -6.3438    0.5333   C.3       1 RES1   0.0000
    40 C34      -3.5922   -7.1017   -0.6437   C.3       1 RES1   0.0000
    41 C35      -2.5572   -7.7016   -1.6018   C.3       1 RES1   0.0000
    42 C36      -1.9770   -6.7010   -2.5947   C.3       1 RES1   0.0000
    43 H1        6.6557    3.5990    0.3539   H         1 RES1   0.0000
    44 H2        6.9536    2.5700   -1.0464   H         1 RES1   0.0000
    45 H3        6.6514    4.2919   -1.2652   H         1 RES1   0.0000
    46 H4        4.6482    2.2894   -0.1528   H         1 RES1   0.0000
    47 H5        4.3352    4.0037   -0.3965   H         1 RES1   0.0000
    48 H6        4.6718    3.6622   -2.8556   H         1 RES1   0.0000
    49 H7        4.8130    1.9316   -2.5638   H         1 RES1   0.0000
    50 H8        2.5241    1.9687   -1.4809   H         1 RES1   0.0000
    51 H9        2.4414    3.6944   -1.8189   H         1 RES1   0.0000
    52 H10       2.3176    3.3202   -4.1966   H         1 RES1   0.0000
    53 H11       2.9816    1.7035   -4.0397   H         1 RES1   0.0000
    54 H12       0.8249    1.0599   -4.3380   H         1 RES1   0.0000
    55 H13       0.7603    1.2830   -2.5916   H         1 RES1   0.0000
    56 H14      -0.1255    3.2026   -4.8087   H         1 RES1   0.0000
    57 H15      -1.2033    2.2759   -3.7847   H         1 RES1   0.0000
    58 H16       0.7207    4.2923   -2.5985   H         1 RES1   0.0000
    59 H17      -0.7353    4.8518   -3.4337   H         1 RES1   0.0000
    60 H18      -2.2870    5.6023   -2.0161   H         1 RES1   0.0000
    61 H19      -2.1715    5.1951   -0.3056   H         1 RES1   0.0000
    62 H20       0.1644    6.0880   -0.2520   H         1 RES1   0.0000
    63 H21       0.0311    6.5086   -1.9480   H         1 RES1   0.0000
    64 H22      -0.6312    8.5376   -1.0628   H         1 RES1   0.0000
    65 H23      -2.1864    7.7498   -1.1620   H         1 RES1   0.0000
    66 H24      -2.2319    8.6234    0.9910   H         1 RES1   0.0000
    67 H25      -1.6712    6.9943    1.3145   H         1 RES1   0.0000
    68 H26       0.7237    8.0008    1.1094   H         1 RES1   0.0000
    69 H27      -0.0669    9.5604    1.2490   H         1 RES1   0.0000
    70 H28       0.0477    7.3198    3.3055   H         1 RES1   0.0000
    71 H29       0.7521    8.9233    3.4074   H         1 RES1   0.0000
    72 H30      -1.4351    9.9525    3.6317   H         1 RES1   0.0000
    73 H31      -2.2536    8.4125    3.3684   H         1 RES1   0.0000
    74 H32      -0.3829    9.0209    5.7078   H         1 RES1   0.0000
    75 H33      -2.1395    9.0030    5.7845   H         1 RES1   0.0000
    76 H34      -1.2577    7.5084    5.4662   H         1 RES1   0.0000
    77 H35      -2.0475    3.6606    0.9371   H         1 RES1   0.0000
    78 H36      -3.2042    2.6618   -0.0124   H         1 RES1   0.0000
    79 H37      -2.2223    0.7692    2.8147   H         1 RES1   0.0000
    80 H38      -3.5236    1.7188    2.0768   H         1 RES1   0.0000
    81 H39      -5.8085   -1.0630    2.9368   H         1 RES1   0.0000
    82 H40      -4.5298    0.0525    3.4057   H         1 RES1   0.0000
    83 H41      -6.2079    1.5481    2.9611   H         1 RES1   0.0000
    84 H42      -5.5048    1.5019    1.3493   H         1 RES1   0.0000
    85 H43      -7.7847   -0.3486    2.0896   H         1 RES1   0.0000
    86 H44      -8.0840    1.3293    1.6670   H         1 RES1   0.0000
    87 H45      -6.6855   -0.6244   -0.2094   H         1 RES1   0.0000
    88 H46      -8.3934   -0.2065   -0.2201   H         1 RES1   0.0000
    89 H47      -7.6551    2.2452   -0.4725   H         1 RES1   0.0000
    90 H48      -6.0450    1.6146   -0.8369   H         1 RES1   0.0000
    91 H49      -6.9425    0.3027   -2.7051   H         1 RES1   0.0000
    92 H50      -8.5825    0.8089   -2.3058   H         1 RES1   0.0000
    93 H51      -7.9395    2.1239   -4.1477   H         1 RES1   0.0000
    94 H52      -7.8490    3.2067   -2.7642   H         1 RES1   0.0000
    95 H53      -5.4665    1.7690   -4.0275   H         1 RES1   0.0000
    96 H54      -5.9060    3.4495   -4.3145   H         1 RES1   0.0000
    97 H55      -5.3708    2.9429   -2.7157   H         1 RES1   0.0000
    98 H56      -5.8126   -2.1113    0.9245   H         1 RES1   0.0000
    99 H57      -4.3405   -2.1387   -0.0655   H         1 RES1   0.0000
   100 H58      -3.1617   -3.3748    1.7354   H         1 RES1   0.0000
   101 H59      -4.5715   -3.2527    2.7752   H         1 RES1   0.0000
   102 H60      -5.8428   -4.7318    1.4174   H         1 RES1   0.0000
   103 H61      -4.7832   -4.5523    0.0327   H         1 RES1   0.0000
   104 H62      -3.5273   -5.6675    2.5085   H         1 RES1   0.0000
   105 H63      -4.7040   -6.6988    1.7309   H         1 RES1   0.0000
   106 H64      -2.4019   -5.4880    0.1612   H         1 RES1   0.0000
   107 H65      -2.2706   -7.0120    1.0392   H         1 RES1   0.0000
   108 H66      -4.2010   -7.9139   -0.2444   H         1 RES1   0.0000
   109 H67      -4.2597   -6.4418   -1.2026   H         1 RES1   0.0000
   110 H68      -1.7489   -8.1506   -1.0215   H         1 RES1   0.0000
   111 H69      -3.0286   -8.5023   -2.1721   H         1 RES1   0.0000
   112 H70      -1.5044   -5.8618   -2.0861   H         1 RES1   0.0000
   113 H71      -1.2313   -7.1883   -3.2179   H         1 RES1   0.0000
   114 H72      -2.7579   -6.3155   -3.2457   H         1 RES1   0.0000
   115 C37       2.7103   -7.7497    0.0046   C.3       1 RES1   0.0000
   116 C38       2.1640   -6.3521    0.2641   C.3       1 RES1   0.0000
   117 C39       1.4792   -5.7389   -0.9584   C.3       1 RES1   0.0000
   118 C40       2.4249   -5.5447   -2.1416   C.3       1 RES1   0.0000
   119 C41       1.7740   -4.7956   -3.3070   C.3       1 RES1   0.0000
   120 C42       1.4486   -3.3148   -3.0573   C.3       1 RES1   0.0000
   121 C43       2.4910   -2.3430   -3.6153   C.3       1 RES1   0.0000
   122 C44       3.8549   -2.4003   -2.9357   C.3       1 RES1   0.0000
   123 N3        4.0347   -1.7967   -1.6008   N.am      1 RES1   0.0000
   124 C45       5.3968   -2.0223   -1.1101   C.3       1 RES1   0.0000
   125 C46       5.6946   -3.4730   -0.6943   C.3       1 RES1   0.0000
   126 C47       7.0540   -3.5369    0.0151   C.3       1 RES1   0.0000
   127 C48       6.9598   -3.2070    1.5063   C.3       1 RES1   0.0000
   128 C49       6.5956   -4.4350    2.3397   C.3       1 RES1   0.0000
   129 C50       6.4101   -4.1063    3.8197   C.3       1 RES1   0.0000
   130 C51       7.6937   -3.6587    4.5137   C.3       1 RES1   0.0000
   131 C52       7.4850   -3.4896    6.0133   C.3       1 RES1   0.0000
   132 C53       3.1658   -0.9975   -0.9962   C.2       1 RES1   0.0000
   133 O4        1.9825   -0.8255   -1.3554   O.2       1 RES1   0.0000
   134 C54       3.6191   -0.2206    0.2550   C.3       1 RES1   0.0000
   135 O5        2.5654    0.6847    0.5424   O.3       1 RES1   0.0000
   136 C55       2.7957    1.5637    1.6371   C.3       1 RES1   0.0000
   137 C56       1.6563    2.5852    1.5517   C.2       1 RES1   0.0000
   138 O6        0.7222    2.3314    0.7679   O.2       1 RES1   0.0000
   139 N4        1.7046    3.6879    2.2886   N.am      1 RES1   0.0000
   140 C57       2.7955    4.0061    3.2008   C.3       1 RES1   0.0000
   141 C58       3.9912    4.7463    2.5735   C.3       1 RES1   0.0000
   142 C59       3.6935    6.2026    2.1973   C.3       1 RES1   0.0000
   143 C60       3.1257    6.3956    0.7820   C.3       1 RES1   0.0000
   144 C61       4.1687    6.8137   -0.2586   C.3       1 RES1   0.0000
   145 C62       3.5087    7.0574   -1.6174   C.3       1 RES1   0.0000
   146 C63       4.4676    7.5803   -2.6875   C.3       1 RES1   0.0000
   147 C64       5.3622    6.5032   -3.2838   C.3       1 RES1   0.0000
   148 C65       0.5654    4.6023    2.2684   C.3       1 RES1   0.0000
   149 C66      -0.5581    4.1508    3.2144   C.3       1 RES1   0.0000
   150 C67      -1.7752    5.0712    3.0949   C.3       1 RES1   0.0000
   151 C68      -3.0751    4.6038    3.7669   C.3       1 RES1   0.0000
   152 C69      -4.2337    4.4336    2.7772   C.3       1 RES1   0.0000
   153 C70      -4.6247    5.6891    1.9931   C.3       1 RES1   0.0000
   154 C71      -5.7813    5.4423    1.0167   C.3       1 RES1   0.0000
   155 C72      -5.4005    4.5951   -0.1950   C.3       1 RES1   0.0000
   156 H73       3.0794   -8.1870    0.9282   H         1 RES1   0.0000
   157 H74       1.9276   -8.3932   -0.3889   H         1 RES1   0.0000
   158 H75       3.5300   -7.7249   -0.7065   H         1 RES1   0.0000
   159 H76       1.4318   -6.4136    1.0750   H         1 RES1   0.0000
   160 H77       2.9777   -5.6959    0.5907   H         1 RES1   0.0000
   161 H78       0.6536   -6.3867   -1.2581   H         1 RES1   0.0000
   162 H79       1.0655   -4.7656   -0.6742   H         1 RES1   0.0000
   163 H80       3.3173   -5.0256   -1.7903   H         1 RES1   0.0000
   164 H81       2.7346   -6.5245   -2.5056   H         1 RES1   0.0000
   165 H82       2.4254   -4.8694   -4.1789   H         1 RES1   0.0000
   166 H83       0.8553   -5.3273   -3.5600   H         1 RES1   0.0000
   167 H84       0.5085   -3.0794   -3.5579   H         1 RES1   0.0000
   168 H85       1.3123   -3.1047   -1.9948   H         1 RES1   0.0000
   169 H86       2.6742   -2.5962   -4.6624   H         1 RES1   0.0000
   170 H87       2.0966   -1.3264   -3.5852   H         1 RES1   0.0000
   171 H88       4.1624   -3.4452   -2.8625   H         1 RES1   0.0000
   172 H89       4.5810   -1.8910   -3.5805   H         1 RES1   0.0000
   173 H90       6.0940   -1.7391   -1.9063   H         1 RES1   0.0000
   174 H91       5.6030   -1.3875   -0.2515   H         1 RES1   0.0000
   175 H92       4.9133   -3.8355   -0.0216   H         1 RES1   0.0000
   176 H93       5.7196   -4.1203   -1.5707   H         1 RES1   0.0000
   177 H94       7.4746   -4.5359   -0.0932   H         1 RES1   0.0000
   178 H95       7.7404   -2.8513   -0.4831   H         1 RES1   0.0000
   179 H96       7.9166   -2.8174    1.8493   H         1 RES1   0.0000
   180 H97       6.2102   -2.4256    1.6681   H         1 RES1   0.0000
   181 H98       5.6721   -4.8771    1.9514   H         1 RES1   0.0000
   182 H99       7.3833   -5.1822    2.2331   H         1 RES1   0.0000
   183 H100      6.0331   -4.9953    4.3297   H         1 RES1   0.0000
   184 H101      5.6636   -3.3150    3.9173   H         1 RES1   0.0000
   185 H102      8.4732   -4.3997    4.3397   H         1 RES1   0.0000
   186 H103      8.0339   -2.7111    4.0947   H         1 RES1   0.0000
   187 H104      7.1815   -4.4304    6.4669   H         1 RES1   0.0000
   188 H105      8.4069   -3.1679    6.4903   H         1 RES1   0.0000
   189 H106      6.7143   -2.7467    6.2169   H         1 RES1   0.0000
   190 H107      3.7690   -0.9083    1.0929   H         1 RES1   0.0000
   191 H108      4.5480    0.3321    0.0635   H         1 RES1   0.0000
   192 H109      2.7612    1.0153    2.5890   H         1 RES1   0.0000
   193 H110      3.7747    2.0524    1.5592   H         1 RES1   0.0000
   194 H111      2.3793    4.6358    3.9905   H         1 RES1   0.0000
   195 H112      3.1395    3.0799    3.6660   H         1 RES1   0.0000
   196 H113      4.7806    4.7330    3.3277   H         1 RES1   0.0000
   197 H114      4.3686    4.2140    1.7007   H         1 RES1   0.0000
   198 H115      3.0076    6.6174    2.9404   H         1 RES1   0.0000
   199 H116      4.6194    6.7728    2.2732   H         1 RES1   0.0000
   200 H117      2.6292    5.4796    0.4447   H         1 RES1   0.0000
   201 H118      2.3736    7.1849    0.8101   H         1 RES1   0.0000
   202 H119      4.6547    7.7343    0.0686   H         1 RES1   0.0000
   203 H120      4.9422    6.0504   -0.3428   H         1 RES1   0.0000
   204 H121      3.0507    6.1265   -1.9648   H         1 RES1   0.0000
   205 H122      2.7074    7.7883   -1.4809   H         1 RES1   0.0000
   206 H123      3.8829    8.0286   -3.4918   H         1 RES1   0.0000
   207 H124      5.0881    8.3659   -2.2572   H         1 RES1   0.0000
   208 H125      6.0138    6.0712   -2.5293   H         1 RES1   0.0000
   209 H126      5.9875    6.9307   -4.0616   H         1 RES1   0.0000
   210 H127      4.7651    5.7105   -3.7322   H         1 RES1   0.0000
   211 H128      0.9290    5.5928    2.5410   H         1 RES1   0.0000
   212 H129      0.1818    4.6297    1.2472   H         1 RES1   0.0000
   213 H130     -0.8163    3.1261    2.9454   H         1 RES1   0.0000
   214 H131     -0.1923    4.1544    4.2411   H         1 RES1   0.0000
   215 H132     -1.5092    6.0431    3.4950   H         1 RES1   0.0000
   216 H133     -1.9760    5.2171    2.0354   H         1 RES1   0.0000
   217 H134     -2.9163    3.6532    4.2798   H         1 RES1   0.0000
   218 H135     -3.3716    5.3221    4.5286   H         1 RES1   0.0000
   219 H136     -3.9635    3.6558    2.0633   H         1 RES1   0.0000
   220 H137     -5.1119    4.0895    3.3268   H         1 RES1   0.0000
   221 H138     -4.9186    6.4721    2.6921   H         1 RES1   0.0000
   222 H139     -3.7788    6.0718    1.4184   H         1 RES1   0.0000
   223 H140     -6.6092    4.9631    1.5420   H         1 RES1   0.0000
   224 H141     -6.1392    6.4062    0.6520   H         1 RES1   0.0000
   225 H142     -5.1524    3.5755    0.0974   H         1 RES1   0.0000
   226 H143     -6.2349    4.5449   -0.8902   H         1 RES1   0.0000
   227 H144     -4.5482    5.0251   -0.7197   H         1 RES1   0.0000
   228 C73      -4.1438   -0.4886    6.7378   C.3       1 RES1   0.0000
   229 C74      -3.7458   -1.9309    7.0212   C.3       1 RES1   0.0000
   230 C75      -2.6808   -2.4421    6.0553   C.3       1 RES1   0.0000
   231 C76      -2.3243   -3.8969    6.3494   C.3       1 RES1   0.0000
   232 C77      -1.2976   -4.4842    5.3807   C.3       1 RES1   0.0000
   233 C78       0.0627   -3.7985    5.5090   C.3       1 RES1   0.0000
   234 C79       1.1932   -4.5553    4.8119   C.3       1 RES1   0.0000
   235 C80       1.1380   -4.4588    3.2836   C.3       1 RES1   0.0000
   236 N5        1.5668   -3.1595    2.7687   N.am      1 RES1   0.0000
   237 C81       2.9967   -2.8754    2.9431   C.3       1 RES1   0.0000
   238 C82       3.3874   -1.5308    3.5700   C.3       1 RES1   0.0000
   239 C83       3.7397   -1.5482    5.0626   C.3       1 RES1   0.0000
   240 C84       2.5850   -1.2544    6.0143   C.3       1 RES1   0.0000
   241 C85       1.8418    0.0353    5.6834   C.3       1 RES1   0.0000
   242 C86       0.8476    0.3975    6.7820   C.3       1 RES1   0.0000
   243 C87      -0.0260    1.5965    6.4172   C.3       1 RES1   0.0000
   244 C88      -0.9624    1.3075    5.2474   C.3       1 RES1   0.0000
   245 C89       0.8347   -2.4251    1.9406   C.2       1 RES1   0.0000
   246 O7        1.1025   -1.2530    1.6166   O.2       1 RES1   0.0000
   247 C90      -0.3871   -3.0553    1.2628   C.3       1 RES1   0.0000
   248 O8       -0.4753   -2.4125   -0.0018   O.3       1 RES1   0.0000
   249 C91      -1.4811   -2.9767   -0.8348   C.3       1 RES1   0.0000
   250 C92      -1.6828   -2.0381   -2.0303   C.2       1 RES1   0.0000
   251 O9       -0.9137   -1.0737   -2.1685   O.2       1 RES1   0.0000
   252 N6       -2.5972   -2.3700   -2.9361   N.am      1 RES1   0.0000
   253 C93      -2.4963   -1.7684   -4.2650   C.3       1 RES1   0.0000
   254 C94      -3.2726   -0.4691   -4.5107   C.3       1 RES1   0.0000
   255 C95      -3.6094   -0.4156   -6.0065   C.3       1 RES1   0.0000
   256 C96      -3.9824    0.9446   -6.5919   C.3       1 RES1   0.0000
   257 C97      -2.9250    2.0434   -6.4796   C.3       1 RES1   0.0000
   258 C98      -1.6968    1.9088   -7.3873   C.3       1 RES1   0.0000
   259 C99      -0.7228    0.7901   -7.0033   C.3       1 RES1   0.0000
   260 C100      0.6984    1.0621   -7.4882   C.3       1 RES1   0.0000
   261 C101     -3.6034   -3.4185   -2.7940   C.3       1 RES1   0.0000
   262 C102     -5.0452   -2.8982   -2.8189   C.3       1 RES1   0.0000
   263 C103     -6.0298   -4.0746   -2.7360   C.3       1 RES1   0.0000
   264 C104     -7.2717   -3.7836   -1.8931   C.3       1 RES1   0.0000
   265 C105     -8.1428   -2.6076   -2.3410   C.3       1 RES1   0.0000
   266 C106     -9.1094   -2.9053   -3.4900   C.3       1 RES1   0.0000
   267 C107     -8.5125   -2.8843   -4.8981   C.3       1 RES1   0.0000
   268 C108     -7.9468   -1.5274   -5.3035   C.3       1 RES1   0.0000
   269 H145     -4.9200   -0.1695    7.4268   H         1 RES1   0.0000
   270 H146     -4.5269   -0.3856    5.7224   H         1 RES1   0.0000
   271 H147     -3.2928    0.1783    6.8576   H         1 RES1   0.0000
   272 H148     -4.6271   -2.5704    6.9571   H         1 RES1   0.0000
   273 H149     -3.3632   -2.0021    8.0393   H         1 RES1   0.0000
   274 H150     -1.7879   -1.8209    6.1507   H         1 RES1   0.0000
   275 H151     -3.0427   -2.3518    5.0245   H         1 RES1   0.0000
   276 H152     -3.2331   -4.4996    6.3078   H         1 RES1   0.0000
   277 H153     -1.9335   -3.9671    7.3662   H         1 RES1   0.0000
   278 H154     -1.6736   -4.3934    4.3563   H         1 RES1   0.0000
   279 H155     -1.1832   -5.5474    5.6039   H         1 RES1   0.0000
   280 H156      0.3023   -3.7279    6.5718   H         1 RES1   0.0000
   281 H157      0.0067   -2.7846    5.1069   H         1 RES1   0.0000
   282 H158      1.1199   -5.6130    5.0709   H         1 RES1   0.0000
   283 H159      2.1568   -4.1925    5.1683   H         1 RES1   0.0000
   284 H160      0.1091   -4.6546    2.9952   H         1 RES1   0.0000
   285 H161      1.7862   -5.2258    2.8490   H         1 RES1   0.0000
   286 H162      3.4316   -2.9447    1.9378   H         1 RES1   0.0000
   287 H163      3.4074   -3.6902    3.5353   H         1 RES1   0.0000
   288 H164      2.5836   -0.8234    3.3833   H         1 RES1   0.0000
   289 H165      4.2763   -1.1755    3.0428   H         1 RES1   0.0000
   290 H166      4.5103   -0.7937    5.2266   H         1 RES1   0.0000
   291 H167      4.1806   -2.5104    5.3253   H         1 RES1   0.0000
   292 H168      2.9977   -1.1720    7.0200   H         1 RES1   0.0000
   293 H169      1.8808   -2.0814    6.0181   H         1 RES1   0.0000
   294 H170      1.2918   -0.0837    4.7467   H         1 RES1   0.0000
   295 H171      2.5579    0.8514    5.5560   H         1 RES1   0.0000
   296 H172      1.3936    0.6171    7.7003   H         1 RES1   0.0000
   297 H173      0.2060   -0.4645    6.9811   H         1 RES1   0.0000
   298 H174      0.6104    2.4521    6.1789   H         1 RES1   0.0000
   299 H175     -0.6250    1.8654    7.2880   H         1 RES1   0.0000
   300 H176     -0.4122    1.2288    4.3093   H         1 RES1   0.0000
   301 H177     -1.6928    2.1069    5.1549   H         1 RES1   0.0000
   302 H178     -1.4940    0.3740    5.4184   H         1 RES1   0.0000
   303 H179     -1.2879   -2.8680    1.8684   H         1 RES1   0.0000
   304 H180     -0.2624   -4.1348    1.1110   H         1 RES1   0.0000
   305 H181     -2.3966   -3.1270   -0.2578   H         1 RES1   0.0000
   306 H182     -1.1315   -3.9328   -1.2550   H         1 RES1   0.0000
   307 H183     -2.8437   -2.5265   -4.9691   H         1 RES1   0.0000
   308 H184     -1.4349   -1.5858   -4.4493   H         1 RES1   0.0000
   309 H185     -2.6546    0.3741   -4.2064   H         1 RES1   0.0000
   310 H186     -4.1763   -0.4507   -3.9011   H         1 RES1   0.0000
   311 H187     -4.4441   -1.0955   -6.1855   H         1 RES1   0.0000
   312 H188     -2.7518   -0.7999   -6.5536   H         1 RES1   0.0000
   313 H189     -4.8964    1.3045   -6.1189   H         1 RES1   0.0000
   314 H190     -4.2122    0.7917   -7.6462   H         1 RES1   0.0000
   315 H191     -2.5958    2.1272   -5.4426   H         1 RES1   0.0000
   316 H192     -3.4132    2.9867   -6.7367   H         1 RES1   0.0000
   317 H193     -1.1592    2.8619   -7.3536   H         1 RES1   0.0000
   318 H194     -2.0249    1.7635   -8.4170   H         1 RES1   0.0000
   319 H195     -1.0503   -0.1531   -7.4412   H         1 RES1   0.0000
   320 H196     -0.7146    0.6721   -5.9167   H         1 RES1   0.0000
   321 H197      0.7203    1.1560   -8.5710   H         1 RES1   0.0000
   322 H198      1.3586    0.2428   -7.2052   H         1 RES1   0.0000
   323 H199      1.0933    1.9827   -7.0607   H         1 RES1   0.0000
   324 H200     -3.4440   -3.9683   -1.8674   H         1 RES1   0.0000
   325 H201     -3.4806   -4.1240   -3.6214   H         1 RES1   0.0000
   326 H202     -5.2182   -2.3451   -3.7397   H         1 RES1   0.0000
   327 H203     -5.2015   -2.2155   -1.9818   H         1 RES1   0.0000
   328 H204     -5.5269   -4.9394   -2.2941   H         1 RES1   0.0000
   329 H205     -6.3251   -4.3616   -3.7411   H         1 RES1   0.0000
   330 H206     -6.9461   -3.6004   -0.8651   H         1 RES1   0.0000
   331 H207     -7.8901   -4.6809   -1.8757   H         1 RES1   0.0000
   332 H208     -7.5204   -1.7533   -2.5984   H         1 RES1   0.0000
   333 H209     -8.7479   -2.3160   -1.4791   H         1 RES1   0.0000
   334 H210     -9.9075   -2.1602   -3.4564   H         1 RES1   0.0000
   335 H211     -9.5708   -3.8792   -3.3153   H         1 RES1   0.0000
   336 H212     -9.3088   -3.1463   -5.5960   H         1 RES1   0.0000
   337 H213     -7.7395   -3.6465   -4.9980   H         1 RES1   0.0000
   338 H214     -8.7003   -0.7518   -5.1873   H         1 RES1   0.0000
   339 H215     -7.6348   -1.5468   -6.3454   H         1 RES1   0.0000
   340 H216     -7.0819   -1.2557   -4.7008   H         1 RES1   0.0000
@<TRIPOS>BOND
     1     1    20    1
     2     1    22    1
     3     1    25    1
     4     1   133    1
     5     1   135    1
     6     1   138    1
     7     1   246    1
     8     1   248    1
     9     1   251    1
    10     2     3    1
    11     2    43    1
    12     2    44    1
    13     2    45    1
    14     3     4    1
    15     3    46    1
    16     3    47    1
    17     4     5    1
    18     4    48    1
    19     4    49    1
    20     5     6    1
    21     5    50    1
    22     5    51    1
    23     6     7    1
    24     6    52    1
    25     6    53    1
    26     7     8    1
    27     7    54    1
    28     7    55    1
    29     8     9    1
    30     8    56    1
    31     8    57    1
    32     9    10    1
    33     9    58    1
    34     9    59    1
    35    10    11    1
    36    10    19    1
    37    11    12    1
    38    11    60    1
    39    11    61    1
    40    12    13    1
    41    12    62    1
    42    12    63    1
    43    13    14    1
    44    13    64    1
    45    13    65    1
    46    14    15    1
    47    14    66    1
    48    14    67    1
    49    15    16    1
    50    15    68    1
    51    15    69    1
    52    16    17    1
    53    16    70    1
    54    16    71    1
    55    17    18    1
    56    17    72    1
    57    17    73    1
    58    18    74    1
    59    18    75    1
    60    18    76    1
    61    19    20    2
    62    19    21    1
    63    21    22    1
    64    21    77    1
    65    21    78    1
    66    22    23    1
    67    23    24    1
    68    23    79    1
    69    23    80    1
    70    24    25    2
    71    24    26    1
    72    26    27    1
    73    26    35    1
    74    27    28    1
    75    27    81    1
    76    27    82    1
    77    28    29    1
    78    28    83    1
    79    28    84    1
    80    29    30    1
    81    29    85    1
    82    29    86    1
    83    30    31    1
    84    30    87    1
    85    30    88    1
    86    31    32    1
    87    31    89    1
    88    31    90    1
    89    32    33    1
    90    32    91    1
    91    32    92    1
    92    33    34    1
    93    33    93    1
    94    33    94    1
    95    34    95    1
    96    34    96    1
    97    34    97    1
    98    35    36    1
    99    35    98    1
   100    35    99    1
   101    36    37    1
   102    36   100    1
   103    36   101    1
   104    37    38    1
   105    37   102    1
   106    37   103    1
   107    38    39    1
   108    38   104    1
   109    38   105    1
   110    39    40    1
   111    39   106    1
   112    39   107    1
   113    40    41    1
   114    40   108    1
   115    40   109    1
   116    41    42    1
   117    41   110    1
   118    41   111    1
   119    42   112    1
   120    42   113    1
   121    42   114    1
   122   115   116    1
   123   115   156    1
   124   115   157    1
   125   115   158    1
   126   116   117    1
   127   116   159    1
   128   116   160    1
   129   117   118    1
   130   117   161    1
   131   117   162    1
   132   118   119    1
   133   118   163    1
   134   118   164    1
   135   119   120    1
   136   119   165    1
   137   119   166    1
   138   120   121    1
   139   120   167    1
   140   120   168    1
   141   121   122    1
   142   121   169    1
   143   121   170    1
   144   122   123    1
   145   122   171    1
   146   122   172    1
   147   123   124    1
   148   123   132    1
   149   124   125    1
   150   124   173    1
   151   124   174    1
   152   125   126    1
   153   125   175    1
   154   125   176    1
   155   126   127    1
   156   126   177    1
   157   126   178    1
   158   127   128    1
   159   127   179    1
   160   127   180    1
   161   128   129    1
   162   128   181    1
   163   128   182    1
   164   129   130    1
   165   129   183    1
   166   129   184    1
   167   130   131    1
   168   130   185    1
   169   130   186    1
   170   131   187    1
   171   131   188    1
   172   131   189    1
   173   132   133    2
   174   132   134    1
   175   134   135    1
   176   134   190    1
   177   134   191    1
   178   135   136    1
   179   136   137    1
   180   136   192    1
   181   136   193    1
   182   137   138    2
   183   137   139    1
   184   139   140    1
   185   139   148    1
   186   140   141    1
   187   140   194    1
   188   140   195    1
   189   141   142    1
   190   141   196    1
   191   141   197    1
   192   142   143    1
   193   142   198    1
   194   142   199    1
   195   143   144    1
   196   143   200    1
   197   143   201    1
   198   144   145    1
   199   144   202    1
   200   144   203    1
   201   145   146    1
   202   145   204    1
   203   145   205    1
   204   146   147    1
   205   146   206    1
   206   146   207    1
   207   147   208    1
   208   147   209    1
   209   147   210    1
   210   148   149    1
   211   148   211    1
   212   148   212    1
   213   149   150    1
   214   149   213    1
   215   149   214    1
   216   150   151    1
   217   150   215    1
   218   150   216    1
   219   151   152    1
   220   151   217    1
   221   151   218    1
   222   152   153    1
   223   152   219    1
   224   152   220    1
   225   153   154    1
   226   153   221    1
   227   153   222    1
   228   154   155    1
   229   154   223    1
   230   154   224    1
   231   155   225    1
   232   155   226    1
   233   155   227    1
   234   228   229    1
   235   228   269    1
   236   228   270    1
   237   228   271    1
   238   229   230    1
   239   229   272    1
   240   229   273    1
   241   230   231    1
   242   230   274    1
   243   230   275    1
   244   231   232    1
   245   231   276    1
   246   231   277    1
   247   232   233    1
   248   232   278    1
   249   232   279    1
   250   233   234    1
   251   233   280    1
   252   233   281    1
   253   234   235    1
   254   234   282    1
   255   234   283    1
   256   235   236    1
   257   235   284    1
   258   235   285    1
   259   236   237    1
   260   236   245    1
   261   237   238    1
   262   237   286    1
   263   237   287    1
   264   238   239    1
   265   238   288    1
   266   238   289    1
   267   239   240    1
   268   239   290    1
   269   239   291    1
   270   240   241    1
   271   240   292    1
   272   240   293    1
   273   241   242    1
   274   241   294    1
   275   241   295    1
   276   242   243    1
   277   242   296    1
   278   242   297    1
   279   243   244    1
   280   243   298    1
   281   243   299    1
   282   244   300    1
   283   244   301    1
   284   244   302    1
   285   245   246    2
   286   245   247    1
   287   247   248    1
   288   247   303    1
   289   247   304    1
   290   248   249    1
   291   249   250    1
   292   249   305    1
   293   249   306    1
   294   250   251    2
   295   250   252    1
   296   252   253    1
   297   252   261    1
   298   253   254    1
   299   253   307    1
   300   253   308    1
   301   254   255    1
   302   254   309    1
   303   254   310    1
   304   255   256    1
   305   255   311    1
   306   255   312    1
   307   256   257    1
   308   256   313    1
   309   256   314    1
   310   257   258    1
   311   257   315    1
   312   257   316    1
   313   258   259    1
   314   258   317    1
   315   258   318    1
   316   259   260    1
   317   259   319    1
   318   259   320    1
   319   260   321    1
   320   260   322    1
   321   260   323    1
   322   261   262    1
   323   261   324    1
   324   261   325    1
   325   262   263    1
   326   262   326    1
   327   262   327    1
   328   263   264    1
   329   263   328    1
   330   263   329    1
   331   264   265    1
   332   264   330    1
   333   264   331    1
   334   265   266    1
   335   265   332    1
   336   265   333    1
   337   266   267    1
   338   266   334    1
   339   266   335    1
   340   267   268    1
   341   267   336    1
   342   267   337    1
   343   268   338    1
   344   268   339    1
   345   268   340    1
@<TRIPOS>SUBSTRUCTURE
     1 RES1      340 GROUP             0 ****  ****    0  
