@<TRIPOS>MOLECULE
tricapped_trigonal_prismatic_0_nunpairedes_0_charge_3 Charge: 3 Unpaired_Electrons: 5 XTB_Unpaired_Electrons: 0 XTB_Charge: 3
   340   345     1     0     0
SMALL
NoCharges
****
Generated from Architector

@<TRIPOS>ATOM
     1 Sm1       0.1217    0.2315    0.5012   Sm        1 RES1   0.0000
     2 C1       -6.0769   -2.7088   -2.1817   C.3       1 RES1   0.0000
     3 C2       -7.0317   -1.5254   -2.0403   C.3       1 RES1   0.0000
     4 C3       -7.0440   -0.9684   -0.6065   C.3       1 RES1   0.0000
     5 C4       -6.7014    0.5222   -0.5216   C.3       1 RES1   0.0000
     6 C5       -6.4609    0.9639    0.9284   C.3       1 RES1   0.0000
     7 C6       -5.5351    2.1750    1.0808   C.3       1 RES1   0.0000
     8 C7       -5.0397    2.2914    2.5270   C.3       1 RES1   0.0000
     9 C8       -4.4820    3.6704    2.9005   C.3       1 RES1   0.0000
    10 C9       -2.9959    3.8782    2.5995   C.3       1 RES1   0.0000
    11 C10      -2.0886    3.2817    3.6822   C.3       1 RES1   0.0000
    12 N1       -0.6948    3.6152    3.4181   N.am      1 RES1   0.0000
    13 C11      -0.1354    4.7779    4.0903   C.3       1 RES1   0.0000
    14 C12       1.1586    4.5535    4.8805   C.3       1 RES1   0.0000
    15 C13       1.1168    3.5111    6.0018   C.3       1 RES1   0.0000
    16 C14       1.3748    2.0499    5.5994   C.3       1 RES1   0.0000
    17 C15       2.0673    1.3105    6.7558   C.3       1 RES1   0.0000
    18 C16       1.7529   -0.1787    6.8915   C.3       1 RES1   0.0000
    19 C17       2.1758   -1.0491    5.7065   C.3       1 RES1   0.0000
    20 C18       2.5503   -2.4741    6.1234   C.3       1 RES1   0.0000
    21 C19       1.4281   -3.2481    6.8077   C.3       1 RES1   0.0000
    22 C20       1.8667   -4.6656    7.1569   C.3       1 RES1   0.0000
    23 C21      -0.0818    2.9264    2.4686   C.2       1 RES1   0.0000
    24 O1       -0.5661    1.8875    1.9665   O.2       1 RES1   0.0000
    25 C22       1.2645    3.4080    1.9295   C.3       1 RES1   0.0000
    26 O2        1.4177    2.9722    0.5842   O.3       1 RES1   0.0000
    27 C23       0.9222    3.8346   -0.4231   C.3       1 RES1   0.0000
    28 C24      -0.0783    3.0936   -1.3001   C.2       1 RES1   0.0000
    29 O3       -0.5683    2.0112   -0.9137   O.2       1 RES1   0.0000
    30 N2       -0.4726    3.7060   -2.4137   N.am      1 RES1   0.0000
    31 C25       0.4526    4.3683   -3.3275   C.3       1 RES1   0.0000
    32 C26       0.3140    5.8719   -3.5553   C.3       1 RES1   0.0000
    33 C27       1.5543    6.3195   -4.3446   C.3       1 RES1   0.0000
    34 C28       1.4152    7.6748   -5.0406   C.3       1 RES1   0.0000
    35 C29       0.7499    7.5752   -6.4128   C.3       1 RES1   0.0000
    36 C30       0.7236    8.9186   -7.1293   C.3       1 RES1   0.0000
    37 C31      -1.7493    3.2907   -2.9697   C.3       1 RES1   0.0000
    38 C32      -2.9339    3.5799   -2.0340   C.3       1 RES1   0.0000
    39 C33      -3.6142    4.9276   -2.3348   C.3       1 RES1   0.0000
    40 C34      -3.3502    6.0476   -1.3219   C.3       1 RES1   0.0000
    41 C35      -4.3137    6.0499   -0.1297   C.3       1 RES1   0.0000
    42 C36      -5.7165    6.5408   -0.4808   C.3       1 RES1   0.0000
    43 H1       -6.0148   -3.0140   -3.2236   H         1 RES1   0.0000
    44 H2       -5.0756   -2.4498   -1.8272   H         1 RES1   0.0000
    45 H3       -6.4365   -3.5591   -1.6053   H         1 RES1   0.0000
    46 H4       -6.7376   -0.7381   -2.7402   H         1 RES1   0.0000
    47 H5       -8.0285   -1.8573   -2.3239   H         1 RES1   0.0000
    48 H6       -8.0170   -1.1320   -0.1460   H         1 RES1   0.0000
    49 H7       -6.3139   -1.5237   -0.0080   H         1 RES1   0.0000
    50 H8       -7.5003    1.1093   -0.9750   H         1 RES1   0.0000
    51 H9       -5.7952    0.7107   -1.1082   H         1 RES1   0.0000
    52 H10      -7.4174    1.1780    1.4091   H         1 RES1   0.0000
    53 H11      -6.0143    0.1304    1.4780   H         1 RES1   0.0000
    54 H12      -4.6794    2.0765    0.4057   H         1 RES1   0.0000
    55 H13      -6.0808    3.0764    0.8027   H         1 RES1   0.0000
    56 H14      -5.8847    2.0848    3.1866   H         1 RES1   0.0000
    57 H15      -4.2820    1.5211    2.7021   H         1 RES1   0.0000
    58 H16      -5.0419    4.4413    2.3716   H         1 RES1   0.0000
    59 H17      -4.6487    3.8372    3.9644   H         1 RES1   0.0000
    60 H18      -2.7447    3.4258    1.6367   H         1 RES1   0.0000
    61 H19      -2.8006    4.9510    2.5362   H         1 RES1   0.0000
    62 H20      -2.3540    3.6582    4.6690   H         1 RES1   0.0000
    63 H21      -2.1842    2.1983    3.6814   H         1 RES1   0.0000
    64 H22       0.0314    5.5818    3.3645   H         1 RES1   0.0000
    65 H23      -0.8999    5.1253    4.7855   H         1 RES1   0.0000
    66 H24       1.9936    4.3226    4.2213   H         1 RES1   0.0000
    67 H25       1.3795    5.5193    5.3388   H         1 RES1   0.0000
    68 H26       1.8973    3.7919    6.7090   H         1 RES1   0.0000
    69 H27       0.1711    3.5860    6.5403   H         1 RES1   0.0000
    70 H28       0.4388    1.5513    5.3424   H         1 RES1   0.0000
    71 H29       2.0124    2.0115    4.7112   H         1 RES1   0.0000
    72 H30       3.1467    1.4441    6.6619   H         1 RES1   0.0000
    73 H31       1.7676    1.7735    7.6968   H         1 RES1   0.0000
    74 H32       2.2814   -0.5300    7.7791   H         1 RES1   0.0000
    75 H33       0.6859   -0.3004    7.0806   H         1 RES1   0.0000
    76 H34       1.3893   -1.0751    4.9451   H         1 RES1   0.0000
    77 H35       3.0570   -0.6068    5.2483   H         1 RES1   0.0000
    78 H36       2.8742   -3.0315    5.2410   H         1 RES1   0.0000
    79 H37       3.4023   -2.4225    6.8035   H         1 RES1   0.0000
    80 H38       1.1362   -2.7372    7.7251   H         1 RES1   0.0000
    81 H39       0.5543   -3.2825    6.1522   H         1 RES1   0.0000
    82 H40       2.7544   -4.6441    7.7844   H         1 RES1   0.0000
    83 H41       1.0836   -5.1857    7.7027   H         1 RES1   0.0000
    84 H42       2.1008   -5.2346    6.2592   H         1 RES1   0.0000
    85 H43       1.3873    4.4942    1.9987   H         1 RES1   0.0000
    86 H44       2.0485    2.8870    2.4925   H         1 RES1   0.0000
    87 H45       0.3909    4.6970   -0.0010   H         1 RES1   0.0000
    88 H46       1.7633    4.2139   -1.0170   H         1 RES1   0.0000
    89 H47       1.4710    4.1578   -3.0020   H         1 RES1   0.0000
    90 H48       0.3221    3.8761   -4.2959   H         1 RES1   0.0000
    91 H49      -0.5848    6.0818   -4.1343   H         1 RES1   0.0000
    92 H50       0.2459    6.4178   -2.6121   H         1 RES1   0.0000
    93 H51       2.4089    6.3463   -3.6656   H         1 RES1   0.0000
    94 H52       1.7744    5.5649   -5.1031   H         1 RES1   0.0000
    95 H53       0.8592    8.3554   -4.3967   H         1 RES1   0.0000
    96 H54       2.4136    8.0921   -5.1759   H         1 RES1   0.0000
    97 H55       1.3104    6.8639   -7.0252   H         1 RES1   0.0000
    98 H56      -0.2714    7.1999   -6.3137   H         1 RES1   0.0000
    99 H57       1.7312    9.3097   -7.2413   H         1 RES1   0.0000
   100 H58       0.2963    8.8068   -8.1214   H         1 RES1   0.0000
   101 H59       0.1286    9.6428   -6.5789   H         1 RES1   0.0000
   102 H60      -1.8929    3.8352   -3.8993   H         1 RES1   0.0000
   103 H61      -1.6898    2.2251   -3.2007   H         1 RES1   0.0000
   104 H62      -3.6660    2.7832   -2.1657   H         1 RES1   0.0000
   105 H63      -2.6081    3.5511   -0.9929   H         1 RES1   0.0000
   106 H64      -3.2692    5.2720   -3.3088   H         1 RES1   0.0000
   107 H65      -4.6932    4.7862   -2.4111   H         1 RES1   0.0000
   108 H66      -2.3182    5.9749   -0.9629   H         1 RES1   0.0000
   109 H67      -3.4532    7.0042   -1.8362   H         1 RES1   0.0000
   110 H68      -4.3799    5.0431    0.2864   H         1 RES1   0.0000
   111 H69      -3.9137    6.7103    0.6442   H         1 RES1   0.0000
   112 H70      -6.1733    5.9422   -1.2660   H         1 RES1   0.0000
   113 H71      -6.3612    6.4924    0.3951   H         1 RES1   0.0000
   114 H72      -5.6899    7.5746   -0.8171   H         1 RES1   0.0000
   115 C37      -4.6719    8.3827   -4.9166   C.3       1 RES1   0.0000
   116 C38      -4.0437    7.0669   -5.3669   C.3       1 RES1   0.0000
   117 C39      -4.5804    6.6111   -6.7232   C.3       1 RES1   0.0000
   118 C40      -3.8075    5.4333   -7.3172   C.3       1 RES1   0.0000
   119 C41      -3.6727    4.2273   -6.3814   C.3       1 RES1   0.0000
   120 C42      -3.1659    3.0047   -7.1518   C.3       1 RES1   0.0000
   121 C43      -2.5461    1.8939   -6.2991   C.3       1 RES1   0.0000
   122 C44      -3.4932    1.1355   -5.3658   C.3       1 RES1   0.0000
   123 C45      -2.7131    0.0413   -4.6336   C.3       1 RES1   0.0000
   124 C46      -3.6084   -0.9745   -3.9217   C.3       1 RES1   0.0000
   125 N3       -2.7959   -1.8507   -3.0735   N.am      1 RES1   0.0000
   126 C47      -2.5473   -3.1727   -3.6824   C.3       1 RES1   0.0000
   127 C48      -1.9521   -4.2791   -2.8110   C.3       1 RES1   0.0000
   128 C49      -1.7880   -5.5805   -3.6366   C.3       1 RES1   0.0000
   129 C50      -0.4325   -6.3067   -3.4364   C.3       1 RES1   0.0000
   130 C51       0.5282   -5.9714   -4.5876   C.3       1 RES1   0.0000
   131 C52       2.0150   -6.2995   -4.3968   C.3       1 RES1   0.0000
   132 C53       2.8595   -5.6692   -5.5319   C.3       1 RES1   0.0000
   133 C54       4.0813   -4.8647   -5.0638   C.3       1 RES1   0.0000
   134 C55       4.6825   -3.9769   -6.1717   C.3       1 RES1   0.0000
   135 C56       5.2038   -2.6378   -5.6546   C.3       1 RES1   0.0000
   136 C57      -2.1682   -1.2953   -2.0346   C.2       1 RES1   0.0000
   137 O4       -1.1121   -1.6491   -1.4898   O.2       1 RES1   0.0000
   138 C58      -2.8447   -0.0897   -1.3528   C.3       1 RES1   0.0000
   139 O5       -2.4456   -0.0900    0.0102   O.3       1 RES1   0.0000
   140 C59      -3.1203   -1.1201    0.7261   C.3       1 RES1   0.0000
   141 C60      -2.4935   -1.1612    2.1167   C.2       1 RES1   0.0000
   142 O6       -1.2658   -0.9018    2.1751   O.2       1 RES1   0.0000
   143 N4       -3.2109   -1.5028    3.1713   N.am      1 RES1   0.0000
   144 C61      -4.6424   -1.7946    3.2049   C.3       1 RES1   0.0000
   145 C62      -4.9663   -3.1873    3.7800   C.3       1 RES1   0.0000
   146 C63      -5.7393   -4.1182    2.8261   C.3       1 RES1   0.0000
   147 C64      -4.8292   -5.1894    2.2152   C.3       1 RES1   0.0000
   148 C65      -5.5738   -6.4044    1.6583   C.3       1 RES1   0.0000
   149 C66      -6.2987   -6.1394    0.3453   C.3       1 RES1   0.0000
   150 C67      -2.5489   -1.4830    4.4749   C.3       1 RES1   0.0000
   151 C68      -2.5606   -0.0748    5.0670   C.3       1 RES1   0.0000
   152 C69      -2.3085   -0.0455    6.5697   C.3       1 RES1   0.0000
   153 C70      -2.2898    1.3944    7.0686   C.3       1 RES1   0.0000
   154 C71      -1.9932    1.5099    8.5621   C.3       1 RES1   0.0000
   155 C72      -3.1061    0.9808    9.4580   C.3       1 RES1   0.0000
   156 H73      -4.3211    8.6585   -3.9212   H         1 RES1   0.0000
   157 H74      -5.7555    8.2851   -4.8876   H         1 RES1   0.0000
   158 H75      -4.4151    9.1854   -5.6050   H         1 RES1   0.0000
   159 H76      -4.2772    6.3004   -4.6250   H         1 RES1   0.0000
   160 H77      -2.9549    7.1859   -5.4202   H         1 RES1   0.0000
   161 H78      -4.5240    7.4446   -7.4245   H         1 RES1   0.0000
   162 H79      -5.6340    6.3415   -6.6183   H         1 RES1   0.0000
   163 H80      -2.8057    5.7718   -7.5990   H         1 RES1   0.0000
   164 H81      -4.3169    5.1187   -8.2290   H         1 RES1   0.0000
   165 H82      -4.6329    4.0001   -5.9152   H         1 RES1   0.0000
   166 H83      -2.9639    4.4890   -5.5896   H         1 RES1   0.0000
   167 H84      -2.3847    3.3407   -7.8398   H         1 RES1   0.0000
   168 H85      -3.9857    2.5933   -7.7439   H         1 RES1   0.0000
   169 H86      -1.7385    2.3241   -5.7020   H         1 RES1   0.0000
   170 H87      -2.0920    1.1660   -6.9791   H         1 RES1   0.0000
   171 H88      -4.3055    0.6964   -5.9474   H         1 RES1   0.0000
   172 H89      -3.9345    1.8142   -4.6332   H         1 RES1   0.0000
   173 H90      -2.0495    0.4904   -3.8902   H         1 RES1   0.0000
   174 H91      -2.0667   -0.4744   -5.3466   H         1 RES1   0.0000
   175 H92      -4.1192   -1.5907   -4.6577   H         1 RES1   0.0000
   176 H93      -4.3713   -0.4564   -3.3412   H         1 RES1   0.0000
   177 H94      -1.8923   -3.0340   -4.5463   H         1 RES1   0.0000
   178 H95      -3.5238   -3.5188   -4.0439   H         1 RES1   0.0000
   179 H96      -2.5959   -4.4581   -1.9412   H         1 RES1   0.0000
   180 H97      -0.9775   -3.9514   -2.4627   H         1 RES1   0.0000
   181 H98      -1.8737   -5.3362   -4.6993   H         1 RES1   0.0000
   182 H99      -2.6195   -6.2495   -3.4073   H         1 RES1   0.0000
   183 H100     -0.5778   -7.3864   -3.4097   H         1 RES1   0.0000
   184 H101     -0.0141   -6.0286   -2.4651   H         1 RES1   0.0000
   185 H102      0.4604   -4.9032   -4.7815   H         1 RES1   0.0000
   186 H103      0.1763   -6.4751   -5.4921   H         1 RES1   0.0000
   187 H104      2.1498   -7.3819   -4.3860   H         1 RES1   0.0000
   188 H105      2.3504   -5.9284   -3.4261   H         1 RES1   0.0000
   189 H106      2.2224   -5.0092   -6.1301   H         1 RES1   0.0000
   190 H107      3.2078   -6.4573   -6.1973   H         1 RES1   0.0000
   191 H108      4.8407   -5.5544   -4.6986   H         1 RES1   0.0000
   192 H109      3.8000   -4.2299   -4.2171   H         1 RES1   0.0000
   193 H110      3.9317   -3.7881   -6.9429   H         1 RES1   0.0000
   194 H111      5.5119   -4.4952   -6.6526   H         1 RES1   0.0000
   195 H112      4.3955   -2.0143   -5.2788   H         1 RES1   0.0000
   196 H113      5.7001   -2.0965   -6.4540   H         1 RES1   0.0000
   197 H114      5.9229   -2.7784   -4.8546   H         1 RES1   0.0000
   198 H115     -3.9367   -0.1336   -1.4156   H         1 RES1   0.0000
   199 H116     -2.4764    0.8494   -1.7632   H         1 RES1   0.0000
   200 H117     -2.9445   -2.1054    0.2619   H         1 RES1   0.0000
   201 H118     -4.1936   -0.9028    0.7147   H         1 RES1   0.0000
   202 H119     -5.0667   -1.7318    2.2068   H         1 RES1   0.0000
   203 H120     -5.1149   -1.0232    3.8227   H         1 RES1   0.0000
   204 H121     -5.5256   -3.0632    4.7073   H         1 RES1   0.0000
   205 H122     -4.0336   -3.6848    4.0357   H         1 RES1   0.0000
   206 H123     -6.2412   -3.5412    2.0451   H         1 RES1   0.0000
   207 H124     -6.5192   -4.6228    3.3973   H         1 RES1   0.0000
   208 H125     -4.1787   -5.5608    3.0060   H         1 RES1   0.0000
   209 H126     -4.1885   -4.7501    1.4440   H         1 RES1   0.0000
   210 H127     -6.2908   -6.7527    2.4058   H         1 RES1   0.0000
   211 H128     -4.8515   -7.2116    1.5051   H         1 RES1   0.0000
   212 H129     -7.0299   -5.3414    0.4534   H         1 RES1   0.0000
   213 H130     -6.8228   -7.0389    0.0344   H         1 RES1   0.0000
   214 H131     -5.5924   -5.8680   -0.4397   H         1 RES1   0.0000
   215 H132     -1.5258   -1.8333    4.3373   H         1 RES1   0.0000
   216 H133     -3.0701   -2.1601    5.1458   H         1 RES1   0.0000
   217 H134     -3.5361    0.3730    4.8762   H         1 RES1   0.0000
   218 H135     -1.7993    0.5202    4.5560   H         1 RES1   0.0000
   219 H136     -1.3636   -0.5358    6.7946   H         1 RES1   0.0000
   220 H137     -3.0989   -0.5883    7.0845   H         1 RES1   0.0000
   221 H138     -3.2530    1.8576    6.8464   H         1 RES1   0.0000
   222 H139     -1.5239    1.9516    6.5251   H         1 RES1   0.0000
   223 H140     -1.8196    2.5637    8.7930   H         1 RES1   0.0000
   224 H141     -1.0698    0.9726    8.7869   H         1 RES1   0.0000
   225 H142     -4.0618    1.4241    9.1916   H         1 RES1   0.0000
   226 H143     -2.8882    1.2354   10.4902   H         1 RES1   0.0000
   227 H144     -3.1871   -0.1006    9.3998   H         1 RES1   0.0000
   228 C73      -4.5317   -4.9586    8.3192   C.3       1 RES1   0.0000
   229 C74      -3.0966   -5.0165    7.8109   C.3       1 RES1   0.0000
   230 C75      -3.0402   -5.5862    6.3905   C.3       1 RES1   0.0000
   231 C76      -1.7650   -5.1639    5.6742   C.3       1 RES1   0.0000
   232 C77      -1.6247   -5.7955    4.2872   C.3       1 RES1   0.0000
   233 C78      -0.9978   -4.8434    3.2632   C.3       1 RES1   0.0000
   234 C79      -0.7127   -5.5432    1.9288   C.3       1 RES1   0.0000
   235 C80       0.4692   -4.9560    1.1376   C.3       1 RES1   0.0000
   236 C81       0.0910   -3.9700    0.0215   C.3       1 RES1   0.0000
   237 C82       1.3003   -3.8347   -0.9320   C.3       1 RES1   0.0000
   238 N5        1.4105   -2.6866   -1.8754   N.am      1 RES1   0.0000
   239 C83       1.3691   -2.8784   -3.3354   C.3       1 RES1   0.0000
   240 C84       0.7318   -1.7635   -4.1953   C.3       1 RES1   0.0000
   241 C85       0.8413   -1.9787   -5.7311   C.3       1 RES1   0.0000
   242 C86      -0.0867   -2.9617   -6.4833   C.3       1 RES1   0.0000
   243 C87      -1.2020   -2.3033   -7.3092   C.3       1 RES1   0.0000
   244 C88      -1.9304   -3.2980   -8.2270   C.3       1 RES1   0.0000
   245 C89      -3.0558   -4.0908   -7.5506   C.3       1 RES1   0.0000
   246 C90      -4.3747   -3.3181   -7.4744   C.3       1 RES1   0.0000
   247 C91      -5.4743   -4.0733   -6.7242   C.3       1 RES1   0.0000
   248 C92      -6.6971   -3.1885   -6.5073   C.3       1 RES1   0.0000
   249 C93       1.7045   -1.5534   -1.2648   C.2       1 RES1   0.0000
   250 O7        1.4389   -1.3863   -0.0535   O.2       1 RES1   0.0000
   251 C94       2.6089   -0.4967   -1.8838   C.3       1 RES1   0.0000
   252 O8        2.2445    0.7797   -1.3734   O.3       1 RES1   0.0000
   253 C95       3.3588    1.4816   -0.8406   C.3       1 RES1   0.0000
   254 C96       3.4720    1.2489    0.6832   C.2       1 RES1   0.0000
   255 O9        2.5202    0.7155    1.2823   O.2       1 RES1   0.0000
   256 N6        4.5795    1.6780    1.2778   N.am      1 RES1   0.0000
   257 C97       5.6627    2.3988    0.6092   C.3       1 RES1   0.0000
   258 C98       6.9211    1.5418    0.4328   C.3       1 RES1   0.0000
   259 C99       8.1393    2.3696   -0.0053   C.3       1 RES1   0.0000
   260 C100      9.0394    2.8104    1.1499   C.3       1 RES1   0.0000
   261 C101      8.4152    3.8371    2.0927   C.3       1 RES1   0.0000
   262 C102      9.4763    4.4654    2.9861   C.3       1 RES1   0.0000
   263 C103      4.7279    1.6113    2.7356   C.3       1 RES1   0.0000
   264 C104      4.6963    0.2387    3.4068   C.3       1 RES1   0.0000
   265 C105      5.8732   -0.6950    3.1252   C.3       1 RES1   0.0000
   266 C106      5.6527   -1.5871    1.9029   C.3       1 RES1   0.0000
   267 C107      4.6606   -2.7248    2.1627   C.3       1 RES1   0.0000
   268 C108      5.2026   -3.7775    3.1215   C.3       1 RES1   0.0000
   269 H145     -5.1637   -4.4409    7.5965   H         1 RES1   0.0000
   270 H146     -4.5947   -4.4297    9.2652   H         1 RES1   0.0000
   271 H147     -4.9318   -5.9621    8.4596   H         1 RES1   0.0000
   272 H148     -2.6612   -4.0123    7.8214   H         1 RES1   0.0000
   273 H149     -2.4833   -5.6375    8.4627   H         1 RES1   0.0000
   274 H150     -3.0994   -6.6744    6.4277   H         1 RES1   0.0000
   275 H151     -3.9025   -5.2365    5.8180   H         1 RES1   0.0000
   276 H152     -1.7753   -4.0756    5.5866   H         1 RES1   0.0000
   277 H153     -0.9084   -5.4319    6.2904   H         1 RES1   0.0000
   278 H154     -1.0033   -6.6884    4.3671   H         1 RES1   0.0000
   279 H155     -2.6020   -6.1244    3.9323   H         1 RES1   0.0000
   280 H156     -1.6506   -3.9789    3.1071   H         1 RES1   0.0000
   281 H157     -0.0552   -4.4827    3.6801   H         1 RES1   0.0000
   282 H158     -0.4805   -6.5821    2.1643   H         1 RES1   0.0000
   283 H159     -1.6147   -5.5623    1.3125   H         1 RES1   0.0000
   284 H160      1.1468   -4.4608    1.8349   H         1 RES1   0.0000
   285 H161      1.0139   -5.7830    0.6797   H         1 RES1   0.0000
   286 H162     -0.7646   -4.3723   -0.5150   H         1 RES1   0.0000
   287 H163     -0.1817   -2.9984    0.4510   H         1 RES1   0.0000
   288 H164      2.1912   -3.7457   -0.2961   H         1 RES1   0.0000
   289 H165      1.3984   -4.7495   -1.5190   H         1 RES1   0.0000
   290 H166      2.3762   -3.0956   -3.7083   H         1 RES1   0.0000
   291 H167      0.7644   -3.7678   -3.4717   H         1 RES1   0.0000
   292 H168      1.2351   -0.8117   -4.0263   H         1 RES1   0.0000
   293 H169     -0.3014   -1.6246   -3.8832   H         1 RES1   0.0000
   294 H170      0.6932   -0.9964   -6.1877   H         1 RES1   0.0000
   295 H171      1.8727   -2.2614   -5.9488   H         1 RES1   0.0000
   296 H172      0.5295   -3.5208   -7.1885   H         1 RES1   0.0000
   297 H173     -0.5338   -3.6919   -5.8160   H         1 RES1   0.0000
   298 H174     -1.9326   -1.8248   -6.6559   H         1 RES1   0.0000
   299 H175     -0.7533   -1.5292   -7.9356   H         1 RES1   0.0000
   300 H176     -2.3568   -2.7628   -9.0785   H         1 RES1   0.0000
   301 H177     -1.1929   -3.9997   -8.6202   H         1 RES1   0.0000
   302 H178     -3.2280   -5.0067   -8.1153   H         1 RES1   0.0000
   303 H179     -2.7399   -4.3851   -6.5468   H         1 RES1   0.0000
   304 H180     -4.7235   -3.1177   -8.4906   H         1 RES1   0.0000
   305 H181     -4.2128   -2.3498   -6.9860   H         1 RES1   0.0000
   306 H182     -5.7615   -4.9558   -7.2972   H         1 RES1   0.0000
   307 H183     -5.0934   -4.4271   -5.7598   H         1 RES1   0.0000
   308 H184     -7.1106   -2.8755   -7.4632   H         1 RES1   0.0000
   309 H185     -7.4673   -3.7284   -5.9652   H         1 RES1   0.0000
   310 H186     -6.4340   -2.2953   -5.9378   H         1 RES1   0.0000
   311 H187      3.6000   -0.8006   -1.5215   H         1 RES1   0.0000
   312 H188      2.6611   -0.4495   -2.9708   H         1 RES1   0.0000
   313 H189      4.2739    1.1871   -1.3630   H         1 RES1   0.0000
   314 H190      3.1817    2.5419   -1.0380   H         1 RES1   0.0000
   315 H191      5.3348    2.7762   -0.3580   H         1 RES1   0.0000
   316 H192      5.9040    3.2660    1.2293   H         1 RES1   0.0000
   317 H193      7.1565    1.0433    1.3718   H         1 RES1   0.0000
   318 H194      6.7202    0.7633   -0.3056   H         1 RES1   0.0000
   319 H195      8.7375    1.7648   -0.6894   H         1 RES1   0.0000
   320 H196      7.8150    3.2533   -0.5592   H         1 RES1   0.0000
   321 H197      9.3488    1.9359    1.7241   H         1 RES1   0.0000
   322 H198      9.9383    3.2507    0.7173   H         1 RES1   0.0000
   323 H199      7.9276    4.6181    1.5044   H         1 RES1   0.0000
   324 H200      7.6553    3.3664    2.7227   H         1 RES1   0.0000
   325 H201     10.2121    4.9930    2.3866   H         1 RES1   0.0000
   326 H202      9.0312    5.1696    3.6824   H         1 RES1   0.0000
   327 H203      9.9931    3.7009    3.5580   H         1 RES1   0.0000
   328 H204      5.6706    2.1016    2.9801   H         1 RES1   0.0000
   329 H205      3.9183    2.1958    3.1853   H         1 RES1   0.0000
   330 H206      4.6897    0.4616    4.4750   H         1 RES1   0.0000
   331 H207      3.7611   -0.2662    3.1655   H         1 RES1   0.0000
   332 H208      6.7888   -0.1108    3.0118   H         1 RES1   0.0000
   333 H209      6.0232   -1.3345    3.9952   H         1 RES1   0.0000
   334 H210      5.2927   -0.9708    1.0732   H         1 RES1   0.0000
   335 H211      6.6099   -2.0196    1.6052   H         1 RES1   0.0000
   336 H212      3.7254   -2.3165    2.5537   H         1 RES1   0.0000
   337 H213      4.4310   -3.2073    1.2094   H         1 RES1   0.0000
   338 H214      5.3278   -3.3795    4.1236   H         1 RES1   0.0000
   339 H215      4.5165   -4.6168    3.1853   H         1 RES1   0.0000
   340 H216      6.1639   -4.1475    2.7743   H         1 RES1   0.0000
@<TRIPOS>BOND
     1     1    24    1
     2     1    26    1
     3     1    29    1
     4     1   137    1
     5     1   139    1
     6     1   142    1
     7     1   250    1
     8     1   252    1
     9     1   255    1
    10     2     3    1
    11     2    43    1
    12     2    44    1
    13     2    45    1
    14     3     4    1
    15     3    46    1
    16     3    47    1
    17     4     5    1
    18     4    48    1
    19     4    49    1
    20     5     6    1
    21     5    50    1
    22     5    51    1
    23     6     7    1
    24     6    52    1
    25     6    53    1
    26     7     8    1
    27     7    54    1
    28     7    55    1
    29     8     9    1
    30     8    56    1
    31     8    57    1
    32     9    10    1
    33     9    58    1
    34     9    59    1
    35    10    11    1
    36    10    60    1
    37    10    61    1
    38    11    12    1
    39    11    62    1
    40    11    63    1
    41    12    13    1
    42    12    23    1
    43    13    14    1
    44    13    64    1
    45    13    65    1
    46    14    15    1
    47    14    66    1
    48    14    67    1
    49    15    16    1
    50    15    68    1
    51    15    69    1
    52    16    17    1
    53    16    70    1
    54    16    71    1
    55    17    18    1
    56    17    72    1
    57    17    73    1
    58    18    19    1
    59    18    74    1
    60    18    75    1
    61    19    20    1
    62    19    76    1
    63    19    77    1
    64    20    21    1
    65    20    78    1
    66    20    79    1
    67    21    22    1
    68    21    80    1
    69    21    81    1
    70    22    82    1
    71    22    83    1
    72    22    84    1
    73    23    24    2
    74    23    25    1
    75    25    26    1
    76    25    85    1
    77    25    86    1
    78    26    27    1
    79    27    28    1
    80    27    87    1
    81    27    88    1
    82    28    29    2
    83    28    30    1
    84    30    31    1
    85    30    37    1
    86    31    32    1
    87    31    89    1
    88    31    90    1
    89    32    33    1
    90    32    91    1
    91    32    92    1
    92    33    34    1
    93    33    93    1
    94    33    94    1
    95    34    35    1
    96    34    95    1
    97    34    96    1
    98    35    36    1
    99    35    97    1
   100    35    98    1
   101    36    99    1
   102    36   100    1
   103    36   101    1
   104    37    38    1
   105    37   102    1
   106    37   103    1
   107    38    39    1
   108    38   104    1
   109    38   105    1
   110    39    40    1
   111    39   106    1
   112    39   107    1
   113    40    41    1
   114    40   108    1
   115    40   109    1
   116    41    42    1
   117    41   110    1
   118    41   111    1
   119    42   112    1
   120    42   113    1
   121    42   114    1
   122   115   116    1
   123   115   156    1
   124   115   157    1
   125   115   158    1
   126   116   117    1
   127   116   159    1
   128   116   160    1
   129   117   118    1
   130   117   161    1
   131   117   162    1
   132   118   119    1
   133   118   163    1
   134   118   164    1
   135   119   120    1
   136   119   165    1
   137   119   166    1
   138   120   121    1
   139   120   167    1
   140   120   168    1
   141   121   122    1
   142   121   169    1
   143   121   170    1
   144   122   123    1
   145   122   171    1
   146   122   172    1
   147   123   124    1
   148   123   173    1
   149   123   174    1
   150   124   125    1
   151   124   175    1
   152   124   176    1
   153   125   126    1
   154   125   136    1
   155   126   127    1
   156   126   177    1
   157   126   178    1
   158   127   128    1
   159   127   179    1
   160   127   180    1
   161   128   129    1
   162   128   181    1
   163   128   182    1
   164   129   130    1
   165   129   183    1
   166   129   184    1
   167   130   131    1
   168   130   185    1
   169   130   186    1
   170   131   132    1
   171   131   187    1
   172   131   188    1
   173   132   133    1
   174   132   189    1
   175   132   190    1
   176   133   134    1
   177   133   191    1
   178   133   192    1
   179   134   135    1
   180   134   193    1
   181   134   194    1
   182   135   195    1
   183   135   196    1
   184   135   197    1
   185   136   137    2
   186   136   138    1
   187   138   139    1
   188   138   198    1
   189   138   199    1
   190   139   140    1
   191   140   141    1
   192   140   200    1
   193   140   201    1
   194   141   142    2
   195   141   143    1
   196   143   144    1
   197   143   150    1
   198   144   145    1
   199   144   202    1
   200   144   203    1
   201   145   146    1
   202   145   204    1
   203   145   205    1
   204   146   147    1
   205   146   206    1
   206   146   207    1
   207   147   148    1
   208   147   208    1
   209   147   209    1
   210   148   149    1
   211   148   210    1
   212   148   211    1
   213   149   212    1
   214   149   213    1
   215   149   214    1
   216   150   151    1
   217   150   215    1
   218   150   216    1
   219   151   152    1
   220   151   217    1
   221   151   218    1
   222   152   153    1
   223   152   219    1
   224   152   220    1
   225   153   154    1
   226   153   221    1
   227   153   222    1
   228   154   155    1
   229   154   223    1
   230   154   224    1
   231   155   225    1
   232   155   226    1
   233   155   227    1
   234   228   229    1
   235   228   269    1
   236   228   270    1
   237   228   271    1
   238   229   230    1
   239   229   272    1
   240   229   273    1
   241   230   231    1
   242   230   274    1
   243   230   275    1
   244   231   232    1
   245   231   276    1
   246   231   277    1
   247   232   233    1
   248   232   278    1
   249   232   279    1
   250   233   234    1
   251   233   280    1
   252   233   281    1
   253   234   235    1
   254   234   282    1
   255   234   283    1
   256   235   236    1
   257   235   284    1
   258   235   285    1
   259   236   237    1
   260   236   286    1
   261   236   287    1
   262   237   238    1
   263   237   288    1
   264   237   289    1
   265   238   239    1
   266   238   249    1
   267   239   240    1
   268   239   290    1
   269   239   291    1
   270   240   241    1
   271   240   292    1
   272   240   293    1
   273   241   242    1
   274   241   294    1
   275   241   295    1
   276   242   243    1
   277   242   296    1
   278   242   297    1
   279   243   244    1
   280   243   298    1
   281   243   299    1
   282   244   245    1
   283   244   300    1
   284   244   301    1
   285   245   246    1
   286   245   302    1
   287   245   303    1
   288   246   247    1
   289   246   304    1
   290   246   305    1
   291   247   248    1
   292   247   306    1
   293   247   307    1
   294   248   308    1
   295   248   309    1
   296   248   310    1
   297   249   250    2
   298   249   251    1
   299   251   252    1
   300   251   311    1
   301   251   312    1
   302   252   253    1
   303   253   254    1
   304   253   313    1
   305   253   314    1
   306   254   255    2
   307   254   256    1
   308   256   257    1
   309   256   263    1
   310   257   258    1
   311   257   315    1
   312   257   316    1
   313   258   259    1
   314   258   317    1
   315   258   318    1
   316   259   260    1
   317   259   319    1
   318   259   320    1
   319   260   261    1
   320   260   321    1
   321   260   322    1
   322   261   262    1
   323   261   323    1
   324   261   324    1
   325   262   325    1
   326   262   326    1
   327   262   327    1
   328   263   264    1
   329   263   328    1
   330   263   329    1
   331   264   265    1
   332   264   330    1
   333   264   331    1
   334   265   266    1
   335   265   332    1
   336   265   333    1
   337   266   267    1
   338   266   334    1
   339   266   335    1
   340   267   268    1
   341   267   336    1
   342   267   337    1
   343   268   338    1
   344   268   339    1
   345   268   340    1
@<TRIPOS>SUBSTRUCTURE
     1 RES1      340 GROUP             0 ****  ****    0  
