@<TRIPOS>MOLECULE
capped_square_antiprismatic_0_nunpairedes_0_charge_3 Charge: 3 Unpaired_Electrons: 5 XTB_Unpaired_Electrons: 0 XTB_Charge: 3
   340   345     1     0     0
SMALL
NoCharges
****
Generated from Architector

@<TRIPOS>ATOM
     1 Sm1       0.0391    0.0058   -0.1088   Sm        1 RES1   0.0000
     2 C1       -1.8527   -1.9187  -11.1118   C.3       1 RES1   0.0000
     3 C2       -2.0020   -1.4892   -9.6576   C.3       1 RES1   0.0000
     4 C3       -3.4539   -1.2136   -9.2636   C.3       1 RES1   0.0000
     5 C4       -3.9966    0.1014   -9.8071   C.3       1 RES1   0.0000
     6 C5       -5.5078    0.2654   -9.6250   C.3       1 RES1   0.0000
     7 C6       -6.0025    0.6935   -8.2381   C.3       1 RES1   0.0000
     8 C7       -6.2376   -0.4388   -7.2343   C.3       1 RES1   0.0000
     9 C8       -6.7007    0.1179   -5.8835   C.3       1 RES1   0.0000
    10 C9       -6.6405   -0.8914   -4.7217   C.3       1 RES1   0.0000
    11 C10      -6.0340   -0.2589   -3.4629   C.3       1 RES1   0.0000
    12 C11      -5.9947   -1.1912   -2.2479   C.3       1 RES1   0.0000
    13 C12      -4.9985   -2.3535   -2.3053   C.3       1 RES1   0.0000
    14 N1       -3.6595   -2.3475   -1.6672   N.am      1 RES1   0.0000
    15 C13      -3.2795   -3.7535   -1.3702   C.3       1 RES1   0.0000
    16 C14      -1.8239   -4.1857   -1.5378   C.3       1 RES1   0.0000
    17 C15      -1.3426   -3.9639   -2.9691   C.3       1 RES1   0.0000
    18 C16       0.0066   -4.6095   -3.3076   C.3       1 RES1   0.0000
    19 C17       0.7467   -3.8855   -4.4406   C.3       1 RES1   0.0000
    20 C18       0.9666   -2.3882   -4.2013   C.3       1 RES1   0.0000
    21 C19       1.7861   -1.7298   -5.3126   C.3       1 RES1   0.0000
    22 C20       2.2090   -0.2865   -4.9755   C.3       1 RES1   0.0000
    23 C21       1.6211    0.8307   -5.8402   C.3       1 RES1   0.0000
    24 C22       2.4615    2.1028   -5.7038   C.3       1 RES1   0.0000
    25 C23       1.8997    3.2995   -6.4691   C.3       1 RES1   0.0000
    26 C24       2.8273    4.5122   -6.4310   C.3       1 RES1   0.0000
    27 C25      -2.8347   -1.3415   -1.4125   C.2       1 RES1   0.0000
    28 O1       -1.6591   -1.4856   -0.9954   O.2       1 RES1   0.0000
    29 C26      -3.2822    0.1136   -1.5955   C.3       1 RES1   0.0000
    30 O2       -2.2321    0.9545   -1.1192   O.3       1 RES1   0.0000
    31 C27      -2.7125    2.2010   -0.6322   C.3       1 RES1   0.0000
    32 C28      -1.4721    2.9816   -0.2213   C.3       1 RES1   0.0000
    33 O3       -0.6474    2.2905    0.7137   O.3       1 RES1   0.0000
    34 C29      -1.1881    2.2784    2.0258   C.3       1 RES1   0.0000
    35 C30      -1.9176    0.9572    2.2907   C.2       1 RES1   0.0000
    36 O4       -1.6234   -0.0109    1.5586   O.2       1 RES1   0.0000
    37 N2       -2.7469    0.8742    3.3183   N.am      1 RES1   0.0000
    38 C31      -3.1111    2.0639    4.0951   C.3       1 RES1   0.0000
    39 C32      -3.9785    3.1678    3.4600   C.3       1 RES1   0.0000
    40 C33      -5.4642    2.8328    3.3254   C.3       1 RES1   0.0000
    41 C34      -5.7714    2.0332    2.0623   C.3       1 RES1   0.0000
    42 C35      -7.2112    1.5352    2.0370   C.3       1 RES1   0.0000
    43 C36      -7.4868    0.6490    0.8223   C.3       1 RES1   0.0000
    44 C37      -8.6918   -0.2543    1.0863   C.3       1 RES1   0.0000
    45 C38      -8.2867   -1.4645    1.9314   C.3       1 RES1   0.0000
    46 C39      -9.4794   -2.2069    2.5323   C.3       1 RES1   0.0000
    47 C40     -10.2175   -1.4402    3.6304   C.3       1 RES1   0.0000
    48 C41      -9.3794   -1.1841    4.8825   C.3       1 RES1   0.0000
    49 C42     -10.2281   -0.6204    6.0154   C.3       1 RES1   0.0000
    50 C43      -3.2083   -0.4569    3.7495   C.3       1 RES1   0.0000
    51 C44      -2.0923   -1.4417    4.1665   C.3       1 RES1   0.0000
    52 C45      -1.9924   -1.7235    5.6771   C.3       1 RES1   0.0000
    53 C46      -0.6174   -2.2620    6.1025   C.3       1 RES1   0.0000
    54 C47      -0.2157   -1.9796    7.5625   C.3       1 RES1   0.0000
    55 C48       1.3053   -1.8356    7.8027   C.3       1 RES1   0.0000
    56 C49       1.6852   -0.6977    8.7636   C.3       1 RES1   0.0000
    57 C50       3.1976   -0.5353    8.9693   C.3       1 RES1   0.0000
    58 C51       4.0169    0.0005    7.7879   C.3       1 RES1   0.0000
    59 C52       3.7125    1.4310    7.3283   C.3       1 RES1   0.0000
    60 C53       4.3336    2.5139    8.2095   C.3       1 RES1   0.0000
    61 C54       4.0437    3.9160    7.6827   C.3       1 RES1   0.0000
    62 H1       -0.8268   -2.2164  -11.3178   H         1 RES1   0.0000
    63 H2       -2.1179   -1.1142  -11.7919   H         1 RES1   0.0000
    64 H3       -2.4955   -2.7707  -11.3213   H         1 RES1   0.0000
    65 H4       -1.3995   -0.5973   -9.4708   H         1 RES1   0.0000
    66 H5       -1.6073   -2.2936   -9.0279   H         1 RES1   0.0000
    67 H6       -3.5210   -1.1912   -8.1782   H         1 RES1   0.0000
    68 H7       -4.0746   -2.0369   -9.6207   H         1 RES1   0.0000
    69 H8       -3.7887    0.1396  -10.8746   H         1 RES1   0.0000
    70 H9       -3.4656    0.9407   -9.3493   H         1 RES1   0.0000
    71 H10      -6.0068   -0.6602   -9.9135   H         1 RES1   0.0000
    72 H11      -5.8272    1.0395  -10.3213   H         1 RES1   0.0000
    73 H12      -6.9530    1.2151   -8.3683   H         1 RES1   0.0000
    74 H13      -5.2981    1.4158   -7.8152   H         1 RES1   0.0000
    75 H14      -5.3176   -1.0084   -7.1015   H         1 RES1   0.0000
    76 H15      -6.9874   -1.1268   -7.6274   H         1 RES1   0.0000
    77 H16      -7.7151    0.5017   -5.9818   H         1 RES1   0.0000
    78 H17      -6.0696    0.9747   -5.6425   H         1 RES1   0.0000
    79 H18      -6.0382   -1.7515   -5.0175   H         1 RES1   0.0000
    80 H19      -7.6371   -1.2712   -4.4989   H         1 RES1   0.0000
    81 H20      -6.6272    0.6150   -3.1834   H         1 RES1   0.0000
    82 H21      -5.0314    0.0894   -3.7134   H         1 RES1   0.0000
    83 H22      -6.9838   -1.6477   -2.1842   H         1 RES1   0.0000
    84 H23      -5.8742   -0.6143   -1.3364   H         1 RES1   0.0000
    85 H24      -4.8488   -2.6081   -3.3596   H         1 RES1   0.0000
    86 H25      -5.5021   -3.1945   -1.8314   H         1 RES1   0.0000
    87 H26      -3.8573   -4.3941   -2.0381   H         1 RES1   0.0000
    88 H27      -3.5972   -3.9627   -0.3453   H         1 RES1   0.0000
    89 H28      -1.7861   -5.2469   -1.2888   H         1 RES1   0.0000
    90 H29      -1.1929   -3.6606   -0.8275   H         1 RES1   0.0000
    91 H30      -1.2828   -2.8866   -3.1144   H         1 RES1   0.0000
    92 H31      -2.0876   -4.3569   -3.6593   H         1 RES1   0.0000
    93 H32      -0.1521   -5.6430   -3.6187   H         1 RES1   0.0000
    94 H33       0.6347   -4.6610   -2.4168   H         1 RES1   0.0000
    95 H34       0.1850   -4.0270   -5.3644   H         1 RES1   0.0000
    96 H35       1.7133   -4.3716   -4.5865   H         1 RES1   0.0000
    97 H36       1.4751   -2.2470   -3.2389   H         1 RES1   0.0000
    98 H37       0.0113   -1.8642   -4.1488   H         1 RES1   0.0000
    99 H38       1.2064   -1.7467   -6.2364   H         1 RES1   0.0000
   100 H39       2.6808   -2.3341   -5.4782   H         1 RES1   0.0000
   101 H40       3.2872   -0.2206   -5.0948   H         1 RES1   0.0000
   102 H41       1.9693   -0.0758   -3.9252   H         1 RES1   0.0000
   103 H42       0.5929    1.0413   -5.5496   H         1 RES1   0.0000
   104 H43       1.6171    0.5208   -6.8826   H         1 RES1   0.0000
   105 H44       3.4660    1.9107   -6.0825   H         1 RES1   0.0000
   106 H45       2.5618    2.3490   -4.6433   H         1 RES1   0.0000
   107 H46       0.9216    3.5633   -6.0623   H         1 RES1   0.0000
   108 H47       1.7526    3.0195   -7.5104   H         1 RES1   0.0000
   109 H48       3.0115    4.8488   -5.4108   H         1 RES1   0.0000
   110 H49       2.3852    5.3334   -6.9888   H         1 RES1   0.0000
   111 H50       3.7877    4.2853   -6.8886   H         1 RES1   0.0000
   112 H51      -4.1904    0.3051   -1.0199   H         1 RES1   0.0000
   113 H52      -3.4631    0.3365   -2.6521   H         1 RES1   0.0000
   114 H53      -3.3907    2.0350    0.2137   H         1 RES1   0.0000
   115 H54      -3.2528    2.7528   -1.4136   H         1 RES1   0.0000
   116 H55      -1.7343    3.9733    0.1625   H         1 RES1   0.0000
   117 H56      -0.8453    3.0766   -1.1073   H         1 RES1   0.0000
   118 H57      -1.7801    3.1734    2.2008   H         1 RES1   0.0000
   119 H58      -0.3345    2.3023    2.7117   H         1 RES1   0.0000
   120 H59      -2.1885    2.5240    4.4572   H         1 RES1   0.0000
   121 H60      -3.6657    1.7212    4.9644   H         1 RES1   0.0000
   122 H61      -3.6132    3.4871    2.4829   H         1 RES1   0.0000
   123 H62      -3.8747    4.0115    4.1471   H         1 RES1   0.0000
   124 H63      -6.0252    3.7666    3.2812   H         1 RES1   0.0000
   125 H64      -5.7976    2.2954    4.2156   H         1 RES1   0.0000
   126 H65      -5.1014    1.1682    2.0047   H         1 RES1   0.0000
   127 H66      -5.5959    2.6625    1.1826   H         1 RES1   0.0000
   128 H67      -7.9027    2.3780    2.0399   H         1 RES1   0.0000
   129 H68      -7.3998    0.9589    2.9434   H         1 RES1   0.0000
   130 H69      -6.6107    0.0181    0.6268   H         1 RES1   0.0000
   131 H70      -7.6585    1.2645   -0.0630   H         1 RES1   0.0000
   132 H71      -9.1299   -0.5971    0.1470   H         1 RES1   0.0000
   133 H72      -9.4514    0.3345    1.6007   H         1 RES1   0.0000
   134 H73      -7.6172   -1.1503    2.7361   H         1 RES1   0.0000
   135 H74      -7.7146   -2.1518    1.2972   H         1 RES1   0.0000
   136 H75      -9.1183   -3.1531    2.9394   H         1 RES1   0.0000
   137 H76     -10.1839   -2.4359    1.7316   H         1 RES1   0.0000
   138 H77     -11.0916   -2.0264    3.9142   H         1 RES1   0.0000
   139 H78     -10.5858   -0.4909    3.2400   H         1 RES1   0.0000
   140 H79      -8.5743   -0.4773    4.6614   H         1 RES1   0.0000
   141 H80      -8.9228   -2.1224    5.2070   H         1 RES1   0.0000
   142 H81     -10.7057    0.3061    5.7076   H         1 RES1   0.0000
   143 H82      -9.6208   -0.4206    6.8951   H         1 RES1   0.0000
   144 H83     -11.0034   -1.3278    6.2937   H         1 RES1   0.0000
   145 H84      -3.7807   -0.8996    2.9316   H         1 RES1   0.0000
   146 H85      -3.8731   -0.2937    4.5937   H         1 RES1   0.0000
   147 H86      -1.1345   -1.0626    3.8128   H         1 RES1   0.0000
   148 H87      -2.2857   -2.3831    3.6548   H         1 RES1   0.0000
   149 H88      -2.7709   -2.4232    5.9655   H         1 RES1   0.0000
   150 H89      -2.1766   -0.8059    6.2207   H         1 RES1   0.0000
   151 H90       0.1057   -1.7758    5.4588   H         1 RES1   0.0000
   152 H91      -0.5831   -3.3314    5.9090   H         1 RES1   0.0000
   153 H92      -0.6109   -2.7501    8.2198   H         1 RES1   0.0000
   154 H93      -0.6866   -1.0500    7.8657   H         1 RES1   0.0000
   155 H94       1.8012   -1.6286    6.8569   H         1 RES1   0.0000
   156 H95       1.7348   -2.7632    8.1872   H         1 RES1   0.0000
   157 H96       1.2389   -0.8829    9.7422   H         1 RES1   0.0000
   158 H97       1.2891    0.2529    8.4058   H         1 RES1   0.0000
   159 H98       3.6086   -1.5113    9.2338   H         1 RES1   0.0000
   160 H99       3.3482    0.1318    9.8190   H         1 RES1   0.0000
   161 H100      3.9019   -0.6771    6.9362   H         1 RES1   0.0000
   162 H101      5.0661   -0.0443    8.0824   H         1 RES1   0.0000
   163 H102      2.6347    1.5861    7.2893   H         1 RES1   0.0000
   164 H103      4.1066    1.5567    6.3137   H         1 RES1   0.0000
   165 H104      5.4147    2.3678    8.2497   H         1 RES1   0.0000
   166 H105      3.9435    2.4318    9.2232   H         1 RES1   0.0000
   167 H106      4.4544    4.0460    6.6828   H         1 RES1   0.0000
   168 H107      4.4877    4.6597    8.3379   H         1 RES1   0.0000
   169 H108      2.9737    4.1110    7.6422   H         1 RES1   0.0000
   170 C55       0.3127    1.3441  -11.0078   C.3       1 RES1   0.0000
   171 C56       1.0178    1.5783   -9.6770   C.3       1 RES1   0.0000
   172 C57       2.4848    1.1404   -9.6678   C.3       1 RES1   0.0000
   173 C58       2.6497   -0.3719   -9.5701   C.3       1 RES1   0.0000
   174 C59       4.1089   -0.8452   -9.6307   C.3       1 RES1   0.0000
   175 C60       4.7394   -1.2689   -8.2977   C.3       1 RES1   0.0000
   176 C61       5.2434   -0.1078   -7.4352   C.3       1 RES1   0.0000
   177 C62       5.8696   -0.6004   -6.1220   C.3       1 RES1   0.0000
   178 C63       5.9914    0.4668   -5.0143   C.3       1 RES1   0.0000
   179 C64       5.6864   -0.1357   -3.6388   C.3       1 RES1   0.0000
   180 C65       5.8216    0.8242   -2.4488   C.3       1 RES1   0.0000
   181 C66       4.9378    2.0830   -2.4104   C.3       1 RES1   0.0000
   182 N3        3.5091    2.1735   -2.0079   N.am      1 RES1   0.0000
   183 C67       3.1557    3.6170   -2.0272   C.3       1 RES1   0.0000
   184 C68       1.7187    4.0918   -1.8047   C.3       1 RES1   0.0000
   185 C69       0.8537    3.8825   -3.0485   C.3       1 RES1   0.0000
   186 C70      -0.3954    4.7587   -3.1593   C.3       1 RES1   0.0000
   187 C71      -1.2682    4.3730   -4.3618   C.3       1 RES1   0.0000
   188 C72      -1.8330    2.9449   -4.3426   C.3       1 RES1   0.0000
   189 C73      -2.1860    2.4387   -5.7456   C.3       1 RES1   0.0000
   190 C74      -2.9042    1.0880   -5.7374   C.3       1 RES1   0.0000
   191 C75      -2.0197   -0.1375   -5.4935   C.3       1 RES1   0.0000
   192 C76      -2.8843   -1.3788   -5.2208   C.3       1 RES1   0.0000
   193 C77      -2.4667   -2.6380   -5.9810   C.3       1 RES1   0.0000
   194 C78      -3.5636   -3.6991   -5.9749   C.3       1 RES1   0.0000
   195 C79       2.6770    1.2054   -1.6577   C.2       1 RES1   0.0000
   196 O5        1.4352    1.3318   -1.5345   O.2       1 RES1   0.0000
   197 C80       3.2548   -0.1608   -1.2791   C.3       1 RES1   0.0000
   198 O6        2.1695   -0.9969   -0.8871   O.3       1 RES1   0.0000
   199 C81       2.6170   -2.2453   -0.3573   C.3       1 RES1   0.0000
   200 C82       1.3684   -3.1066   -0.1903   C.3       1 RES1   0.0000
   201 O7        0.3627   -2.5124    0.6204   O.3       1 RES1   0.0000
   202 C83       0.5539   -2.6837    2.0158   C.3       1 RES1   0.0000
   203 C84       1.2612   -1.4427    2.5676   C.2       1 RES1   0.0000
   204 O8        1.1512   -0.4004    1.8844   O.2       1 RES1   0.0000
   205 N4        1.8859   -1.4808    3.7315   N.am      1 RES1   0.0000
   206 C85       2.1809   -2.7629    4.3927   C.3       1 RES1   0.0000
   207 C86       3.2213   -3.7270    3.7954   C.3       1 RES1   0.0000
   208 C87       4.6652   -3.2239    3.7694   C.3       1 RES1   0.0000
   209 C88       4.9614   -2.4717    2.4804   C.3       1 RES1   0.0000
   210 C89       6.3708   -1.9045    2.4288   C.3       1 RES1   0.0000
   211 C90       6.5866   -1.1136    1.1371   C.3       1 RES1   0.0000
   212 C91       7.6976   -0.0759    1.2969   C.3       1 RES1   0.0000
   213 C92       7.1864    1.1633    2.0381   C.3       1 RES1   0.0000
   214 C93       8.3046    2.0525    2.5822   C.3       1 RES1   0.0000
   215 C94       9.1302    1.4174    3.7015   C.3       1 RES1   0.0000
   216 C95       8.3326    1.1057    4.9672   C.3       1 RES1   0.0000
   217 C96       9.2464    0.6542    6.0995   C.3       1 RES1   0.0000
   218 C97       2.3773   -0.2275    4.3388   C.3       1 RES1   0.0000
   219 C98       1.4219    0.9822    4.4854   C.3       1 RES1   0.0000
   220 C99       0.3270    0.9002    5.5702   C.3       1 RES1   0.0000
   221 C100     -0.0467    2.1887    6.3307   C.3       1 RES1   0.0000
   222 C101     -0.8616    1.9311    7.6153   C.3       1 RES1   0.0000
   223 C102     -2.3521    1.6096    7.4365   C.3       1 RES1   0.0000
   224 C103     -2.9064    0.6804    8.5277   C.3       1 RES1   0.0000
   225 C104     -4.4361    0.5543    8.5455   C.3       1 RES1   0.0000
   226 C105     -5.0641   -0.2468    7.3974   C.3       1 RES1   0.0000
   227 C106     -4.8679   -1.7693    7.4392   C.3       1 RES1   0.0000
   228 C107     -5.9785   -2.5718    8.1135   C.3       1 RES1   0.0000
   229 C108     -5.7495   -4.0678    7.9102   C.3       1 RES1   0.0000
   230 H109     -0.7105    1.7146  -10.9600   H         1 RES1   0.0000
   231 H110      0.2797    0.2882  -11.2612   H         1 RES1   0.0000
   232 H111      0.8277    1.8744  -11.8045   H         1 RES1   0.0000
   233 H112      0.4743    1.0476   -8.8888   H         1 RES1   0.0000
   234 H113      0.9614    2.6483   -9.4574   H         1 RES1   0.0000
   235 H114      2.9917    1.6160   -8.8292   H         1 RES1   0.0000
   236 H115      2.9628    1.5019  -10.5780   H         1 RES1   0.0000
   237 H116      2.1042   -0.8125  -10.4017   H         1 RES1   0.0000
   238 H117      2.1792   -0.7383   -8.6541   H         1 RES1   0.0000
   239 H118      4.7293   -0.0692  -10.0787   H         1 RES1   0.0000
   240 H119      4.1525   -1.7137  -10.2862   H         1 RES1   0.0000
   241 H120      5.5872   -1.9242   -8.5130   H         1 RES1   0.0000
   242 H121      4.0102   -1.8506   -7.7249   H         1 RES1   0.0000
   243 H122      4.4019    0.5507   -7.2243   H         1 RES1   0.0000
   244 H123      5.9769    0.4685   -7.9994   H         1 RES1   0.0000
   245 H124      6.8535   -1.0200   -6.3310   H         1 RES1   0.0000
   246 H125      5.2558   -1.4229   -5.7477   H         1 RES1   0.0000
   247 H126      5.2849    1.2747   -5.2054   H         1 RES1   0.0000
   248 H127      6.9900    0.9045   -5.0097   H         1 RES1   0.0000
   249 H128      6.3849   -0.9539   -3.4582   H         1 RES1   0.0000
   250 H129      4.6856   -0.5693   -3.6792   H         1 RES1   0.0000
   251 H130      6.8346    1.2311   -2.5008   H         1 RES1   0.0000
   252 H131      5.7756    0.2628   -1.5170   H         1 RES1   0.0000
   253 H132      4.9643    2.5023   -3.4203   H         1 RES1   0.0000
   254 H133      5.4526    2.7906   -1.7524   H         1 RES1   0.0000
   255 H134      3.4771    4.0208   -2.9911   H         1 RES1   0.0000
   256 H135      3.7927    4.0760   -1.2633   H         1 RES1   0.0000
   257 H136      1.7800    5.1609   -1.5912   H         1 RES1   0.0000
   258 H137      1.2854    3.6093   -0.9290   H         1 RES1   0.0000
   259 H138      0.5884    2.8275   -3.0937   H         1 RES1   0.0000
   260 H139      1.4540    4.1080   -3.9253   H         1 RES1   0.0000
   261 H140     -0.0832    5.7941   -3.2999   H         1 RES1   0.0000
   262 H141     -0.9922    4.7401   -2.2487   H         1 RES1   0.0000
   263 H142     -0.6794    4.5128   -5.2675   H         1 RES1   0.0000
   264 H143     -2.0980    5.0786   -4.4250   H         1 RES1   0.0000
   265 H144     -2.7377    2.9241   -3.7268   H         1 RES1   0.0000
   266 H145     -1.1204    2.2475   -3.8961   H         1 RES1   0.0000
   267 H146     -1.2831    2.3638   -6.3532   H         1 RES1   0.0000
   268 H147     -2.8432    3.1688   -6.2198   H         1 RES1   0.0000
   269 H148     -3.3862    0.9460   -6.7038   H         1 RES1   0.0000
   270 H149     -3.6980    1.1325   -4.9867   H         1 RES1   0.0000
   271 H150     -1.3340    0.0393   -4.6589   H         1 RES1   0.0000
   272 H151     -1.4164   -0.3076   -6.3853   H         1 RES1   0.0000
   273 H152     -3.9098   -1.1572   -5.5091   H         1 RES1   0.0000
   274 H153     -2.8934   -1.5907   -4.1480   H         1 RES1   0.0000
   275 H154     -1.5584   -3.0459   -5.5456   H         1 RES1   0.0000
   276 H155     -2.2441   -2.3865   -7.0159   H         1 RES1   0.0000
   277 H156     -3.8638   -3.9578   -4.9608   H         1 RES1   0.0000
   278 H157     -3.2131   -4.6090   -6.4551   H         1 RES1   0.0000
   279 H158     -4.4444   -3.3449   -6.5063   H         1 RES1   0.0000
   280 H159      3.9410   -0.0302   -0.4329   H         1 RES1   0.0000
   281 H160      3.7858   -0.6278   -2.1121   H         1 RES1   0.0000
   282 H161      3.1435   -2.0735    0.5882   H         1 RES1   0.0000
   283 H162      3.3130   -2.7441   -1.0450   H         1 RES1   0.0000
   284 H163      1.6244   -4.1006    0.1874   H         1 RES1   0.0000
   285 H164      0.9044   -3.2035   -1.1758   H         1 RES1   0.0000
   286 H165      1.0519   -3.6291    2.2301   H         1 RES1   0.0000
   287 H166     -0.4422   -2.7019    2.4750   H         1 RES1   0.0000
   288 H167      1.2461   -3.3142    4.4912   H         1 RES1   0.0000
   289 H168      2.5252   -2.5366    5.3985   H         1 RES1   0.0000
   290 H169      2.9553   -4.0633    2.7910   H         1 RES1   0.0000
   291 H170      3.1644   -4.5989    4.4519   H         1 RES1   0.0000
   292 H171      5.3352   -4.0812    3.8226   H         1 RES1   0.0000
   293 H172      4.8620   -2.5948    4.6401   H         1 RES1   0.0000
   294 H173      4.2482   -1.6457    2.3817   H         1 RES1   0.0000
   295 H174      4.8250   -3.1537    1.6352   H         1 RES1   0.0000
   296 H175      7.0998   -2.7111    2.4986   H         1 RES1   0.0000
   297 H176      6.5284   -1.2577    3.2921   H         1 RES1   0.0000
   298 H177      5.6559   -0.5916    0.8707   H         1 RES1   0.0000
   299 H178      6.8225   -1.7991    0.3210   H         1 RES1   0.0000
   300 H179      8.0846    0.2186    0.3187   H         1 RES1   0.0000
   301 H180      8.5179   -0.5386    1.8448   H         1 RES1   0.0000
   302 H181      6.5391    0.8601    2.8651   H         1 RES1   0.0000
   303 H182      6.5642    1.7466    1.3472   H         1 RES1   0.0000
   304 H183      7.8524    2.9749    2.9523   H         1 RES1   0.0000
   305 H184      8.9732    2.3155    1.7618   H         1 RES1   0.0000
   306 H185      9.9303    2.1111    3.9599   H         1 RES1   0.0000
   307 H186      9.6075    0.5051    3.3426   H         1 RES1   0.0000
   308 H187      7.6025    0.3150    4.7710   H         1 RES1   0.0000
   309 H188      7.7856    1.9992    5.2788   H         1 RES1   0.0000
   310 H189      9.8028   -0.2322    5.8064   H         1 RES1   0.0000
   311 H190      8.6727    0.4232    6.9939   H         1 RES1   0.0000
   312 H191      9.9569    1.4374    6.3454   H         1 RES1   0.0000
   313 H192      3.2320    0.1040    3.7404   H         1 RES1   0.0000
   314 H193      2.7508   -0.4828    5.3266   H         1 RES1   0.0000
   315 H194      0.9923    1.2034    3.5092   H         1 RES1   0.0000
   316 H195      2.0940    1.7998    4.7389   H         1 RES1   0.0000
   317 H196      0.6759    0.2049    6.3217   H         1 RES1   0.0000
   318 H197     -0.5776    0.5036    5.1222   H         1 RES1   0.0000
   319 H198     -0.5887    2.8856    5.6915   H         1 RES1   0.0000
   320 H199      0.8590    2.7082    6.6358   H         1 RES1   0.0000
   321 H200     -0.7636    2.8066    8.2559   H         1 RES1   0.0000
   322 H201     -0.4074    1.1095    8.1623   H         1 RES1   0.0000
   323 H202     -2.4960    1.1286    6.4739   H         1 RES1   0.0000
   324 H203     -2.9333    2.5333    7.4350   H         1 RES1   0.0000
   325 H204     -2.5954    1.0638    9.4992   H         1 RES1   0.0000
   326 H205     -2.4792   -0.3187    8.4288   H         1 RES1   0.0000
   327 H206     -4.8580    1.5611    8.5206   H         1 RES1   0.0000
   328 H207     -4.7262    0.0954    9.4921   H         1 RES1   0.0000
   329 H208     -4.6559    0.1290    6.4533   H         1 RES1   0.0000
   330 H209     -6.1339   -0.0330    7.3885   H         1 RES1   0.0000
   331 H210     -3.9304   -2.0070    7.9415   H         1 RES1   0.0000
   332 H211     -4.8099   -2.1322    6.4090   H         1 RES1   0.0000
   333 H212     -6.9415   -2.2971    7.6800   H         1 RES1   0.0000
   334 H213     -6.0106   -2.3493    9.1788   H         1 RES1   0.0000
   335 H214     -5.8139   -4.3261    6.8548   H         1 RES1   0.0000
   336 H215     -6.4946   -4.6461    8.4467   H         1 RES1   0.0000
   337 H216     -4.7681   -4.3686    8.2699   H         1 RES1   0.0000
   338 O9        2.1438    1.8820    1.0028   O.3       1 RES1   0.0000
   339 H217      2.6263    1.6855    1.8152   H         1 RES1   0.0000
   340 H218      2.3284    2.8038    0.7899   H         1 RES1   0.0000
@<TRIPOS>BOND
     1     1    28    1
     2     1    30    1
     3     1    33    1
     4     1    36    1
     5     1   196    1
     6     1   198    1
     7     1   201    1
     8     1   204    1
     9     1   338    1
    10     2     3    1
    11     2    62    1
    12     2    63    1
    13     2    64    1
    14     3     4    1
    15     3    65    1
    16     3    66    1
    17     4     5    1
    18     4    67    1
    19     4    68    1
    20     5     6    1
    21     5    69    1
    22     5    70    1
    23     6     7    1
    24     6    71    1
    25     6    72    1
    26     7     8    1
    27     7    73    1
    28     7    74    1
    29     8     9    1
    30     8    75    1
    31     8    76    1
    32     9    10    1
    33     9    77    1
    34     9    78    1
    35    10    11    1
    36    10    79    1
    37    10    80    1
    38    11    12    1
    39    11    81    1
    40    11    82    1
    41    12    13    1
    42    12    83    1
    43    12    84    1
    44    13    14    1
    45    13    85    1
    46    13    86    1
    47    14    15    1
    48    14    27    1
    49    15    16    1
    50    15    87    1
    51    15    88    1
    52    16    17    1
    53    16    89    1
    54    16    90    1
    55    17    18    1
    56    17    91    1
    57    17    92    1
    58    18    19    1
    59    18    93    1
    60    18    94    1
    61    19    20    1
    62    19    95    1
    63    19    96    1
    64    20    21    1
    65    20    97    1
    66    20    98    1
    67    21    22    1
    68    21    99    1
    69    21   100    1
    70    22    23    1
    71    22   101    1
    72    22   102    1
    73    23    24    1
    74    23   103    1
    75    23   104    1
    76    24    25    1
    77    24   105    1
    78    24   106    1
    79    25    26    1
    80    25   107    1
    81    25   108    1
    82    26   109    1
    83    26   110    1
    84    26   111    1
    85    27    28    2
    86    27    29    1
    87    29    30    1
    88    29   112    1
    89    29   113    1
    90    30    31    1
    91    31    32    1
    92    31   114    1
    93    31   115    1
    94    32    33    1
    95    32   116    1
    96    32   117    1
    97    33    34    1
    98    34    35    1
    99    34   118    1
   100    34   119    1
   101    35    36    2
   102    35    37    1
   103    37    38    1
   104    37    50    1
   105    38    39    1
   106    38   120    1
   107    38   121    1
   108    39    40    1
   109    39   122    1
   110    39   123    1
   111    40    41    1
   112    40   124    1
   113    40   125    1
   114    41    42    1
   115    41   126    1
   116    41   127    1
   117    42    43    1
   118    42   128    1
   119    42   129    1
   120    43    44    1
   121    43   130    1
   122    43   131    1
   123    44    45    1
   124    44   132    1
   125    44   133    1
   126    45    46    1
   127    45   134    1
   128    45   135    1
   129    46    47    1
   130    46   136    1
   131    46   137    1
   132    47    48    1
   133    47   138    1
   134    47   139    1
   135    48    49    1
   136    48   140    1
   137    48   141    1
   138    49   142    1
   139    49   143    1
   140    49   144    1
   141    50    51    1
   142    50   145    1
   143    50   146    1
   144    51    52    1
   145    51   147    1
   146    51   148    1
   147    52    53    1
   148    52   149    1
   149    52   150    1
   150    53    54    1
   151    53   151    1
   152    53   152    1
   153    54    55    1
   154    54   153    1
   155    54   154    1
   156    55    56    1
   157    55   155    1
   158    55   156    1
   159    56    57    1
   160    56   157    1
   161    56   158    1
   162    57    58    1
   163    57   159    1
   164    57   160    1
   165    58    59    1
   166    58   161    1
   167    58   162    1
   168    59    60    1
   169    59   163    1
   170    59   164    1
   171    60    61    1
   172    60   165    1
   173    60   166    1
   174    61   167    1
   175    61   168    1
   176    61   169    1
   177   170   171    1
   178   170   230    1
   179   170   231    1
   180   170   232    1
   181   171   172    1
   182   171   233    1
   183   171   234    1
   184   172   173    1
   185   172   235    1
   186   172   236    1
   187   173   174    1
   188   173   237    1
   189   173   238    1
   190   174   175    1
   191   174   239    1
   192   174   240    1
   193   175   176    1
   194   175   241    1
   195   175   242    1
   196   176   177    1
   197   176   243    1
   198   176   244    1
   199   177   178    1
   200   177   245    1
   201   177   246    1
   202   178   179    1
   203   178   247    1
   204   178   248    1
   205   179   180    1
   206   179   249    1
   207   179   250    1
   208   180   181    1
   209   180   251    1
   210   180   252    1
   211   181   182    1
   212   181   253    1
   213   181   254    1
   214   182   183    1
   215   182   195    1
   216   183   184    1
   217   183   255    1
   218   183   256    1
   219   184   185    1
   220   184   257    1
   221   184   258    1
   222   185   186    1
   223   185   259    1
   224   185   260    1
   225   186   187    1
   226   186   261    1
   227   186   262    1
   228   187   188    1
   229   187   263    1
   230   187   264    1
   231   188   189    1
   232   188   265    1
   233   188   266    1
   234   189   190    1
   235   189   267    1
   236   189   268    1
   237   190   191    1
   238   190   269    1
   239   190   270    1
   240   191   192    1
   241   191   271    1
   242   191   272    1
   243   192   193    1
   244   192   273    1
   245   192   274    1
   246   193   194    1
   247   193   275    1
   248   193   276    1
   249   194   277    1
   250   194   278    1
   251   194   279    1
   252   195   196    2
   253   195   197    1
   254   197   198    1
   255   197   280    1
   256   197   281    1
   257   198   199    1
   258   199   200    1
   259   199   282    1
   260   199   283    1
   261   200   201    1
   262   200   284    1
   263   200   285    1
   264   201   202    1
   265   202   203    1
   266   202   286    1
   267   202   287    1
   268   203   204    2
   269   203   205    1
   270   205   206    1
   271   205   218    1
   272   206   207    1
   273   206   288    1
   274   206   289    1
   275   207   208    1
   276   207   290    1
   277   207   291    1
   278   208   209    1
   279   208   292    1
   280   208   293    1
   281   209   210    1
   282   209   294    1
   283   209   295    1
   284   210   211    1
   285   210   296    1
   286   210   297    1
   287   211   212    1
   288   211   298    1
   289   211   299    1
   290   212   213    1
   291   212   300    1
   292   212   301    1
   293   213   214    1
   294   213   302    1
   295   213   303    1
   296   214   215    1
   297   214   304    1
   298   214   305    1
   299   215   216    1
   300   215   306    1
   301   215   307    1
   302   216   217    1
   303   216   308    1
   304   216   309    1
   305   217   310    1
   306   217   311    1
   307   217   312    1
   308   218   219    1
   309   218   313    1
   310   218   314    1
   311   219   220    1
   312   219   315    1
   313   219   316    1
   314   220   221    1
   315   220   317    1
   316   220   318    1
   317   221   222    1
   318   221   319    1
   319   221   320    1
   320   222   223    1
   321   222   321    1
   322   222   322    1
   323   223   224    1
   324   223   323    1
   325   223   324    1
   326   224   225    1
   327   224   325    1
   328   224   326    1
   329   225   226    1
   330   225   327    1
   331   225   328    1
   332   226   227    1
   333   226   329    1
   334   226   330    1
   335   227   228    1
   336   227   331    1
   337   227   332    1
   338   228   229    1
   339   228   333    1
   340   228   334    1
   341   229   335    1
   342   229   336    1
   343   229   337    1
   344   338   339    1
   345   338   340    1
@<TRIPOS>SUBSTRUCTURE
     1 RES1      340 GROUP             0 ****  ****    0  
