@<TRIPOS>MOLECULE
am_c3_9H2O_c0_0_nunpairedes_0_charge_3 Charge: 3 Unpaired_Electrons: 5 XTB_Unpaired_Electrons: 0 XTB_Charge: 3
   328   333     1     0     0
SMALL
NoCharges
****
Generated from Architector

@<TRIPOS>ATOM
     1 Sm1       0.1070    0.1818    0.2425   Sm        1 RES1   0.0000
     2 C1       -9.5582    3.4188    4.7057   C.3       1 RES1   0.0000
     3 C2       -8.3705    2.7262    4.0502   C.3       1 RES1   0.0000
     4 C3       -7.5130    1.9967    5.0859   C.3       1 RES1   0.0000
     5 C4       -6.3279    1.2469    4.4658   C.3       1 RES1   0.0000
     6 C5       -5.0517    2.0943    4.3127   C.3       1 RES1   0.0000
     7 C6       -4.1886    1.4077    3.2536   C.3       1 RES1   0.0000
     8 N1       -2.7804    1.7661    3.0770   N.am      1 RES1   0.0000
     9 C7       -1.9755    2.0405    4.2688   C.3       1 RES1   0.0000
    10 C8       -2.0755    3.4984    4.7355   C.3       1 RES1   0.0000
    11 C9       -1.4599    4.5978    3.8544   C.3       1 RES1   0.0000
    12 C10      -2.1881    5.9058    4.1839   C.3       1 RES1   0.0000
    13 C11       0.0390    4.8254    4.0642   C.3       1 RES1   0.0000
    14 C12       1.0027    3.6861    3.6792   C.3       1 RES1   0.0000
    15 C13       1.3481    2.8857    4.8942   C.2       1 RES1   0.0000
    16 C14       2.4637    2.9159    5.6143   C.2       1 RES1   0.0000
    17 C15       2.5489    2.1439    6.8980   C.3       1 RES1   0.0000
    18 C16       3.7026    3.6893    5.2900   C.3       1 RES1   0.0000
    19 C17      -2.1457    1.4280    1.9561   C.2       1 RES1   0.0000
    20 O1       -0.9109    1.3441    1.8656   O.2       1 RES1   0.0000
    21 C18      -2.9886    1.1423    0.7079   C.3       1 RES1   0.0000
    22 O2       -2.1250    0.7421   -0.3544   O.3       1 RES1   0.0000
    23 C19      -2.6912    0.7769   -1.6606   C.3       1 RES1   0.0000
    24 C20      -1.5094    1.0353   -2.6049   C.2       1 RES1   0.0000
    25 O3       -0.3679    0.8743   -2.1373   O.2       1 RES1   0.0000
    26 N2       -1.7571    1.5256   -3.8188   N.am      1 RES1   0.0000
    27 C21      -2.9637    1.2138   -4.5727   C.3       1 RES1   0.0000
    28 C22      -2.8975   -0.2197   -5.1279   C.3       1 RES1   0.0000
    29 C23      -4.2439   -0.7668   -5.6103   C.3       1 RES1   0.0000
    30 C24      -5.1412   -1.2849   -4.4816   C.3       1 RES1   0.0000
    31 C25      -6.3017   -2.1026   -5.0605   C.3       1 RES1   0.0000
    32 C26      -7.2275   -2.6928   -4.0025   C.3       1 RES1   0.0000
    33 C27      -0.7317    2.3306   -4.4747   C.3       1 RES1   0.0000
    34 C28      -0.1002    1.7206   -5.7245   C.3       1 RES1   0.0000
    35 C29       0.6153    0.3906   -5.4550   C.3       1 RES1   0.0000
    36 C30       1.9207    0.6417   -4.7045   C.3       1 RES1   0.0000
    37 C31       0.8354   -0.3642   -6.7734   C.3       1 RES1   0.0000
    38 C32       1.4125   -1.7773   -6.6196   C.3       1 RES1   0.0000
    39 C33       0.5528   -2.6693   -5.7795   C.2       1 RES1   0.0000
    40 C34      -0.1376   -3.7362   -6.1668   C.2       1 RES1   0.0000
    41 C35      -0.9497   -4.5379   -5.1883   C.3       1 RES1   0.0000
    42 C36      -0.1841   -4.2761   -7.5590   C.3       1 RES1   0.0000
    43 H1      -10.1709    3.9137    3.9578   H         1 RES1   0.0000
    44 H2      -10.1738    2.6882    5.2232   H         1 RES1   0.0000
    45 H3       -9.2207    4.1614    5.4245   H         1 RES1   0.0000
    46 H4       -8.7396    2.0024    3.3157   H         1 RES1   0.0000
    47 H5       -7.7669    3.4679    3.5190   H         1 RES1   0.0000
    48 H6       -7.1531    2.7099    5.8298   H         1 RES1   0.0000
    49 H7       -8.1512    1.2768    5.6032   H         1 RES1   0.0000
    50 H8       -6.1014    0.3765    5.0834   H         1 RES1   0.0000
    51 H9       -6.6308    0.8708    3.4852   H         1 RES1   0.0000
    52 H10      -5.3201    3.1012    3.9984   H         1 RES1   0.0000
    53 H11      -4.5588    2.1506    5.2790   H         1 RES1   0.0000
    54 H12      -4.1980    0.3381    3.5036   H         1 RES1   0.0000
    55 H13      -4.7098    1.5709    2.3118   H         1 RES1   0.0000
    56 H14      -2.3233    1.3813    5.0746   H         1 RES1   0.0000
    57 H15      -0.9482    1.7816    4.0146   H         1 RES1   0.0000
    58 H16      -3.1317    3.7304    4.8489   H         1 RES1   0.0000
    59 H17      -1.6346    3.5475    5.7309   H         1 RES1   0.0000
    60 H18      -1.6412    4.3608    2.8008   H         1 RES1   0.0000
    61 H19      -2.1594    6.1077    5.2495   H         1 RES1   0.0000
    62 H20      -1.7225    6.7463    3.6837   H         1 RES1   0.0000
    63 H21      -3.2299    5.8700    3.8796   H         1 RES1   0.0000
    64 H22       0.3055    5.7090    3.4874   H         1 RES1   0.0000
    65 H23       0.2038    5.0775    5.1118   H         1 RES1   0.0000
    66 H24       0.5705    3.0421    2.9058   H         1 RES1   0.0000
    67 H25       1.9046    4.1339    3.2651   H         1 RES1   0.0000
    68 H26       0.5392    2.2871    5.2840   H         1 RES1   0.0000
    69 H27       1.6198    1.6202    7.1091   H         1 RES1   0.0000
    70 H28       3.3622    1.4205    6.8685   H         1 RES1   0.0000
    71 H29       2.7501    2.8287    7.7200   H         1 RES1   0.0000
    72 H30       3.6226    4.2420    4.3596   H         1 RES1   0.0000
    73 H31       3.9075    4.3969    6.0905   H         1 RES1   0.0000
    74 H32       4.5575    3.0162    5.2332   H         1 RES1   0.0000
    75 H33      -3.6782    0.3348    0.9546   H         1 RES1   0.0000
    76 H34      -3.5606    2.0340    0.4362   H         1 RES1   0.0000
    77 H35      -3.1841   -0.1676   -1.9177   H         1 RES1   0.0000
    78 H36      -3.4134    1.5938   -1.7513   H         1 RES1   0.0000
    79 H37      -3.8547    1.3270   -3.9546   H         1 RES1   0.0000
    80 H38      -3.0451    1.9173   -5.4016   H         1 RES1   0.0000
    81 H39      -2.2032   -0.2585   -5.9642   H         1 RES1   0.0000
    82 H40      -2.5022   -0.8868   -4.3565   H         1 RES1   0.0000
    83 H41      -4.7771   -0.0059   -6.1825   H         1 RES1   0.0000
    84 H42      -4.0505   -1.6035   -6.2882   H         1 RES1   0.0000
    85 H43      -4.5492   -1.9326   -3.8225   H         1 RES1   0.0000
    86 H44      -5.5325   -0.4567   -3.8791   H         1 RES1   0.0000
    87 H45      -6.8795   -1.4663   -5.7332   H         1 RES1   0.0000
    88 H46      -5.8830   -2.9204   -5.6530   H         1 RES1   0.0000
    89 H47      -7.6672   -1.9083   -3.3895   H         1 RES1   0.0000
    90 H48      -8.0320   -3.2379   -4.4880   H         1 RES1   0.0000
    91 H49      -6.6839   -3.3879   -3.3646   H         1 RES1   0.0000
    92 H50      -1.2073    3.2782   -4.7519   H         1 RES1   0.0000
    93 H51       0.0255    2.5277   -3.7151   H         1 RES1   0.0000
    94 H52      -0.8753    1.5815   -6.4778   H         1 RES1   0.0000
    95 H53       0.6055    2.4508   -6.1285   H         1 RES1   0.0000
    96 H54      -0.0363   -0.2078   -4.8089   H         1 RES1   0.0000
    97 H55       2.5601    1.3233   -5.2606   H         1 RES1   0.0000
    98 H56       1.7130    1.0584   -3.7195   H         1 RES1   0.0000
    99 H57       2.4526   -0.2948   -4.5723   H         1 RES1   0.0000
   100 H58      -0.1225   -0.4485   -7.2918   H         1 RES1   0.0000
   101 H59       1.5023    0.2168   -7.4119   H         1 RES1   0.0000
   102 H60       1.5303   -2.1914   -7.6167   H         1 RES1   0.0000
   103 H61       2.4090   -1.7275   -6.1760   H         1 RES1   0.0000
   104 H62       0.4987   -2.3795   -4.7341   H         1 RES1   0.0000
   105 H63      -0.9458   -4.0944   -4.1925   H         1 RES1   0.0000
   106 H64      -1.9804   -4.6139   -5.5296   H         1 RES1   0.0000
   107 H65      -0.5580   -5.5520   -5.1210   H         1 RES1   0.0000
   108 H66       0.3706   -3.6662   -8.2611   H         1 RES1   0.0000
   109 H67       0.2270   -5.2833   -7.5795   H         1 RES1   0.0000
   110 H68      -1.2157   -4.3395   -7.8980   H         1 RES1   0.0000
   111 C37       5.9275    7.6914   -2.2264   C.3       1 RES1   0.0000
   112 C38       4.8786    6.6096   -2.4708   C.3       1 RES1   0.0000
   113 C39       4.2638    6.7411   -3.8690   C.3       1 RES1   0.0000
   114 C40       3.4804    5.5412   -4.4165   C.3       1 RES1   0.0000
   115 C41       2.2654    5.0918   -3.5999   C.3       1 RES1   0.0000
   116 C42       2.6062    4.2969   -2.3325   C.3       1 RES1   0.0000
   117 N3        1.4270    3.9191   -1.5552   N.am      1 RES1   0.0000
   118 C43       0.2501    4.7945   -1.6147   C.3       1 RES1   0.0000
   119 C44       0.5470    6.2137   -1.1091   C.3       1 RES1   0.0000
   120 C45       0.4855    6.3979    0.4163   C.3       1 RES1   0.0000
   121 C46       1.7119    7.1708    0.9055   C.3       1 RES1   0.0000
   122 C47      -0.7985    7.1256    0.8259   C.3       1 RES1   0.0000
   123 C48      -2.0923    6.3208    0.5808   C.3       1 RES1   0.0000
   124 C49      -2.8134    6.7523   -0.6592   C.2       1 RES1   0.0000
   125 C50      -3.9096    7.5000   -0.7416   C.2       1 RES1   0.0000
   126 C51      -4.4642    7.9011   -2.0774   C.3       1 RES1   0.0000
   127 C52      -4.6984    8.0294    0.4151   C.3       1 RES1   0.0000
   128 C53       1.4054    2.8626   -0.7500   C.2       1 RES1   0.0000
   129 O4        0.3638    2.4729   -0.1948   O.2       1 RES1   0.0000
   130 C54       2.6933    2.0664   -0.4353   C.3       1 RES1   0.0000
   131 O5        2.3149    1.1634    0.6041   O.3       1 RES1   0.0000
   132 C55       3.3231    0.3001    1.1388   C.3       1 RES1   0.0000
   133 C56       2.5708   -0.8769    1.8003   C.2       1 RES1   0.0000
   134 O6        1.3313   -0.7638    1.8743   O.2       1 RES1   0.0000
   135 N4        3.1962   -1.8909    2.4068   N.am      1 RES1   0.0000
   136 C57       4.5280   -2.3984    2.0937   C.3       1 RES1   0.0000
   137 C58       4.4244   -3.8161    1.5066   C.3       1 RES1   0.0000
   138 C59       5.7080   -4.4723    0.9670   C.3       1 RES1   0.0000
   139 C60       5.7438   -4.4898   -0.5623   C.3       1 RES1   0.0000
   140 C61       6.6120   -5.5999   -1.1529   C.3       1 RES1   0.0000
   141 C62       6.7854   -5.4071   -2.6578   C.3       1 RES1   0.0000
   142 C63       2.5431   -2.4581    3.5998   C.3       1 RES1   0.0000
   143 C64       1.9488   -3.8712    3.5961   C.3       1 RES1   0.0000
   144 C65       0.6410   -4.1022    2.8332   C.3       1 RES1   0.0000
   145 C66      -0.4466   -3.2393    3.4538   C.3       1 RES1   0.0000
   146 C67       0.3266   -5.6055    2.9391   C.3       1 RES1   0.0000
   147 C68      -1.0111   -6.1002    2.3791   C.3       1 RES1   0.0000
   148 C69      -1.1969   -5.8910    0.9109   C.2       1 RES1   0.0000
   149 C70      -1.4176   -6.8035   -0.0310   C.2       1 RES1   0.0000
   150 C71      -1.7238   -6.4067   -1.4577   C.3       1 RES1   0.0000
   151 C72      -1.4223   -8.2791    0.1972   C.3       1 RES1   0.0000
   152 H69       6.3380    7.6068   -1.2223   H         1 RES1   0.0000
   153 H70       6.7425    7.5990   -2.9392   H         1 RES1   0.0000
   154 H71       5.4811    8.6765   -2.3328   H         1 RES1   0.0000
   155 H72       5.3489    5.6305   -2.3471   H         1 RES1   0.0000
   156 H73       4.1008    6.7234   -1.7097   H         1 RES1   0.0000
   157 H74       3.6128    7.6175   -3.8726   H         1 RES1   0.0000
   158 H75       5.0740    6.9422   -4.5741   H         1 RES1   0.0000
   159 H76       3.1079    5.8388   -5.3979   H         1 RES1   0.0000
   160 H77       4.1437    4.6986   -4.5916   H         1 RES1   0.0000
   161 H78       1.7018    5.9912   -3.3733   H         1 RES1   0.0000
   162 H79       1.6482    4.4607   -4.2412   H         1 RES1   0.0000
   163 H80       3.1249    3.3841   -2.6322   H         1 RES1   0.0000
   164 H81       3.2864    4.8661   -1.6988   H         1 RES1   0.0000
   165 H82      -0.1021    4.8506   -2.6463   H         1 RES1   0.0000
   166 H83      -0.5327    4.3207   -1.0209   H         1 RES1   0.0000
   167 H84       1.5300    6.5232   -1.4531   H         1 RES1   0.0000
   168 H85      -0.1651    6.8921   -1.5780   H         1 RES1   0.0000
   169 H86       0.4986    5.4112    0.8920   H         1 RES1   0.0000
   170 H87       1.7408    8.1681    0.4748   H         1 RES1   0.0000
   171 H88       1.6958    7.2695    1.9866   H         1 RES1   0.0000
   172 H89       2.6296    6.6512    0.6377   H         1 RES1   0.0000
   173 H90      -0.7281    7.3768    1.8836   H         1 RES1   0.0000
   174 H91      -0.8587    8.0704    0.2845   H         1 RES1   0.0000
   175 H92      -1.8549    5.2549    0.5091   H         1 RES1   0.0000
   176 H93      -2.7485    6.4482    1.4369   H         1 RES1   0.0000
   177 H94      -2.3497    6.4437   -1.5877   H         1 RES1   0.0000
   178 H95      -3.8449    7.5412   -2.8958   H         1 RES1   0.0000
   179 H96      -5.4761    7.5182   -2.2070   H         1 RES1   0.0000
   180 H97      -4.5216    8.9863   -2.1407   H         1 RES1   0.0000
   181 H98      -4.3286    7.6829    1.3743   H         1 RES1   0.0000
   182 H99      -4.6662    9.1169    0.4118   H         1 RES1   0.0000
   183 H100     -5.7458    7.7469    0.3129   H         1 RES1   0.0000
   184 H101      3.0238    1.5118   -1.3258   H         1 RES1   0.0000
   185 H102      3.4873    2.7463   -0.1029   H         1 RES1   0.0000
   186 H103      4.0185   -0.0111    0.3616   H         1 RES1   0.0000
   187 H104      3.8751    0.8139    1.9412   H         1 RES1   0.0000
   188 H105      5.0092   -1.7319    1.3877   H         1 RES1   0.0000
   189 H106      5.1346   -2.4220    2.9996   H         1 RES1   0.0000
   190 H107      4.0691   -4.4773    2.2850   H         1 RES1   0.0000
   191 H108      3.6683   -3.7887    0.7171   H         1 RES1   0.0000
   192 H109      6.5935   -3.9891    1.3831   H         1 RES1   0.0000
   193 H110      5.7367   -5.5096    1.3058   H         1 RES1   0.0000
   194 H111      4.7228   -4.5986   -0.9288   H         1 RES1   0.0000
   195 H112      6.1146   -3.5521   -0.9494   H         1 RES1   0.0000
   196 H113      7.5932   -5.5906   -0.6748   H         1 RES1   0.0000
   197 H114      6.1517   -6.5708   -0.9560   H         1 RES1   0.0000
   198 H115      7.2816   -4.4606   -2.8664   H         1 RES1   0.0000
   199 H116      7.3987   -6.2013   -3.0703   H         1 RES1   0.0000
   200 H117      5.8237   -5.4205   -3.1737   H         1 RES1   0.0000
   201 H118      3.3131   -2.4501    4.3766   H         1 RES1   0.0000
   202 H119      1.7610   -1.7515    3.8822   H         1 RES1   0.0000
   203 H120      2.6753   -4.6071    3.2690   H         1 RES1   0.0000
   204 H121      1.7548   -4.0993    4.6480   H         1 RES1   0.0000
   205 H122      0.7685   -3.8190    1.7795   H         1 RES1   0.0000
   206 H123     -0.4396   -3.3684    4.5335   H         1 RES1   0.0000
   207 H124     -0.2874   -2.1892    3.2203   H         1 RES1   0.0000
   208 H125     -1.4142   -3.5318    3.0684   H         1 RES1   0.0000
   209 H126      1.1190   -6.1629    2.4431   H         1 RES1   0.0000
   210 H127      0.3473   -5.8762    3.9959   H         1 RES1   0.0000
   211 H128     -1.1012   -7.1559    2.6286   H         1 RES1   0.0000
   212 H129     -1.8225   -5.5820    2.8883   H         1 RES1   0.0000
   213 H130     -1.2001   -4.8422    0.6340   H         1 RES1   0.0000
   214 H131     -2.7019   -5.9264   -1.5198   H         1 RES1   0.0000
   215 H132     -0.9806   -5.7227   -1.8669   H         1 RES1   0.0000
   216 H133     -1.7531   -7.2879   -2.0913   H         1 RES1   0.0000
   217 H134     -1.1894   -8.5426    1.2216   H         1 RES1   0.0000
   218 H135     -2.3992   -8.6874   -0.0522   H         1 RES1   0.0000
   219 H136     -0.6932   -8.7513   -0.4589   H         1 RES1   0.0000
   220 C73       3.1780   -7.8618    2.0327   C.3       1 RES1   0.0000
   221 C74       3.3938   -7.7441    0.5270   C.3       1 RES1   0.0000
   222 C75       2.5541   -6.6278   -0.1028   C.3       1 RES1   0.0000
   223 C76       2.8982   -6.4316   -1.5833   C.3       1 RES1   0.0000
   224 C77       1.9889   -5.3954   -2.2746   C.3       1 RES1   0.0000
   225 C78       2.6725   -4.1447   -2.8608   C.3       1 RES1   0.0000
   226 N5        2.8003   -2.8776   -2.1041   N.am      1 RES1   0.0000
   227 C79       4.0185   -2.1224   -2.5326   C.3       1 RES1   0.0000
   228 C80       4.7789   -1.3202   -1.4624   C.3       1 RES1   0.0000
   229 C81       6.3354   -1.2593   -1.5646   C.3       1 RES1   0.0000
   230 C82       7.0498   -1.3864   -0.2092   C.3       1 RES1   0.0000
   231 C83       6.8535    0.0286   -2.2246   C.3       1 RES1   0.0000
   232 C84       6.7957    1.2641   -1.3130   C.3       1 RES1   0.0000
   233 C85       7.5362    2.4366   -1.8877   C.2       1 RES1   0.0000
   234 C86       7.1334    3.1530   -2.9268   C.2       1 RES1   0.0000
   235 C87       5.8610    2.8622   -3.6581   C.3       1 RES1   0.0000
   236 C88       7.8844    4.3630   -3.4016   C.3       1 RES1   0.0000
   237 C89       1.7949   -2.2525   -1.4812   C.2       1 RES1   0.0000
   238 O7        1.8978   -1.1227   -0.9650   O.2       1 RES1   0.0000
   239 C90       0.4261   -2.9468   -1.3530   C.3       1 RES1   0.0000
   240 O8       -0.5979   -2.0017   -1.0196   O.3       1 RES1   0.0000
   241 C91      -1.8870   -2.6136   -0.8346   C.3       1 RES1   0.0000
   242 C92      -2.4408   -2.1648    0.5343   C.2       1 RES1   0.0000
   243 O9       -1.7055   -1.4007    1.1876   O.2       1 RES1   0.0000
   244 N6       -3.6061   -2.6228    0.9997   N.am      1 RES1   0.0000
   245 C93      -3.9279   -2.2866    2.4023   C.3       1 RES1   0.0000
   246 C94      -4.8621   -3.1882    3.2216   C.3       1 RES1   0.0000
   247 C95      -4.3722   -4.5830    3.6353   C.3       1 RES1   0.0000
   248 C96      -3.5528   -4.5910    4.9319   C.3       1 RES1   0.0000
   249 C97      -3.2710   -6.0127    5.4385   C.3       1 RES1   0.0000
   250 C98      -2.2196   -6.0253    6.5474   C.3       1 RES1   0.0000
   251 C99      -4.5791   -3.3786    0.2270   C.3       1 RES1   0.0000
   252 C100     -5.4359   -2.6025   -0.7888   C.3       1 RES1   0.0000
   253 C101     -6.5350   -1.6068   -0.3490   C.3       1 RES1   0.0000
   254 C102     -7.4148   -2.1088    0.7892   C.3       1 RES1   0.0000
   255 C103     -5.9811   -0.2187   -0.0055   C.3       1 RES1   0.0000
   256 C104     -6.9109    0.9619   -0.3462   C.3       1 RES1   0.0000
   257 C105     -6.5907    2.1611    0.5035   C.2       1 RES1   0.0000
   258 C106     -5.8473    3.2287    0.2302   C.2       1 RES1   0.0000
   259 C107     -5.1355    3.4828   -1.0682   C.3       1 RES1   0.0000
   260 C108     -5.6625    4.3223    1.2441   C.3       1 RES1   0.0000
   261 H137      3.7999   -8.6550    2.4372   H         1 RES1   0.0000
   262 H138      2.1395   -8.0994    2.2568   H         1 RES1   0.0000
   263 H139      3.4460   -6.9317    2.5336   H         1 RES1   0.0000
   264 H140      3.1257   -8.6914    0.0546   H         1 RES1   0.0000
   265 H141      4.4535   -7.5594    0.3289   H         1 RES1   0.0000
   266 H142      2.7211   -5.6939    0.4433   H         1 RES1   0.0000
   267 H143      1.4942   -6.8833   -0.0032   H         1 RES1   0.0000
   268 H144      2.7984   -7.3932   -2.0871   H         1 RES1   0.0000
   269 H145      3.9448   -6.1544   -1.6689   H         1 RES1   0.0000
   270 H146      1.1983   -5.1617   -1.5744   H         1 RES1   0.0000
   271 H147      1.5266   -5.8848   -3.1304   H         1 RES1   0.0000
   272 H148      2.1899   -3.8977   -3.8134   H         1 RES1   0.0000
   273 H149      3.6924   -4.4508   -3.0957   H         1 RES1   0.0000
   274 H150      3.7043   -1.4484   -3.3315   H         1 RES1   0.0000
   275 H151      4.6996   -2.8521   -2.9641   H         1 RES1   0.0000
   276 H152      4.5190   -1.7799   -0.5161   H         1 RES1   0.0000
   277 H153      4.4082   -0.2955   -1.4965   H         1 RES1   0.0000
   278 H154      6.6850   -2.0855   -2.1911   H         1 RES1   0.0000
   279 H155      6.6741   -0.6931    0.5379   H         1 RES1   0.0000
   280 H156      8.1002   -1.1584   -0.3605   H         1 RES1   0.0000
   281 H157      7.0094   -2.3813    0.2076   H         1 RES1   0.0000
   282 H158      6.3131    0.2216   -3.1501   H         1 RES1   0.0000
   283 H159      7.8947   -0.1372   -2.5043   H         1 RES1   0.0000
   284 H160      7.2540    1.0446   -0.3536   H         1 RES1   0.0000
   285 H161      5.7529    1.5420   -1.1217   H         1 RES1   0.0000
   286 H162      8.4648    2.6974   -1.4049   H         1 RES1   0.0000
   287 H163      5.3131    2.0208   -3.2440   H         1 RES1   0.0000
   288 H164      6.0708    2.6546   -4.7049   H         1 RES1   0.0000
   289 H165      5.2435    3.7520   -3.6049   H         1 RES1   0.0000
   290 H166      8.8903    4.1064   -3.7221   H         1 RES1   0.0000
   291 H167      7.9856    5.0849   -2.5940   H         1 RES1   0.0000
   292 H168      7.3658    4.8365   -4.2299   H         1 RES1   0.0000
   293 H169      0.4952   -3.6947   -0.5510   H         1 RES1   0.0000
   294 H170      0.1817   -3.4183   -2.3104   H         1 RES1   0.0000
   295 H171     -1.8041   -3.7044   -0.8360   H         1 RES1   0.0000
   296 H172     -2.5399   -2.3142   -1.6601   H         1 RES1   0.0000
   297 H173     -4.3698   -1.2864    2.4183   H         1 RES1   0.0000
   298 H174     -2.9692   -2.2241    2.9145   H         1 RES1   0.0000
   299 H175     -5.8313   -3.2991    2.7414   H         1 RES1   0.0000
   300 H176     -5.0472   -2.6188    4.1364   H         1 RES1   0.0000
   301 H177     -3.8017   -5.0533    2.8317   H         1 RES1   0.0000
   302 H178     -5.2532   -5.2063    3.8015   H         1 RES1   0.0000
   303 H179     -4.0977   -4.0492    5.7094   H         1 RES1   0.0000
   304 H180     -2.6008   -4.0778    4.7909   H         1 RES1   0.0000
   305 H181     -2.9276   -6.6443    4.6141   H         1 RES1   0.0000
   306 H182     -4.1965   -6.4477    5.8206   H         1 RES1   0.0000
   307 H183     -1.2765   -5.6120    6.1903   H         1 RES1   0.0000
   308 H184     -2.0400   -7.0433    6.8852   H         1 RES1   0.0000
   309 H185     -2.5524   -5.4386    7.4010   H         1 RES1   0.0000
   310 H186     -5.2369   -3.8679    0.9395   H         1 RES1   0.0000
   311 H187     -4.0651   -4.1661   -0.3324   H         1 RES1   0.0000
   312 H188     -5.9601   -3.3881   -1.3334   H         1 RES1   0.0000
   313 H189     -4.7773   -2.0857   -1.4929   H         1 RES1   0.0000
   314 H190     -7.1695   -1.4975   -1.2343   H         1 RES1   0.0000
   315 H191     -6.9009   -2.0332    1.7409   H         1 RES1   0.0000
   316 H192     -7.7225   -3.1373    0.6389   H         1 RES1   0.0000
   317 H193     -8.3086   -1.4977    0.8608   H         1 RES1   0.0000
   318 H194     -5.0433   -0.0764   -0.5433   H         1 RES1   0.0000
   319 H195     -5.7793   -0.1834    1.0673   H         1 RES1   0.0000
   320 H196     -7.9459    0.6876   -0.1416   H         1 RES1   0.0000
   321 H197     -6.8379    1.1910   -1.4091   H         1 RES1   0.0000
   322 H198     -7.0593    2.1323    1.4778   H         1 RES1   0.0000
   323 H199     -5.3276    2.6905   -1.7877   H         1 RES1   0.0000
   324 H200     -4.0602    3.5949   -0.9061   H         1 RES1   0.0000
   325 H201     -5.4750    4.4244   -1.4948   H         1 RES1   0.0000
   326 H202     -6.3190    4.1846    2.0985   H         1 RES1   0.0000
   327 H203     -5.8778    5.2898    0.7977   H         1 RES1   0.0000
   328 H204     -4.6307    4.3593    1.5960   H         1 RES1   0.0000
@<TRIPOS>BOND
     1     1    20    1
     2     1    22    1
     3     1    25    1
     4     1   129    1
     5     1   131    1
     6     1   134    1
     7     1   238    1
     8     1   240    1
     9     1   243    1
    10     2     3    1
    11     2    43    1
    12     2    44    1
    13     2    45    1
    14     3     4    1
    15     3    46    1
    16     3    47    1
    17     4     5    1
    18     4    48    1
    19     4    49    1
    20     5     6    1
    21     5    50    1
    22     5    51    1
    23     6     7    1
    24     6    52    1
    25     6    53    1
    26     7     8    1
    27     7    54    1
    28     7    55    1
    29     8     9    1
    30     8    19    1
    31     9    10    1
    32     9    56    1
    33     9    57    1
    34    10    11    1
    35    10    58    1
    36    10    59    1
    37    11    12    1
    38    11    13    1
    39    11    60    1
    40    12    61    1
    41    12    62    1
    42    12    63    1
    43    13    14    1
    44    13    64    1
    45    13    65    1
    46    14    15    1
    47    14    66    1
    48    14    67    1
    49    15    16    2
    50    15    68    1
    51    16    17    1
    52    16    18    1
    53    17    69    1
    54    17    70    1
    55    17    71    1
    56    18    72    1
    57    18    73    1
    58    18    74    1
    59    19    20    2
    60    19    21    1
    61    21    22    1
    62    21    75    1
    63    21    76    1
    64    22    23    1
    65    23    24    1
    66    23    77    1
    67    23    78    1
    68    24    25    2
    69    24    26    1
    70    26    27    1
    71    26    33    1
    72    27    28    1
    73    27    79    1
    74    27    80    1
    75    28    29    1
    76    28    81    1
    77    28    82    1
    78    29    30    1
    79    29    83    1
    80    29    84    1
    81    30    31    1
    82    30    85    1
    83    30    86    1
    84    31    32    1
    85    31    87    1
    86    31    88    1
    87    32    89    1
    88    32    90    1
    89    32    91    1
    90    33    34    1
    91    33    92    1
    92    33    93    1
    93    34    35    1
    94    34    94    1
    95    34    95    1
    96    35    36    1
    97    35    37    1
    98    35    96    1
    99    36    97    1
   100    36    98    1
   101    36    99    1
   102    37    38    1
   103    37   100    1
   104    37   101    1
   105    38    39    1
   106    38   102    1
   107    38   103    1
   108    39    40    2
   109    39   104    1
   110    40    41    1
   111    40    42    1
   112    41   105    1
   113    41   106    1
   114    41   107    1
   115    42   108    1
   116    42   109    1
   117    42   110    1
   118   111   112    1
   119   111   152    1
   120   111   153    1
   121   111   154    1
   122   112   113    1
   123   112   155    1
   124   112   156    1
   125   113   114    1
   126   113   157    1
   127   113   158    1
   128   114   115    1
   129   114   159    1
   130   114   160    1
   131   115   116    1
   132   115   161    1
   133   115   162    1
   134   116   117    1
   135   116   163    1
   136   116   164    1
   137   117   118    1
   138   117   128    1
   139   118   119    1
   140   118   165    1
   141   118   166    1
   142   119   120    1
   143   119   167    1
   144   119   168    1
   145   120   121    1
   146   120   122    1
   147   120   169    1
   148   121   170    1
   149   121   171    1
   150   121   172    1
   151   122   123    1
   152   122   173    1
   153   122   174    1
   154   123   124    1
   155   123   175    1
   156   123   176    1
   157   124   125    2
   158   124   177    1
   159   125   126    1
   160   125   127    1
   161   126   178    1
   162   126   179    1
   163   126   180    1
   164   127   181    1
   165   127   182    1
   166   127   183    1
   167   128   129    2
   168   128   130    1
   169   130   131    1
   170   130   184    1
   171   130   185    1
   172   131   132    1
   173   132   133    1
   174   132   186    1
   175   132   187    1
   176   133   134    2
   177   133   135    1
   178   135   136    1
   179   135   142    1
   180   136   137    1
   181   136   188    1
   182   136   189    1
   183   137   138    1
   184   137   190    1
   185   137   191    1
   186   138   139    1
   187   138   192    1
   188   138   193    1
   189   139   140    1
   190   139   194    1
   191   139   195    1
   192   140   141    1
   193   140   196    1
   194   140   197    1
   195   141   198    1
   196   141   199    1
   197   141   200    1
   198   142   143    1
   199   142   201    1
   200   142   202    1
   201   143   144    1
   202   143   203    1
   203   143   204    1
   204   144   145    1
   205   144   146    1
   206   144   205    1
   207   145   206    1
   208   145   207    1
   209   145   208    1
   210   146   147    1
   211   146   209    1
   212   146   210    1
   213   147   148    1
   214   147   211    1
   215   147   212    1
   216   148   149    2
   217   148   213    1
   218   149   150    1
   219   149   151    1
   220   150   214    1
   221   150   215    1
   222   150   216    1
   223   151   217    1
   224   151   218    1
   225   151   219    1
   226   220   221    1
   227   220   261    1
   228   220   262    1
   229   220   263    1
   230   221   222    1
   231   221   264    1
   232   221   265    1
   233   222   223    1
   234   222   266    1
   235   222   267    1
   236   223   224    1
   237   223   268    1
   238   223   269    1
   239   224   225    1
   240   224   270    1
   241   224   271    1
   242   225   226    1
   243   225   272    1
   244   225   273    1
   245   226   227    1
   246   226   237    1
   247   227   228    1
   248   227   274    1
   249   227   275    1
   250   228   229    1
   251   228   276    1
   252   228   277    1
   253   229   230    1
   254   229   231    1
   255   229   278    1
   256   230   279    1
   257   230   280    1
   258   230   281    1
   259   231   232    1
   260   231   282    1
   261   231   283    1
   262   232   233    1
   263   232   284    1
   264   232   285    1
   265   233   234    2
   266   233   286    1
   267   234   235    1
   268   234   236    1
   269   235   287    1
   270   235   288    1
   271   235   289    1
   272   236   290    1
   273   236   291    1
   274   236   292    1
   275   237   238    2
   276   237   239    1
   277   239   240    1
   278   239   293    1
   279   239   294    1
   280   240   241    1
   281   241   242    1
   282   241   295    1
   283   241   296    1
   284   242   243    2
   285   242   244    1
   286   244   245    1
   287   244   251    1
   288   245   246    1
   289   245   297    1
   290   245   298    1
   291   246   247    1
   292   246   299    1
   293   246   300    1
   294   247   248    1
   295   247   301    1
   296   247   302    1
   297   248   249    1
   298   248   303    1
   299   248   304    1
   300   249   250    1
   301   249   305    1
   302   249   306    1
   303   250   307    1
   304   250   308    1
   305   250   309    1
   306   251   252    1
   307   251   310    1
   308   251   311    1
   309   252   253    1
   310   252   312    1
   311   252   313    1
   312   253   254    1
   313   253   255    1
   314   253   314    1
   315   254   315    1
   316   254   316    1
   317   254   317    1
   318   255   256    1
   319   255   318    1
   320   255   319    1
   321   256   257    1
   322   256   320    1
   323   256   321    1
   324   257   258    2
   325   257   322    1
   326   258   259    1
   327   258   260    1
   328   259   323    1
   329   259   324    1
   330   259   325    1
   331   260   326    1
   332   260   327    1
   333   260   328    1
@<TRIPOS>SUBSTRUCTURE
     1 RES1      328 GROUP             0 ****  ****    0  
