@<TRIPOS>MOLECULE
cn9_YICLED_0_nunpairedes_0_charge_3 Charge: 3 Unpaired_Electrons: 5 XTB_Unpaired_Electrons: 0 XTB_Charge: 3
    92    97     1     0     0
SMALL
NoCharges
****
Generated from Architector

@<TRIPOS>ATOM
     1 Sm1       0.3826   -0.0899    1.2993   Sm        1 RES1   0.0000
     2 C1        0.5907   -0.7555    4.1192   C.3       1 RES1   0.0000
     3 C2       -0.3612    0.2993    4.7120   C.3       1 RES1   0.0000
     4 C3       -0.5122    1.5365    3.8030   C.3       1 RES1   0.0000
     5 C4       -1.7349    1.4528    2.8565   C.3       1 RES1   0.0000
     6 C5       -1.9413    2.7482    2.0457   C.3       1 RES1   0.0000
     7 C6       -0.7505    3.1842    1.1822   C.3       1 RES1   0.0000
     8 O1       -0.1608    1.9897    0.5686   O.3       1 RES1   0.0000
     9 P1        1.0904    1.9438   -0.4849   P.3       1 RES1   0.0000
    10 O2        1.3631    0.4802   -0.5654   O.2       1 RES1   0.0000
    11 O3        2.2054    2.6655    0.3638   O.3       1 RES1   0.0000
    12 O4        0.6885    2.7161   -1.7492   O.3       1 RES1   0.0000
    13 C7        0.6498    2.0852   -3.0719   C.3       1 RES1   0.0000
    14 C8        1.6861    2.7299   -3.9773   C.3       1 RES1   0.0000
    15 C9        3.1028    2.7818   -3.3972   C.3       1 RES1   0.0000
    16 C10       4.0060    3.6800   -4.2562   C.3       1 RES1   0.0000
    17 C11       3.5591    5.1441   -4.3244   C.3       1 RES1   0.0000
    18 C12       3.5756    5.8579   -2.9782   C.3       1 RES1   0.0000
    19 H1        0.8520   -1.4713    4.9027   H         1 RES1   0.0000
    20 H2        1.5548   -0.2799    3.8242   H         1 RES1   0.0000
    21 H3        0.0916   -1.3569    3.3100   H         1 RES1   0.0000
    22 H4        0.0375    0.6170    5.6794   H         1 RES1   0.0000
    23 H5       -1.3421   -0.1492    4.9080   H         1 RES1   0.0000
    24 H6        0.4378    1.6892    3.2247   H         1 RES1   0.0000
    25 H7       -0.6511    2.4168    4.4400   H         1 RES1   0.0000
    26 H8       -2.6259    1.3442    3.4814   H         1 RES1   0.0000
    27 H9       -1.6924    0.5382    2.1838   H         1 RES1   0.0000
    28 H10      -2.1441    3.5735    2.7323   H         1 RES1   0.0000
    29 H11      -2.8215    2.6210    1.4144   H         1 RES1   0.0000
    30 H12       0.0310    3.6786    1.7639   H         1 RES1   0.0000
    31 H13      -1.0878    3.8833    0.4132   H         1 RES1   0.0000
    32 H14       2.9522    3.0402   -0.1240   H         1 RES1   0.0000
    33 H15      -0.3618    2.2684   -3.4462   H         1 RES1   0.0000
    34 H16       0.8165    1.0094   -2.9591   H         1 RES1   0.0000
    35 H17       1.3575    3.7479   -4.1932   H         1 RES1   0.0000
    36 H18       1.7052    2.1609   -4.9087   H         1 RES1   0.0000
    37 H19       3.5392    1.7784   -3.3428   H         1 RES1   0.0000
    38 H20       3.0593    3.1825   -2.3760   H         1 RES1   0.0000
    39 H21       4.0554    3.2712   -5.2687   H         1 RES1   0.0000
    40 H22       5.0171    3.6484   -3.8487   H         1 RES1   0.0000
    41 H23       2.5678    5.2245   -4.7713   H         1 RES1   0.0000
    42 H24       4.2410    5.6599   -4.9981   H         1 RES1   0.0000
    43 H25       2.8613    5.4241   -2.2791   H         1 RES1   0.0000
    44 H26       3.3151    6.9024   -3.1136   H         1 RES1   0.0000
    45 H27       4.5705    5.8145   -2.5462   H         1 RES1   0.0000
    46 C13      -3.8356   -5.2549    2.8767   C.3       1 RES1   0.0000
    47 C14      -2.8043   -4.2745    2.3280   C.3       1 RES1   0.0000
    48 C15      -3.0598   -2.8362    2.7862   C.3       1 RES1   0.0000
    49 C16      -4.4086   -2.2645    2.3293   C.3       1 RES1   0.0000
    50 C17      -4.7710   -2.4054    0.8431   C.3       1 RES1   0.0000
    51 C18      -3.9810   -1.5256   -0.1206   C.3       1 RES1   0.0000
    52 O5       -2.8194   -2.1911   -0.7264   O.3       1 RES1   0.0000
    53 P2       -1.4124   -1.5842   -0.5370   P.3       1 RES1   0.0000
    54 O6       -0.8865   -1.6116    0.8635   O.2       1 RES1   0.0000
    55 O7       -1.5512    0.0261   -0.8234   O.3       1 RES1   0.0000
    56 O8       -0.3110   -2.1190   -1.4776   O.3       1 RES1   0.0000
    57 C19      -0.4734   -2.4454   -2.8962   C.3       1 RES1   0.0000
    58 C20      -1.1807   -3.7712   -3.0894   C.3       1 RES1   0.0000
    59 C21      -0.3598   -4.9351   -2.5451   C.3       1 RES1   0.0000
    60 C22      -1.0685   -6.2679   -2.7778   C.3       1 RES1   0.0000
    61 C23      -0.3612   -7.4194   -2.0674   C.3       1 RES1   0.0000
    62 C24      -0.4696   -7.3599   -0.5467   C.3       1 RES1   0.0000
    63 H28      -3.5722   -6.2738    2.6068   H         1 RES1   0.0000
    64 H29      -4.8264   -5.0496    2.4816   H         1 RES1   0.0000
    65 H30      -3.8729   -5.1901    3.9611   H         1 RES1   0.0000
    66 H31      -2.7887   -4.3130    1.2367   H         1 RES1   0.0000
    67 H32      -1.8104   -4.5678    2.6713   H         1 RES1   0.0000
    68 H33      -2.2439   -2.1893    2.4351   H         1 RES1   0.0000
    69 H34      -3.0396   -2.8131    3.8784   H         1 RES1   0.0000
    70 H35      -4.4597   -1.2057    2.6096   H         1 RES1   0.0000
    71 H36      -5.1970   -2.7748    2.8813   H         1 RES1   0.0000
    72 H37      -5.8149   -2.0905    0.7417   H         1 RES1   0.0000
    73 H38      -4.7082   -3.4470    0.5234   H         1 RES1   0.0000
    74 H39      -3.6325   -0.6206    0.3880   H         1 RES1   0.0000
    75 H40      -4.6164   -1.2482   -0.9639   H         1 RES1   0.0000
    76 H41      -2.0926    0.2757   -1.5866   H         1 RES1   0.0000
    77 H42       0.5495   -2.4833   -3.2777   H         1 RES1   0.0000
    78 H43      -1.0081   -1.6237   -3.3698   H         1 RES1   0.0000
    79 H44      -1.3613   -3.9179   -4.1557   H         1 RES1   0.0000
    80 H45      -2.1453   -3.7576   -2.5811   H         1 RES1   0.0000
    81 H46      -0.2063   -4.7850   -1.4726   H         1 RES1   0.0000
    82 H47       0.6118   -4.9591   -3.0404   H         1 RES1   0.0000
    83 H48      -1.1115   -6.4747   -3.8489   H         1 RES1   0.0000
    84 H49      -2.0937   -6.1946   -2.4145   H         1 RES1   0.0000
    85 H50       0.6900   -7.4255   -2.3637   H         1 RES1   0.0000
    86 H51      -0.7929   -8.3622   -2.4067   H         1 RES1   0.0000
    87 H52       0.0951   -6.5247   -0.1330   H         1 RES1   0.0000
    88 H53      -0.0722   -8.2742   -0.1142   H         1 RES1   0.0000
    89 H54      -1.5069   -7.2565   -0.2312   H         1 RES1   0.0000
    90 O9        2.4956   -1.3016    1.4481   O.3       1 RES1   0.0000
    91 H55       2.6524   -2.2186    1.7403   H         1 RES1   0.0000
    92 H56       3.2498   -1.1292    0.8530   H         1 RES1   0.0000
@<TRIPOS>BOND
     1     1     8    1
     2     1    10    1
     3     1    11    1
     4     1    12    1
     5     1    52    1
     6     1    54    1
     7     1    55    1
     8     1    56    1
     9     1    90    1
    10     2     3    1
    11     2    19    1
    12     2    20    1
    13     2    21    1
    14     3     4    1
    15     3    22    1
    16     3    23    1
    17     4     5    1
    18     4    24    1
    19     4    25    1
    20     5     6    1
    21     5    26    1
    22     5    27    1
    23     6     7    1
    24     6    28    1
    25     6    29    1
    26     7     8    1
    27     7    30    1
    28     7    31    1
    29     8     9    1
    30     9    10    2
    31     9    11    1
    32     9    12    1
    33    11    32    1
    34    12    13    1
    35    13    14    1
    36    13    33    1
    37    13    34    1
    38    14    15    1
    39    14    35    1
    40    14    36    1
    41    15    16    1
    42    15    37    1
    43    15    38    1
    44    16    17    1
    45    16    39    1
    46    16    40    1
    47    17    18    1
    48    17    41    1
    49    17    42    1
    50    18    43    1
    51    18    44    1
    52    18    45    1
    53    46    47    1
    54    46    63    1
    55    46    64    1
    56    46    65    1
    57    47    48    1
    58    47    66    1
    59    47    67    1
    60    48    49    1
    61    48    68    1
    62    48    69    1
    63    49    50    1
    64    49    70    1
    65    49    71    1
    66    50    51    1
    67    50    72    1
    68    50    73    1
    69    51    52    1
    70    51    74    1
    71    51    75    1
    72    52    53    1
    73    53    54    2
    74    53    55    1
    75    53    56    1
    76    55    76    1
    77    56    57    1
    78    57    58    1
    79    57    77    1
    80    57    78    1
    81    58    59    1
    82    58    79    1
    83    58    80    1
    84    59    60    1
    85    59    81    1
    86    59    82    1
    87    60    61    1
    88    60    83    1
    89    60    84    1
    90    61    62    1
    91    61    85    1
    92    61    86    1
    93    62    87    1
    94    62    88    1
    95    62    89    1
    96    90    91    1
    97    90    92    1
@<TRIPOS>SUBSTRUCTURE
     1 RES1       92 GROUP             0 ****  ****    0  
