@<TRIPOS>MOLECULE
am_c3_9H2O_c0_0_nunpairedes_0_charge_3 Charge: 3 Unpaired_Electrons: 5 XTB_Unpaired_Electrons: 0 XTB_Charge: 3
   342   347     1     0     0
SMALL
NoCharges
****
Generated from Architector

@<TRIPOS>ATOM
     1 Sm1      -0.2654    0.1146    0.0158   Sm        1 RES1   0.0000
     2 C1       -5.4237    6.0382    2.1192   C.3       1 RES1   0.0000
     3 C2       -4.0318    6.5973    1.8411   C.3       1 RES1   0.0000
     4 C3       -3.4407    7.4341    2.9868   C.3       1 RES1   0.0000
     5 C4       -2.2907    6.8265    3.8068   C.3       1 RES1   0.0000
     6 C5       -2.6931    5.8081    4.8918   C.3       1 RES1   0.0000
     7 C6       -2.3291    4.3252    4.6868   C.3       1 RES1   0.0000
     8 C7       -0.8428    3.9136    4.6976   C.3       1 RES1   0.0000
     9 C8       -0.7082    2.3747    4.7666   C.3       1 RES1   0.0000
    10 N1        0.6184    1.8724    4.3936   N.am      1 RES1   0.0000
    11 C9        1.6891    1.9266    5.3950   C.3       1 RES1   0.0000
    12 C10       1.2273    1.8947    6.8573   C.3       1 RES1   0.0000
    13 C11       0.5405    0.5878    7.2822   C.3       1 RES1   0.0000
    14 C12       1.4999   -0.5717    7.5709   C.3       1 RES1   0.0000
    15 C13       1.9751   -0.6853    9.0212   C.3       1 RES1   0.0000
    16 C14       2.9033    0.4359    9.4997   C.3       1 RES1   0.0000
    17 C15       2.1800    1.5831   10.2060   C.3       1 RES1   0.0000
    18 C16       3.1637    2.6431   10.6872   C.3       1 RES1   0.0000
    19 C17       0.8392    1.3610    3.1812   C.2       1 RES1   0.0000
    20 O1       -0.0658    1.0648    2.3756   O.2       1 RES1   0.0000
    21 C18       2.2752    1.1339    2.6885   C.3       1 RES1   0.0000
    22 N2        2.2947    1.2947    1.2278   N.4       1 RES1   0.0000
    23 C19       3.3706    0.4957    0.6157   C.3       1 RES1   0.0000
    24 C20       2.9164   -0.9637    0.6921   C.2       1 RES1   0.0000
    25 O2        1.7409   -1.2220    0.3805   O.2       1 RES1   0.0000
    26 N3        3.7420   -1.8863    1.1928   N.am      1 RES1   0.0000
    27 C21       3.1817   -3.0241    1.9131   C.3       1 RES1   0.0000
    28 C22       2.3817   -2.6182    3.1533   C.3       1 RES1   0.0000
    29 C23       3.1948   -1.8564    4.2070   C.3       1 RES1   0.0000
    30 C24       4.0526   -2.7167    5.1370   C.3       1 RES1   0.0000
    31 C25       4.9200   -1.8268    6.0297   C.3       1 RES1   0.0000
    32 C26       5.7658   -2.6277    7.0155   C.3       1 RES1   0.0000
    33 C27       6.5792   -1.7314    7.9516   C.3       1 RES1   0.0000
    34 C28       7.6716   -0.9472    7.2299   C.3       1 RES1   0.0000
    35 C29       5.1854   -1.8483    0.9830   C.3       1 RES1   0.0000
    36 C30       5.8232   -3.1891    0.5680   C.3       1 RES1   0.0000
    37 C31       5.4240   -3.7896   -0.7854   C.3       1 RES1   0.0000
    38 C32       4.0393   -4.4335   -0.8538   C.3       1 RES1   0.0000
    39 C33       3.8260   -5.2806   -2.1158   C.3       1 RES1   0.0000
    40 C34       4.4567   -6.6754   -2.0862   C.3       1 RES1   0.0000
    41 C35       3.8716   -7.6317   -1.0460   C.3       1 RES1   0.0000
    42 C36       2.3875   -7.9205   -1.2490   C.3       1 RES1   0.0000
    43 C37       2.3836    2.7159    0.8865   C.3       1 RES1   0.0000
    44 C38       1.4854    3.0657   -0.2978   C.2       1 RES1   0.0000
    45 O3        0.6837    2.2091   -0.7181   O.2       1 RES1   0.0000
    46 N4        1.6037    4.2775   -0.8379   N.am      1 RES1   0.0000
    47 C39       0.7939    4.5795   -2.0152   C.3       1 RES1   0.0000
    48 C40      -0.6514    4.8777   -1.6403   C.3       1 RES1   0.0000
    49 C41      -1.5411    5.2604   -2.8229   C.3       1 RES1   0.0000
    50 C42      -3.0259    5.0158   -2.4941   C.3       1 RES1   0.0000
    51 C43      -3.8773    4.5773   -3.6926   C.3       1 RES1   0.0000
    52 C44      -3.9241    3.0570   -3.8762   C.3       1 RES1   0.0000
    53 C45      -2.5888    2.4122   -4.2501   C.3       1 RES1   0.0000
    54 C46      -2.6578    0.8812   -4.2020   C.3       1 RES1   0.0000
    55 C47       2.3264    5.3898   -0.2203   C.3       1 RES1   0.0000
    56 C48       3.1868    6.2299   -1.1726   C.3       1 RES1   0.0000
    57 C49       4.1666    5.3999   -2.0095   C.3       1 RES1   0.0000
    58 C50       4.2313    5.9196   -3.4443   C.3       1 RES1   0.0000
    59 C51       5.0030    5.0235   -4.4163   C.3       1 RES1   0.0000
    60 C52       4.6770    3.5273   -4.3408   C.3       1 RES1   0.0000
    61 C53       3.1896    3.1316   -4.3659   C.3       1 RES1   0.0000
    62 C54       2.8727    2.1789   -3.2127   C.3       1 RES1   0.0000
    63 H1       -5.7713    5.4514    1.2675   H         1 RES1   0.0000
    64 H2       -6.1298    6.8493    2.2750   H         1 RES1   0.0000
    65 H3       -5.4258    5.3990    3.0004   H         1 RES1   0.0000
    66 H4       -4.1006    7.2179    0.9462   H         1 RES1   0.0000
    67 H5       -3.3710    5.7743    1.6028   H         1 RES1   0.0000
    68 H6       -4.2385    7.7052    3.6726   H         1 RES1   0.0000
    69 H7       -3.0689    8.3665    2.5602   H         1 RES1   0.0000
    70 H8       -1.7998    7.6634    4.3045   H         1 RES1   0.0000
    71 H9       -1.5479    6.4077    3.1320   H         1 RES1   0.0000
    72 H10      -3.7796    5.8380    4.9764   H         1 RES1   0.0000
    73 H11      -2.3100    6.1416    5.8564   H         1 RES1   0.0000
    74 H12      -2.7818    4.0105    3.7524   H         1 RES1   0.0000
    75 H13      -2.8375    3.7767    5.4843   H         1 RES1   0.0000
    76 H14      -0.3616    4.3597    5.5683   H         1 RES1   0.0000
    77 H15      -0.3317    4.2787    3.8039   H         1 RES1   0.0000
    78 H16      -1.4280    1.9011    4.1019   H         1 RES1   0.0000
    79 H17      -0.9511    2.0435    5.7734   H         1 RES1   0.0000
    80 H18       2.2962    2.8296    5.2496   H         1 RES1   0.0000
    81 H19       2.3261    1.0538    5.2325   H         1 RES1   0.0000
    82 H20       0.5917    2.7518    7.0871   H         1 RES1   0.0000
    83 H21       2.1325    2.0208    7.4482   H         1 RES1   0.0000
    84 H22      -0.1591    0.2740    6.5050   H         1 RES1   0.0000
    85 H23      -0.0451    0.7681    8.1833   H         1 RES1   0.0000
    86 H24       2.3708   -0.4951    6.9189   H         1 RES1   0.0000
    87 H25       0.9922   -1.5065    7.3195   H         1 RES1   0.0000
    88 H26       2.4953   -1.6408    9.1127   H         1 RES1   0.0000
    89 H27       1.1080   -0.7415    9.6787   H         1 RES1   0.0000
    90 H28       3.4792    0.8189    8.6521   H         1 RES1   0.0000
    91 H29       3.6196    0.0114   10.2039   H         1 RES1   0.0000
    92 H30       1.6358    1.1881   11.0656   H         1 RES1   0.0000
    93 H31       1.4470    2.0454    9.5440   H         1 RES1   0.0000
    94 H32       3.8508    2.2157   11.4130   H         1 RES1   0.0000
    95 H33       2.6353    3.4662   11.1610   H         1 RES1   0.0000
    96 H34       3.7450    3.0417    9.8564   H         1 RES1   0.0000
    97 H35       2.5588    0.1106    2.9239   H         1 RES1   0.0000
    98 H36       2.9980    1.8053    3.1639   H         1 RES1   0.0000
    99 H37       4.3255    0.6486    1.1352   H         1 RES1   0.0000
   100 H38       3.4933    0.7888   -0.4296   H         1 RES1   0.0000
   101 H39       4.0127   -3.6464    2.2282   H         1 RES1   0.0000
   102 H40       2.5332   -3.5971    1.2491   H         1 RES1   0.0000
   103 H41       2.0011   -3.5340    3.6074   H         1 RES1   0.0000
   104 H42       1.5182   -2.0208    2.8421   H         1 RES1   0.0000
   105 H43       2.4951   -1.2910    4.8290   H         1 RES1   0.0000
   106 H44       3.8670   -1.1515    3.7080   H         1 RES1   0.0000
   107 H45       4.6996   -3.3674    4.5505   H         1 RES1   0.0000
   108 H46       3.4136   -3.3446    5.7627   H         1 RES1   0.0000
   109 H47       4.2778   -1.1480    6.5956   H         1 RES1   0.0000
   110 H48       5.5787   -1.2183    5.4050   H         1 RES1   0.0000
   111 H49       6.4466   -3.2808    6.4650   H         1 RES1   0.0000
   112 H50       5.1098   -3.2598    7.6170   H         1 RES1   0.0000
   113 H51       7.0460   -2.3592    8.7118   H         1 RES1   0.0000
   114 H52       5.9125   -1.0350    8.4667   H         1 RES1   0.0000
   115 H53       8.2971   -1.6181    6.6437   H         1 RES1   0.0000
   116 H54       8.3054   -0.4367    7.9508   H         1 RES1   0.0000
   117 H55       7.2490   -0.1954    6.5650   H         1 RES1   0.0000
   118 H56       5.6889   -1.5177    1.8982   H         1 RES1   0.0000
   119 H57       5.3911   -1.1281    0.1898   H         1 RES1   0.0000
   120 H58       5.6941   -3.9465    1.3408   H         1 RES1   0.0000
   121 H59       6.8945   -2.9799    0.5261   H         1 RES1   0.0000
   122 H60       6.1589   -4.5619   -1.0141   H         1 RES1   0.0000
   123 H61       5.5136   -3.0195   -1.5523   H         1 RES1   0.0000
   124 H62       3.2818   -3.6430   -0.8287   H         1 RES1   0.0000
   125 H63       3.8979   -5.0730    0.0169   H         1 RES1   0.0000
   126 H64       4.2410   -4.7563   -2.9774   H         1 RES1   0.0000
   127 H65       2.7529   -5.3949   -2.2887   H         1 RES1   0.0000
   128 H66       5.5308   -6.5896   -1.9182   H         1 RES1   0.0000
   129 H67       4.3221   -7.1173   -3.0760   H         1 RES1   0.0000
   130 H68       4.0316   -7.2360   -0.0421   H         1 RES1   0.0000
   131 H69       4.4199   -8.5725   -1.1144   H         1 RES1   0.0000
   132 H70       1.7807   -7.0321   -1.0733   H         1 RES1   0.0000
   133 H71       2.0608   -8.6935   -0.5575   H         1 RES1   0.0000
   134 H72       2.2030   -8.2748   -2.2607   H         1 RES1   0.0000
   135 H73       3.4189    2.9887    0.6579   H         1 RES1   0.0000
   136 H74       2.0374    3.3095    1.7375   H         1 RES1   0.0000
   137 H75       0.8098    3.7011   -2.6594   H         1 RES1   0.0000
   138 H76       1.2551    5.4127   -2.5344   H         1 RES1   0.0000
   139 H77      -0.6766    5.6883   -0.9122   H         1 RES1   0.0000
   140 H78      -1.0386    3.9619   -1.1910   H         1 RES1   0.0000
   141 H79      -1.2538    4.6928   -3.7065   H         1 RES1   0.0000
   142 H80      -1.3917    6.3102   -3.0709   H         1 RES1   0.0000
   143 H81      -3.4504    5.9254   -2.0683   H         1 RES1   0.0000
   144 H82      -3.1121    4.2415   -1.7250   H         1 RES1   0.0000
   145 H83      -3.5219    5.0622   -4.6009   H         1 RES1   0.0000
   146 H84      -4.9030    4.9168   -3.5387   H         1 RES1   0.0000
   147 H85      -4.6524    2.8210   -4.6519   H         1 RES1   0.0000
   148 H86      -4.3034    2.6136   -2.9477   H         1 RES1   0.0000
   149 H87      -1.8065    2.7777   -3.5843   H         1 RES1   0.0000
   150 H88      -2.3092    2.7370   -5.2511   H         1 RES1   0.0000
   151 H89      -2.9033    0.4790   -5.1795   H         1 RES1   0.0000
   152 H90      -1.7028    0.4483   -3.9113   H         1 RES1   0.0000
   153 H91      -3.4147    0.5481   -3.4939   H         1 RES1   0.0000
   154 H92       2.9791    5.0024    0.5578   H         1 RES1   0.0000
   155 H93       1.5956    6.0538    0.2562   H         1 RES1   0.0000
   156 H94       3.7326    6.9331   -0.5429   H         1 RES1   0.0000
   157 H95       2.5595    6.8232   -1.8389   H         1 RES1   0.0000
   158 H96       3.8397    4.3645   -2.0200   H         1 RES1   0.0000
   159 H97       5.1620    5.4213   -1.5696   H         1 RES1   0.0000
   160 H98       4.6940    6.9072   -3.4398   H         1 RES1   0.0000
   161 H99       3.2138    6.0517   -3.8219   H         1 RES1   0.0000
   162 H100      6.0768    5.1291   -4.2442   H         1 RES1   0.0000
   163 H101      4.8099    5.3848   -5.4273   H         1 RES1   0.0000
   164 H102      5.1244    3.1251   -3.4318   H         1 RES1   0.0000
   165 H103      5.1878    3.0499   -5.1763   H         1 RES1   0.0000
   166 H104      2.9571    2.6333   -5.3079   H         1 RES1   0.0000
   167 H105      2.5577    4.0166   -4.3098   H         1 RES1   0.0000
   168 H106      3.5525    1.3304   -3.2442   H         1 RES1   0.0000
   169 H107      1.8446    1.8180   -3.2366   H         1 RES1   0.0000
   170 H108      3.0379    2.6651   -2.2545   H         1 RES1   0.0000
   171 C55      -7.2169    0.6211    4.2473   C.3       1 RES1   0.0000
   172 C56      -6.8269   -0.8466    4.0905   C.3       1 RES1   0.0000
   173 C57      -7.9914   -1.7367    3.6359   C.3       1 RES1   0.0000
   174 C58      -7.9481   -2.1460    2.1642   C.3       1 RES1   0.0000
   175 C59      -8.1546   -0.9978    1.1665   C.3       1 RES1   0.0000
   176 C60      -6.8713   -0.3556    0.6287   C.3       1 RES1   0.0000
   177 C61      -5.9534   -1.3734   -0.0615   C.3       1 RES1   0.0000
   178 C62      -5.0715   -0.6709   -1.0930   C.3       1 RES1   0.0000
   179 N5       -4.1259   -1.5495   -1.7748   N.am      1 RES1   0.0000
   180 C63      -4.5434   -2.3313   -2.9422   C.3       1 RES1   0.0000
   181 C64      -5.9975   -2.1607   -3.4009   C.3       1 RES1   0.0000
   182 C65      -6.2790   -0.9257   -4.2595   C.3       1 RES1   0.0000
   183 C66      -5.5204   -0.9285   -5.5814   C.3       1 RES1   0.0000
   184 C67      -6.0735    0.1027   -6.5731   C.3       1 RES1   0.0000
   185 C68      -6.8259   -0.5632   -7.7225   C.3       1 RES1   0.0000
   186 C69      -8.1632   -1.1543   -7.2831   C.3       1 RES1   0.0000
   187 C70      -8.8507   -1.8781   -8.4318   C.3       1 RES1   0.0000
   188 C71      -2.8660   -1.5510   -1.3466   C.2       1 RES1   0.0000
   189 O4       -2.4854   -0.8408   -0.3971   O.2       1 RES1   0.0000
   190 C72      -1.8308   -2.4050   -2.0646   C.3       1 RES1   0.0000
   191 N6       -0.5532   -2.4242   -1.3307   N.4       1 RES1   0.0000
   192 C73       0.5417   -2.6537   -2.2856   C.3       1 RES1   0.0000
   193 C74       0.8681   -1.3648   -3.0655   C.2       1 RES1   0.0000
   194 O5        0.4529   -0.2879   -2.5907   O.2       1 RES1   0.0000
   195 N7        1.5656   -1.4800   -4.1992   N.am      1 RES1   0.0000
   196 C75       1.7810   -0.3594   -5.1201   C.3       1 RES1   0.0000
   197 C76       0.5378    0.3691   -5.6195   C.3       1 RES1   0.0000
   198 C77      -0.4191   -0.5259   -6.4048   C.3       1 RES1   0.0000
   199 C78       0.1695   -1.0515   -7.7153   C.3       1 RES1   0.0000
   200 C79      -0.8746   -1.8397   -8.5045   C.3       1 RES1   0.0000
   201 C80      -0.3146   -2.3905   -9.8136   C.3       1 RES1   0.0000
   202 C81      -1.3566   -3.1689  -10.6172   C.3       1 RES1   0.0000
   203 C82      -1.7677   -4.4794   -9.9510   C.3       1 RES1   0.0000
   204 C83       2.1953   -2.7516   -4.5821   C.3       1 RES1   0.0000
   205 C84       3.5418   -2.7210   -5.3351   C.3       1 RES1   0.0000
   206 C85       4.7849   -2.3830   -4.5060   C.3       1 RES1   0.0000
   207 C86       4.8723   -0.9581   -3.9704   C.3       1 RES1   0.0000
   208 C87       6.1939   -0.6885   -3.2369   C.3       1 RES1   0.0000
   209 C88       7.4040   -0.4822   -4.1530   C.3       1 RES1   0.0000
   210 C89       7.4706    0.8981   -4.8073   C.3       1 RES1   0.0000
   211 C90       7.8387    2.0023   -3.8216   C.3       1 RES1   0.0000
   212 C91      -0.5729   -3.4358   -0.2579   C.3       1 RES1   0.0000
   213 C92      -0.8469   -2.8397    1.1300   C.2       1 RES1   0.0000
   214 O6       -0.6586   -1.6313    1.3511   O.2       1 RES1   0.0000
   215 N8       -1.3034   -3.6254    2.0968   N.am      1 RES1   0.0000
   216 C93      -1.7867   -2.9306    3.2941   C.3       1 RES1   0.0000
   217 C94      -3.0808   -2.1515    2.9862   C.3       1 RES1   0.0000
   218 C95      -3.0863   -0.6785    3.4378   C.3       1 RES1   0.0000
   219 C96      -3.3976    0.2470    2.2537   C.3       1 RES1   0.0000
   220 C97      -3.9236    1.6335    2.6363   C.3       1 RES1   0.0000
   221 C98      -3.5930    2.7152    1.6021   C.3       1 RES1   0.0000
   222 C99      -2.0700    2.8302    1.4416   C.3       1 RES1   0.0000
   223 C100     -1.5137    4.2344    1.3048   C.3       1 RES1   0.0000
   224 C101     -1.4315   -5.0717    2.0734   C.3       1 RES1   0.0000
   225 C102     -0.4748   -5.7741    3.0500   C.3       1 RES1   0.0000
   226 C103      0.8745   -6.1764    2.4545   C.3       1 RES1   0.0000
   227 C104      1.6544   -7.0007    3.4844   C.3       1 RES1   0.0000
   228 C105      2.9131   -7.6769    2.9361   C.3       1 RES1   0.0000
   229 C106      4.1322   -6.7681    2.7739   C.3       1 RES1   0.0000
   230 C107      4.7605   -6.3600    4.1064   C.3       1 RES1   0.0000
   231 C108      6.1095   -5.6754    3.9127   C.3       1 RES1   0.0000
   232 H109     -6.3772    1.1989    4.6329   H         1 RES1   0.0000
   233 H110     -8.0425    0.7226    4.9483   H         1 RES1   0.0000
   234 H111     -7.5246    1.0494    3.2951   H         1 RES1   0.0000
   235 H112     -6.4531   -1.2051    5.0513   H         1 RES1   0.0000
   236 H113     -6.0095   -0.9353    3.3734   H         1 RES1   0.0000
   237 H114     -8.9355   -1.2314    3.8308   H         1 RES1   0.0000
   238 H115     -7.9957   -2.6536    4.2259   H         1 RES1   0.0000
   239 H116     -8.7407   -2.8785    2.0050   H         1 RES1   0.0000
   240 H117     -7.0043   -2.6557    1.9670   H         1 RES1   0.0000
   241 H118     -8.7561   -0.2229    1.6421   H         1 RES1   0.0000
   242 H119     -8.7314   -1.3669    0.3141   H         1 RES1   0.0000
   243 H120     -6.3290    0.1463    1.4303   H         1 RES1   0.0000
   244 H121     -7.1648    0.4086   -0.0972   H         1 RES1   0.0000
   245 H122     -6.5746   -2.1233   -0.5493   H         1 RES1   0.0000
   246 H123     -5.3316   -1.8905    0.6728   H         1 RES1   0.0000
   247 H124     -4.4878    0.1023   -0.5886   H         1 RES1   0.0000
   248 H125     -5.7018   -0.1969   -1.8417   H         1 RES1   0.0000
   249 H126     -4.3750   -3.3911   -2.7213   H         1 RES1   0.0000
   250 H127     -3.9017   -2.0641   -3.7887   H         1 RES1   0.0000
   251 H128     -6.6857   -2.1900   -2.5602   H         1 RES1   0.0000
   252 H129     -6.2385   -3.0401   -4.0013   H         1 RES1   0.0000
   253 H130     -6.0659   -0.0014   -3.7169   H         1 RES1   0.0000
   254 H131     -7.3456   -0.9207   -4.4799   H         1 RES1   0.0000
   255 H132     -5.5882   -1.9208   -6.0262   H         1 RES1   0.0000
   256 H133     -4.4663   -0.7341   -5.3983   H         1 RES1   0.0000
   257 H134     -5.2616    0.7057   -6.9799   H         1 RES1   0.0000
   258 H135     -6.7451    0.7878   -6.0561   H         1 RES1   0.0000
   259 H136     -6.1995   -1.3559   -8.1374   H         1 RES1   0.0000
   260 H137     -6.9975    0.1690   -8.5131   H         1 RES1   0.0000
   261 H138     -8.8103   -0.3528   -6.9211   H         1 RES1   0.0000
   262 H139     -8.0064   -1.8572   -6.4612   H         1 RES1   0.0000
   263 H140     -8.9864   -1.2072   -9.2764   H         1 RES1   0.0000
   264 H141     -9.8259   -2.2432   -8.1226   H         1 RES1   0.0000
   265 H142     -8.2540   -2.7276   -8.7561   H         1 RES1   0.0000
   266 H143     -1.6731   -1.9592   -3.0521   H         1 RES1   0.0000
   267 H144     -2.2152   -3.4229   -2.2143   H         1 RES1   0.0000
   268 H145      0.2830   -3.4663   -2.9758   H         1 RES1   0.0000
   269 H146      1.4409   -2.9376   -1.7327   H         1 RES1   0.0000
   270 H147      2.2805   -0.7587   -5.9947   H         1 RES1   0.0000
   271 H148      2.4409    0.3608   -4.6507   H         1 RES1   0.0000
   272 H149      0.8732    1.1743   -6.2760   H         1 RES1   0.0000
   273 H150      0.0297    0.8355   -4.7794   H         1 RES1   0.0000
   274 H151     -1.3195    0.0424   -6.6515   H         1 RES1   0.0000
   275 H152     -0.7177   -1.3705   -5.7752   H         1 RES1   0.0000
   276 H153      1.0237   -1.7022   -7.5127   H         1 RES1   0.0000
   277 H154      0.5209   -0.2094   -8.3166   H         1 RES1   0.0000
   278 H155     -1.7245   -1.1882   -8.7229   H         1 RES1   0.0000
   279 H156     -1.2333   -2.6651   -7.8848   H         1 RES1   0.0000
   280 H157      0.5349   -3.0448   -9.6017   H         1 RES1   0.0000
   281 H158      0.0515   -1.5605  -10.4207   H         1 RES1   0.0000
   282 H159     -0.9395   -3.3933  -11.6000   H         1 RES1   0.0000
   283 H160     -2.2416   -2.5464  -10.7683   H         1 RES1   0.0000
   284 H161     -0.8900   -5.0861   -9.7320   H         1 RES1   0.0000
   285 H162     -2.4151   -5.0483  -10.6141   H         1 RES1   0.0000
   286 H163     -2.3091   -4.3011   -9.0224   H         1 RES1   0.0000
   287 H164      1.4920   -3.3178   -5.2056   H         1 RES1   0.0000
   288 H165      2.3826   -3.3197   -3.6725   H         1 RES1   0.0000
   289 H166      3.5273   -2.0967   -6.2281   H         1 RES1   0.0000
   290 H167      3.6748   -3.7496   -5.6793   H         1 RES1   0.0000
   291 H168      5.6568   -2.5724   -5.1330   H         1 RES1   0.0000
   292 H169      4.8478   -3.0746   -3.6668   H         1 RES1   0.0000
   293 H170      4.7780   -0.2597   -4.8015   H         1 RES1   0.0000
   294 H171      4.0407   -0.7935   -3.2755   H         1 RES1   0.0000
   295 H172      6.4082   -1.5293   -2.5728   H         1 RES1   0.0000
   296 H173      6.0756    0.1992   -2.6110   H         1 RES1   0.0000
   297 H174      7.4083   -1.2465   -4.9293   H         1 RES1   0.0000
   298 H175      8.3110   -0.6231   -3.5636   H         1 RES1   0.0000
   299 H176      6.5153    1.1304   -5.2824   H         1 RES1   0.0000
   300 H177      8.2260    0.8696   -5.5937   H         1 RES1   0.0000
   301 H178      7.1062    2.0798   -3.0193   H         1 RES1   0.0000
   302 H179      7.8828    2.9606   -4.3327   H         1 RES1   0.0000
   303 H180      8.8115    1.8071   -3.3756   H         1 RES1   0.0000
   304 H181      0.3920   -3.9464   -0.2015   H         1 RES1   0.0000
   305 H182     -1.3356   -4.1908   -0.4788   H         1 RES1   0.0000
   306 H183     -1.0037   -2.2387    3.6099   H         1 RES1   0.0000
   307 H184     -1.9443   -3.6695    4.0754   H         1 RES1   0.0000
   308 H185     -3.9304   -2.6705    3.4259   H         1 RES1   0.0000
   309 H186     -3.2169   -2.1748    1.9041   H         1 RES1   0.0000
   310 H187     -2.1071   -0.4262    3.8492   H         1 RES1   0.0000
   311 H188     -3.8268   -0.5389    4.2248   H         1 RES1   0.0000
   312 H189     -4.1450   -0.2346    1.6287   H         1 RES1   0.0000
   313 H190     -2.4767    0.3312    1.6607   H         1 RES1   0.0000
   314 H191     -3.4927    1.9322    3.5896   H         1 RES1   0.0000
   315 H192     -5.0022    1.5793    2.7823   H         1 RES1   0.0000
   316 H193     -4.0123    3.6621    1.9473   H         1 RES1   0.0000
   317 H194     -4.0892    2.4765    0.6581   H         1 RES1   0.0000
   318 H195     -1.6984    2.2388    0.5968   H         1 RES1   0.0000
   319 H196     -1.6316    2.3971    2.3293   H         1 RES1   0.0000
   320 H197     -2.0000    4.7640    0.4974   H         1 RES1   0.0000
   321 H198     -0.4429    4.1876    1.1076   H         1 RES1   0.0000
   322 H199     -1.6824    4.7876    2.2171   H         1 RES1   0.0000
   323 H200     -1.2468   -5.4606    1.0730   H         1 RES1   0.0000
   324 H201     -2.4623   -5.3075    2.3464   H         1 RES1   0.0000
   325 H202     -0.9738   -6.6762    3.4063   H         1 RES1   0.0000
   326 H203     -0.2933   -5.1367    3.9157   H         1 RES1   0.0000
   327 H204      1.4381   -5.2856    2.1679   H         1 RES1   0.0000
   328 H205      0.7179   -6.7798    1.5574   H         1 RES1   0.0000
   329 H206      0.9908   -7.7881    3.8467   H         1 RES1   0.0000
   330 H207      1.9107   -6.3730    4.3397   H         1 RES1   0.0000
   331 H208      2.6729   -8.1318    1.9733   H         1 RES1   0.0000
   332 H209      3.1903   -8.4860    3.6130   H         1 RES1   0.0000
   333 H210      3.8570   -5.8766    2.2028   H         1 RES1   0.0000
   334 H211      4.8822   -7.3146    2.1969   H         1 RES1   0.0000
   335 H212      4.9111   -7.2535    4.7135   H         1 RES1   0.0000
   336 H213      4.0866   -5.6976    4.6550   H         1 RES1   0.0000
   337 H214      6.8034   -6.3399    3.4023   H         1 RES1   0.0000
   338 H215      6.5386   -5.4044    4.8740   H         1 RES1   0.0000
   339 H216      6.0129   -4.7669    3.3166   H         1 RES1   0.0000
   340 O7       -2.0004    1.4987   -1.3053   O.3       1 RES1   0.0000
   341 H217     -1.7165    1.6367   -2.2202   H         1 RES1   0.0000
   342 H218     -2.8911    1.8794   -1.2579   H         1 RES1   0.0000
@<TRIPOS>BOND
     1     1    20    1
     2     1    22    1
     3     1    25    1
     4     1    45    1
     5     1   189    1
     6     1   191    1
     7     1   194    1
     8     1   214    1
     9     1   340    1
    10     2     3    1
    11     2    63    1
    12     2    64    1
    13     2    65    1
    14     3     4    1
    15     3    66    1
    16     3    67    1
    17     4     5    1
    18     4    68    1
    19     4    69    1
    20     5     6    1
    21     5    70    1
    22     5    71    1
    23     6     7    1
    24     6    72    1
    25     6    73    1
    26     7     8    1
    27     7    74    1
    28     7    75    1
    29     8     9    1
    30     8    76    1
    31     8    77    1
    32     9    10    1
    33     9    78    1
    34     9    79    1
    35    10    11    1
    36    10    19    1
    37    11    12    1
    38    11    80    1
    39    11    81    1
    40    12    13    1
    41    12    82    1
    42    12    83    1
    43    13    14    1
    44    13    84    1
    45    13    85    1
    46    14    15    1
    47    14    86    1
    48    14    87    1
    49    15    16    1
    50    15    88    1
    51    15    89    1
    52    16    17    1
    53    16    90    1
    54    16    91    1
    55    17    18    1
    56    17    92    1
    57    17    93    1
    58    18    94    1
    59    18    95    1
    60    18    96    1
    61    19    20    2
    62    19    21    1
    63    21    22    1
    64    21    97    1
    65    21    98    1
    66    22    23    1
    67    22    43    1
    68    23    24    1
    69    23    99    1
    70    23   100    1
    71    24    25    2
    72    24    26    1
    73    26    27    1
    74    26    35    1
    75    27    28    1
    76    27   101    1
    77    27   102    1
    78    28    29    1
    79    28   103    1
    80    28   104    1
    81    29    30    1
    82    29   105    1
    83    29   106    1
    84    30    31    1
    85    30   107    1
    86    30   108    1
    87    31    32    1
    88    31   109    1
    89    31   110    1
    90    32    33    1
    91    32   111    1
    92    32   112    1
    93    33    34    1
    94    33   113    1
    95    33   114    1
    96    34   115    1
    97    34   116    1
    98    34   117    1
    99    35    36    1
   100    35   118    1
   101    35   119    1
   102    36    37    1
   103    36   120    1
   104    36   121    1
   105    37    38    1
   106    37   122    1
   107    37   123    1
   108    38    39    1
   109    38   124    1
   110    38   125    1
   111    39    40    1
   112    39   126    1
   113    39   127    1
   114    40    41    1
   115    40   128    1
   116    40   129    1
   117    41    42    1
   118    41   130    1
   119    41   131    1
   120    42   132    1
   121    42   133    1
   122    42   134    1
   123    43    44    1
   124    43   135    1
   125    43   136    1
   126    44    45    2
   127    44    46    1
   128    46    47    1
   129    46    55    1
   130    47    48    1
   131    47   137    1
   132    47   138    1
   133    48    49    1
   134    48   139    1
   135    48   140    1
   136    49    50    1
   137    49   141    1
   138    49   142    1
   139    50    51    1
   140    50   143    1
   141    50   144    1
   142    51    52    1
   143    51   145    1
   144    51   146    1
   145    52    53    1
   146    52   147    1
   147    52   148    1
   148    53    54    1
   149    53   149    1
   150    53   150    1
   151    54   151    1
   152    54   152    1
   153    54   153    1
   154    55    56    1
   155    55   154    1
   156    55   155    1
   157    56    57    1
   158    56   156    1
   159    56   157    1
   160    57    58    1
   161    57   158    1
   162    57   159    1
   163    58    59    1
   164    58   160    1
   165    58   161    1
   166    59    60    1
   167    59   162    1
   168    59   163    1
   169    60    61    1
   170    60   164    1
   171    60   165    1
   172    61    62    1
   173    61   166    1
   174    61   167    1
   175    62   168    1
   176    62   169    1
   177    62   170    1
   178   171   172    1
   179   171   232    1
   180   171   233    1
   181   171   234    1
   182   172   173    1
   183   172   235    1
   184   172   236    1
   185   173   174    1
   186   173   237    1
   187   173   238    1
   188   174   175    1
   189   174   239    1
   190   174   240    1
   191   175   176    1
   192   175   241    1
   193   175   242    1
   194   176   177    1
   195   176   243    1
   196   176   244    1
   197   177   178    1
   198   177   245    1
   199   177   246    1
   200   178   179    1
   201   178   247    1
   202   178   248    1
   203   179   180    1
   204   179   188    1
   205   180   181    1
   206   180   249    1
   207   180   250    1
   208   181   182    1
   209   181   251    1
   210   181   252    1
   211   182   183    1
   212   182   253    1
   213   182   254    1
   214   183   184    1
   215   183   255    1
   216   183   256    1
   217   184   185    1
   218   184   257    1
   219   184   258    1
   220   185   186    1
   221   185   259    1
   222   185   260    1
   223   186   187    1
   224   186   261    1
   225   186   262    1
   226   187   263    1
   227   187   264    1
   228   187   265    1
   229   188   189    2
   230   188   190    1
   231   190   191    1
   232   190   266    1
   233   190   267    1
   234   191   192    1
   235   191   212    1
   236   192   193    1
   237   192   268    1
   238   192   269    1
   239   193   194    2
   240   193   195    1
   241   195   196    1
   242   195   204    1
   243   196   197    1
   244   196   270    1
   245   196   271    1
   246   197   198    1
   247   197   272    1
   248   197   273    1
   249   198   199    1
   250   198   274    1
   251   198   275    1
   252   199   200    1
   253   199   276    1
   254   199   277    1
   255   200   201    1
   256   200   278    1
   257   200   279    1
   258   201   202    1
   259   201   280    1
   260   201   281    1
   261   202   203    1
   262   202   282    1
   263   202   283    1
   264   203   284    1
   265   203   285    1
   266   203   286    1
   267   204   205    1
   268   204   287    1
   269   204   288    1
   270   205   206    1
   271   205   289    1
   272   205   290    1
   273   206   207    1
   274   206   291    1
   275   206   292    1
   276   207   208    1
   277   207   293    1
   278   207   294    1
   279   208   209    1
   280   208   295    1
   281   208   296    1
   282   209   210    1
   283   209   297    1
   284   209   298    1
   285   210   211    1
   286   210   299    1
   287   210   300    1
   288   211   301    1
   289   211   302    1
   290   211   303    1
   291   212   213    1
   292   212   304    1
   293   212   305    1
   294   213   214    2
   295   213   215    1
   296   215   216    1
   297   215   224    1
   298   216   217    1
   299   216   306    1
   300   216   307    1
   301   217   218    1
   302   217   308    1
   303   217   309    1
   304   218   219    1
   305   218   310    1
   306   218   311    1
   307   219   220    1
   308   219   312    1
   309   219   313    1
   310   220   221    1
   311   220   314    1
   312   220   315    1
   313   221   222    1
   314   221   316    1
   315   221   317    1
   316   222   223    1
   317   222   318    1
   318   222   319    1
   319   223   320    1
   320   223   321    1
   321   223   322    1
   322   224   225    1
   323   224   323    1
   324   224   324    1
   325   225   226    1
   326   225   325    1
   327   225   326    1
   328   226   227    1
   329   226   327    1
   330   226   328    1
   331   227   228    1
   332   227   329    1
   333   227   330    1
   334   228   229    1
   335   228   331    1
   336   228   332    1
   337   229   230    1
   338   229   333    1
   339   229   334    1
   340   230   231    1
   341   230   335    1
   342   230   336    1
   343   231   337    1
   344   231   338    1
   345   231   339    1
   346   340   341    1
   347   340   342    1
@<TRIPOS>SUBSTRUCTURE
     1 RES1      342 GROUP             0 ****  ****    0  
