@<TRIPOS>MOLECULE
am_c3_9H2O_c0_0_nunpairedes_0_charge_3 Charge: 3 Unpaired_Electrons: 5 XTB_Unpaired_Electrons: 0 XTB_Charge: 3
   148   161     1     0     0
SMALL
NoCharges
****
Generated from Architector

@<TRIPOS>ATOM
     1 Sm1      -0.0760    0.0569   -0.0274   Sm        1 RES1   0.0000
     2 C1       -5.8979    3.0354    1.0062   C.3       1 RES1   0.0000
     3 C2       -4.6130    3.2449    0.2130   C.3       1 RES1   0.0000
     4 N1       -4.0163    1.9844   -0.2155   N.am      1 RES1   0.0000
     5 C3       -2.8599    1.4901    0.2596   C.2       1 RES1   0.0000
     6 O1       -2.2662    0.5903   -0.3744   O.2       1 RES1   0.0000
     7 C4       -2.1948    1.9097    1.5662   C.ar      1 RES1   0.0000
     8 C5       -2.7198    2.7184    2.5722   C.ar      1 RES1   0.0000
     9 C6       -1.9202    3.0057    3.6701   C.ar      1 RES1   0.0000
    10 C7       -0.6962    2.3778    3.8341   C.ar      1 RES1   0.0000
    11 C8       -0.2937    1.4437    2.8705   C.ar      1 RES1   0.0000
    12 C9        0.9103    0.5598    3.0413   C.ar      1 RES1   0.0000
    13 C10       1.6343    0.4916    4.2382   C.ar      1 RES1   0.0000
    14 C11       2.7627   -0.3125    4.2960   C.ar      1 RES1   0.0000
    15 C12       3.1621   -1.0444    3.1851   C.ar      1 RES1   0.0000
    16 C13       2.3813   -0.9546    2.0363   C.ar      1 RES1   0.0000
    17 C14       2.5634   -1.7119    0.7402   C.2       1 RES1   0.0000
    18 O2        1.5469   -1.7805    0.0099   O.2       1 RES1   0.0000
    19 N2        3.6952   -2.3227    0.3908   N.am      1 RES1   0.0000
    20 C15       3.7159   -3.1159   -0.8467   C.3       1 RES1   0.0000
    21 C16       4.3349   -2.3432   -2.0067   C.3       1 RES1   0.0000
    22 C17       5.0055   -2.0388    0.8975   C.ar      1 RES1   0.0000
    23 C18       5.4895   -0.7449    0.7100   C.ar      1 RES1   0.0000
    24 C19       6.7905   -0.4026    1.0330   C.ar      1 RES1   0.0000
    25 C20       7.3527    0.9666    0.8141   C.3       1 RES1   0.0000
    26 C21       7.6119   -1.4049    1.5493   C.ar      1 RES1   0.0000
    27 C22       7.1358   -2.6847    1.7343   C.ar      1 RES1   0.0000
    28 C23       5.8263   -3.0392    1.4102   C.ar      1 RES1   0.0000
    29 C24       5.3869   -4.4568    1.6015   C.3       1 RES1   0.0000
    30 N3        1.2833   -0.1815    1.9913   N.ar      1 RES1   0.0000
    31 N4       -1.0072    1.3039    1.7457   N.ar      1 RES1   0.0000
    32 C25      -4.7614    1.1814   -1.1667   C.ar      1 RES1   0.0000
    33 C26      -4.7911   -0.1972   -0.9220   C.ar      1 RES1   0.0000
    34 C27      -5.4597   -1.0850   -1.7454   C.ar      1 RES1   0.0000
    35 C28      -5.4403   -2.5588   -1.4997   C.3       1 RES1   0.0000
    36 C29      -6.1791   -0.5723   -2.8198   C.ar      1 RES1   0.0000
    37 C30      -6.1832    0.7825   -3.0480   C.ar      1 RES1   0.0000
    38 C31      -5.4680    1.6914   -2.2651   C.ar      1 RES1   0.0000
    39 C32      -5.5687    3.1265   -2.6994   C.3       1 RES1   0.0000
    40 H1       -6.3302    3.9980    1.2617   H         1 RES1   0.0000
    41 H2       -5.7283    2.4731    1.9206   H         1 RES1   0.0000
    42 H3       -6.6254    2.4915    0.4092   H         1 RES1   0.0000
    43 H4       -3.8646    3.8240    0.7527   H         1 RES1   0.0000
    44 H5       -4.8465    3.8227   -0.6770   H         1 RES1   0.0000
    45 H6       -3.7174    3.1145    2.5436   H         1 RES1   0.0000
    46 H7       -2.2694    3.7027    4.4150   H         1 RES1   0.0000
    47 H8       -0.1003    2.6093    4.7025   H         1 RES1   0.0000
    48 H9        1.3283    1.0426    5.1134   H         1 RES1   0.0000
    49 H10       3.3507   -0.3556    5.1989   H         1 RES1   0.0000
    50 H11       4.0489   -1.6555    3.2316   H         1 RES1   0.0000
    51 H12       2.6877   -3.4053   -1.0716   H         1 RES1   0.0000
    52 H13       4.3035   -4.0137   -0.6529   H         1 RES1   0.0000
    53 H14       3.8173   -1.3969   -2.1424   H         1 RES1   0.0000
    54 H15       4.2590   -2.9205   -2.9237   H         1 RES1   0.0000
    55 H16       5.3880   -2.1521   -1.8184   H         1 RES1   0.0000
    56 H17       4.8226   -0.0283    0.2565   H         1 RES1   0.0000
    57 H18       6.6490    1.6233    0.3102   H         1 RES1   0.0000
    58 H19       8.2577    0.8971    0.2116   H         1 RES1   0.0000
    59 H20       7.6289    1.4149    1.7689   H         1 RES1   0.0000
    60 H21       8.6366   -1.1653    1.7865   H         1 RES1   0.0000
    61 H22       7.7860   -3.4502    2.1277   H         1 RES1   0.0000
    62 H23       5.7354   -4.8157    2.5675   H         1 RES1   0.0000
    63 H24       5.8512   -5.0819    0.8362   H         1 RES1   0.0000
    64 H25       4.3054   -4.5650    1.5524   H         1 RES1   0.0000
    65 H26      -4.2693   -0.5842   -0.0584   H         1 RES1   0.0000
    66 H27      -4.7235   -2.8076   -0.7251   H         1 RES1   0.0000
    67 H28      -5.1777   -3.0978   -2.4088   H         1 RES1   0.0000
    68 H29      -6.4255   -2.9083   -1.1935   H         1 RES1   0.0000
    69 H30      -6.7322   -1.2353   -3.4661   H         1 RES1   0.0000
    70 H31      -6.7575    1.1720   -3.8726   H         1 RES1   0.0000
    71 H32      -5.9202    3.1700   -3.7292   H         1 RES1   0.0000
    72 H33      -4.6156    3.6504   -2.6519   H         1 RES1   0.0000
    73 H34      -6.3120    3.6477   -2.0937   H         1 RES1   0.0000
    74 C33       1.4604    4.3439   -3.0718   C.3       1 RES1   0.0000
    75 C34       2.7957    4.0562   -2.3905   C.3       1 RES1   0.0000
    76 N5        2.5901    3.3539   -1.1214   N.am      1 RES1   0.0000
    77 C35       2.0189    2.1468   -1.0666   C.2       1 RES1   0.0000
    78 O3        1.4566    1.7438   -0.0226   O.2       1 RES1   0.0000
    79 C36       2.0206    1.1626   -2.2239   C.ar      1 RES1   0.0000
    80 C37       2.9909    1.0262   -3.2153   C.ar      1 RES1   0.0000
    81 C38       2.8059    0.0455   -4.1798   C.ar      1 RES1   0.0000
    82 C39       1.7191   -0.8140   -4.1151   C.ar      1 RES1   0.0000
    83 C40       0.8354   -0.6877   -3.0379   C.ar      1 RES1   0.0000
    84 C41      -0.2736   -1.6537   -2.7503   C.ar      1 RES1   0.0000
    85 C42      -0.8014   -2.5305   -3.6991   C.ar      1 RES1   0.0000
    86 C43      -1.7823   -3.4214   -3.2871   C.ar      1 RES1   0.0000
    87 C44      -2.1863   -3.4673   -1.9592   C.ar      1 RES1   0.0000
    88 C45      -1.6166   -2.5646   -1.0603   C.ar      1 RES1   0.0000
    89 C46      -1.8945   -2.4184    0.4275   C.2       1 RES1   0.0000
    90 O4       -1.3623   -1.4581    1.0229   O.2       1 RES1   0.0000
    91 N6       -2.7043   -3.2400    1.1106   N.am      1 RES1   0.0000
    92 C47      -2.9844   -2.8709    2.5070   C.3       1 RES1   0.0000
    93 C48      -3.9179   -1.6718    2.6174   C.3       1 RES1   0.0000
    94 C49      -2.8565   -4.6200    0.7796   C.ar      1 RES1   0.0000
    95 C50      -1.6784   -5.2844    0.4319   C.ar      1 RES1   0.0000
    96 C51      -1.6572   -6.6379    0.1580   C.ar      1 RES1   0.0000
    97 C52      -0.3747   -7.3441   -0.1430   C.3       1 RES1   0.0000
    98 C53      -2.8695   -7.3251    0.2262   C.ar      1 RES1   0.0000
    99 C54      -4.0311   -6.6729    0.5832   C.ar      1 RES1   0.0000
   100 C55      -4.0613   -5.3126    0.8914   C.ar      1 RES1   0.0000
   101 C56      -5.3494   -4.7118    1.3632   C.3       1 RES1   0.0000
   102 N7       -0.7176   -1.6688   -1.4881   N.ar      1 RES1   0.0000
   103 N8        0.9981    0.2969   -2.1453   N.ar      1 RES1   0.0000
   104 C57       2.7397    4.1322    0.0811   C.ar      1 RES1   0.0000
   105 C58       2.3372    5.4664    0.0683   C.ar      1 RES1   0.0000
   106 C59       2.5622    6.3116    1.1437   C.ar      1 RES1   0.0000
   107 C60       2.2171    7.7617    1.0589   C.3       1 RES1   0.0000
   108 C61       3.1426    5.7754    2.2894   C.ar      1 RES1   0.0000
   109 C62       3.5285    4.4535    2.3186   C.ar      1 RES1   0.0000
   110 C63       3.3748    3.6172    1.2168   C.ar      1 RES1   0.0000
   111 C64       3.9532    2.2424    1.2715   C.3       1 RES1   0.0000
   112 H35       1.6291    4.8959   -3.9910   H         1 RES1   0.0000
   113 H36       0.8204    4.9472   -2.4323   H         1 RES1   0.0000
   114 H37       0.9432    3.4141   -3.3015   H         1 RES1   0.0000
   115 H38       3.3311    4.9812   -2.1795   H         1 RES1   0.0000
   116 H39       3.4346    3.4806   -3.0565   H         1 RES1   0.0000
   117 H40       3.8912    1.6194   -3.2333   H         1 RES1   0.0000
   118 H41       3.5205   -0.0641   -4.9781   H         1 RES1   0.0000
   119 H42       1.6116   -1.5900   -4.8558   H         1 RES1   0.0000
   120 H43      -0.4748   -2.5059   -4.7279   H         1 RES1   0.0000
   121 H44      -2.2159   -4.1055   -3.9983   H         1 RES1   0.0000
   122 H45      -2.9109   -4.2018   -1.6530   H         1 RES1   0.0000
   123 H46      -2.0370   -2.6359    3.0058   H         1 RES1   0.0000
   124 H47      -3.4214   -3.7442    2.9887   H         1 RES1   0.0000
   125 H48      -3.4573   -0.7806    2.1961   H         1 RES1   0.0000
   126 H49      -4.1265   -1.4846    3.6655   H         1 RES1   0.0000
   127 H50      -4.8611   -1.8609    2.1129   H         1 RES1   0.0000
   128 H51      -0.7605   -4.7109    0.4251   H         1 RES1   0.0000
   129 H52       0.4586   -6.6442   -0.1426   H         1 RES1   0.0000
   130 H53      -0.4182   -7.8413   -1.1114   H         1 RES1   0.0000
   131 H54      -0.1907   -8.1057    0.6147   H         1 RES1   0.0000
   132 H55      -2.8896   -8.3832    0.0209   H         1 RES1   0.0000
   133 H56      -4.9556   -7.2249    0.6467   H         1 RES1   0.0000
   134 H57      -6.1866   -5.2557    0.9311   H         1 RES1   0.0000
   135 H58      -5.4349   -3.6612    1.1055   H         1 RES1   0.0000
   136 H59      -5.4238   -4.8109    2.4476   H         1 RES1   0.0000
   137 H60       1.8536    5.8787   -0.8028   H         1 RES1   0.0000
   138 H61       2.2266    8.1004    0.0263   H         1 RES1   0.0000
   139 H62       2.9286    8.3549    1.6281   H         1 RES1   0.0000
   140 H63       1.2247    7.9560    1.4647   H         1 RES1   0.0000
   141 H64       3.3116    6.4111    3.1436   H         1 RES1   0.0000
   142 H65       3.9976    4.0536    3.2050   H         1 RES1   0.0000
   143 H66       4.7335    2.1906    2.0280   H         1 RES1   0.0000
   144 H67       4.3747    1.9879    0.3010   H         1 RES1   0.0000
   145 H68       3.1780    1.5148    1.5152   H         1 RES1   0.0000
   146 O5       -0.9710    2.3060   -1.9119   O.3       1 RES1   0.0000
   147 H69      -1.1976    3.2401   -1.8401   H         1 RES1   0.0000
   148 H70      -1.5793    1.9420   -2.5711   H         1 RES1   0.0000
@<TRIPOS>BOND
     1     1     6    1
     2     1    18    1
     3     1    30    1
     4     1    31    1
     5     1    78    1
     6     1    90    1
     7     1   102    1
     8     1   103    1
     9     1   146    1
    10     2     3    1
    11     2    40    1
    12     2    41    1
    13     2    42    1
    14     3     4    1
    15     3    43    1
    16     3    44    1
    17     4     5    1
    18     4    32    1
    19     5     6    2
    20     5     7    1
    21     7     8    1
    22     7    31    2
    23     8     9    2
    24     8    45    1
    25     9    10    1
    26     9    46    1
    27    10    11    2
    28    10    47    1
    29    11    12    1
    30    11    31    1
    31    12    13    1
    32    12    30    2
    33    13    14    2
    34    13    48    1
    35    14    15    1
    36    14    49    1
    37    15    16    2
    38    15    50    1
    39    16    17    1
    40    16    30    1
    41    17    18    2
    42    17    19    1
    43    19    20    1
    44    19    22    1
    45    20    21    1
    46    20    51    1
    47    20    52    1
    48    21    53    1
    49    21    54    1
    50    21    55    1
    51    22    23    1
    52    22    28    2
    53    23    24    2
    54    23    56    1
    55    24    25    1
    56    24    26    1
    57    25    57    1
    58    25    58    1
    59    25    59    1
    60    26    27    2
    61    26    60    1
    62    27    28    1
    63    27    61    1
    64    28    29    1
    65    29    62    1
    66    29    63    1
    67    29    64    1
    68    32    33    1
    69    32    38    2
    70    33    34    2
    71    33    65    1
    72    34    35    1
    73    34    36    1
    74    35    66    1
    75    35    67    1
    76    35    68    1
    77    36    37    2
    78    36    69    1
    79    37    38    1
    80    37    70    1
    81    38    39    1
    82    39    71    1
    83    39    72    1
    84    39    73    1
    85    74    75    1
    86    74   112    1
    87    74   113    1
    88    74   114    1
    89    75    76    1
    90    75   115    1
    91    75   116    1
    92    76    77    1
    93    76   104    1
    94    77    78    2
    95    77    79    1
    96    79    80    1
    97    79   103    2
    98    80    81    2
    99    80   117    1
   100    81    82    1
   101    81   118    1
   102    82    83    2
   103    82   119    1
   104    83    84    1
   105    83   103    1
   106    84    85    1
   107    84   102    2
   108    85    86    2
   109    85   120    1
   110    86    87    1
   111    86   121    1
   112    87    88    2
   113    87   122    1
   114    88    89    1
   115    88   102    1
   116    89    90    2
   117    89    91    1
   118    91    92    1
   119    91    94    1
   120    92    93    1
   121    92   123    1
   122    92   124    1
   123    93   125    1
   124    93   126    1
   125    93   127    1
   126    94    95    1
   127    94   100    2
   128    95    96    2
   129    95   128    1
   130    96    97    1
   131    96    98    1
   132    97   129    1
   133    97   130    1
   134    97   131    1
   135    98    99    2
   136    98   132    1
   137    99   100    1
   138    99   133    1
   139   100   101    1
   140   101   134    1
   141   101   135    1
   142   101   136    1
   143   104   105    1
   144   104   110    2
   145   105   106    2
   146   105   137    1
   147   106   107    1
   148   106   108    1
   149   107   138    1
   150   107   139    1
   151   107   140    1
   152   108   109    2
   153   108   141    1
   154   109   110    1
   155   109   142    1
   156   110   111    1
   157   111   143    1
   158   111   144    1
   159   111   145    1
   160   146   147    1
   161   146   148    1
@<TRIPOS>SUBSTRUCTURE
     1 RES1      148 GROUP             0 ****  ****    0  
