@<TRIPOS>MOLECULE
am_c3_9H2O_c0_0_nunpairedes_0_charge_3 Charge: 3 Unpaired_Electrons: 5 XTB_Unpaired_Electrons: 0 XTB_Charge: 3
   268   273     1     0     0
SMALL
NoCharges
****
Generated from Architector

@<TRIPOS>ATOM
     1 Sm1      -0.0068    0.0233   -0.4394   Sm        1 RES1   0.0000
     2 C1       -0.3060    2.6594    6.6846   C.3       1 RES1   0.0000
     3 C2       -1.7857    2.9722    6.4930   C.3       1 RES1   0.0000
     4 C3       -2.4612    2.0673    5.4625   C.3       1 RES1   0.0000
     5 C4       -2.5193    0.6160    5.9252   C.3       1 RES1   0.0000
     6 C5       -3.2637   -0.3333    4.9860   C.3       1 RES1   0.0000
     7 C6       -4.7670   -0.0408    4.8682   C.3       1 RES1   0.0000
     8 C7       -5.1671    0.7749    3.6392   C.3       1 RES1   0.0000
     9 C8       -5.3586   -0.0243    2.3402   C.3       1 RES1   0.0000
    10 N1       -4.2528   -0.8002    1.7526   N.am      1 RES1   0.0000
    11 C9       -4.5880   -2.1522    1.2729   C.3       1 RES1   0.0000
    12 C10      -3.9947   -3.3387    2.0522   C.3       1 RES1   0.0000
    13 C11      -4.3923   -3.3453    3.5194   C.3       1 RES1   0.0000
    14 C12      -4.4458   -4.6522    1.4114   C.3       1 RES1   0.0000
    15 C13      -3.0995   -0.2682    1.3505   C.2       1 RES1   0.0000
    16 O1       -2.2038   -0.9128    0.7692   O.2       1 RES1   0.0000
    17 C14      -2.8410    1.2249    1.5661   C.3       1 RES1   0.0000
    18 O2       -1.7059    1.5906    0.7805   O.3       1 RES1   0.0000
    19 C15      -1.7542    2.9106    0.2367   C.3       1 RES1   0.0000
    20 C16      -1.2708    2.8207   -1.2321   C.2       1 RES1   0.0000
    21 O3       -0.9997    1.6948   -1.6886   O.2       1 RES1   0.0000
    22 N2       -1.1874    3.9392   -1.9349   N.am      1 RES1   0.0000
    23 C17      -0.7446    3.8917   -3.3319   C.3       1 RES1   0.0000
    24 C18       0.7347    3.5006   -3.4759   C.3       1 RES1   0.0000
    25 C19       1.5803    4.5101   -4.2699   C.3       1 RES1   0.0000
    26 C20       1.6305    4.3069   -5.7893   C.3       1 RES1   0.0000
    27 C21       0.3737    4.7183   -6.5684   C.3       1 RES1   0.0000
    28 C22      -0.5599    3.5538   -6.8897   C.3       1 RES1   0.0000
    29 C23      -1.7322    3.9948   -7.7624   C.3       1 RES1   0.0000
    30 C24      -2.6118    2.8161   -8.1553   C.3       1 RES1   0.0000
    31 C25      -1.7020    5.2154   -1.4727   C.3       1 RES1   0.0000
    32 C26      -3.0713    5.5416   -2.0972   C.3       1 RES1   0.0000
    33 C27      -3.5602    6.8792   -1.5531   C.3       1 RES1   0.0000
    34 C28      -4.0922    4.4368   -1.8376   C.3       1 RES1   0.0000
    35 H1        0.1535    3.4020    7.3313   H         1 RES1   0.0000
    36 H2       -0.1678    1.6846    7.1441   H         1 RES1   0.0000
    37 H3        0.2147    2.6647    5.7273   H         1 RES1   0.0000
    38 H4       -2.3051    2.8741    7.4469   H         1 RES1   0.0000
    39 H5       -1.8931    4.0087    6.1678   H         1 RES1   0.0000
    40 H6       -3.4744    2.4364    5.2944   H         1 RES1   0.0000
    41 H7       -1.9073    2.1305    4.5172   H         1 RES1   0.0000
    42 H8       -1.5051    0.2330    6.0468   H         1 RES1   0.0000
    43 H9       -3.0015    0.5799    6.9029   H         1 RES1   0.0000
    44 H10      -2.7918   -0.3364    3.9974   H         1 RES1   0.0000
    45 H11      -3.1362   -1.3303    5.4088   H         1 RES1   0.0000
    46 H12      -5.3420   -0.9679    4.8587   H         1 RES1   0.0000
    47 H13      -5.0812    0.5101    5.7554   H         1 RES1   0.0000
    48 H14      -6.1515    1.2136    3.8301   H         1 RES1   0.0000
    49 H15      -4.4806    1.6060    3.5094   H         1 RES1   0.0000
    50 H16      -6.1582   -0.7363    2.5396   H         1 RES1   0.0000
    51 H17      -5.7405    0.6719    1.5830   H         1 RES1   0.0000
    52 H18      -5.6728   -2.2579    1.2788   H         1 RES1   0.0000
    53 H19      -4.2336   -2.2096    0.2395   H         1 RES1   0.0000
    54 H20      -2.9056   -3.2734    2.0026   H         1 RES1   0.0000
    55 H21      -5.4709   -3.4144    3.6204   H         1 RES1   0.0000
    56 H22      -3.9396   -4.1994    4.0177   H         1 RES1   0.0000
    57 H23      -4.0462   -2.4456    4.0063   H         1 RES1   0.0000
    58 H24      -5.5234   -4.7569    1.5036   H         1 RES1   0.0000
    59 H25      -4.1933   -4.7189    0.3558   H         1 RES1   0.0000
    60 H26      -3.9774   -5.4922    1.9201   H         1 RES1   0.0000
    61 H27      -3.7282    1.7841    1.2469   H         1 RES1   0.0000
    62 H28      -2.6328    1.4348    2.6265   H         1 RES1   0.0000
    63 H29      -2.7776    3.3027    0.2760   H         1 RES1   0.0000
    64 H30      -1.0926    3.5592    0.8300   H         1 RES1   0.0000
    65 H31      -1.3828    3.1856   -3.8677   H         1 RES1   0.0000
    66 H32      -0.9007    4.8844   -3.7522   H         1 RES1   0.0000
    67 H33       1.1497    3.3968   -2.4699   H         1 RES1   0.0000
    68 H34       0.8084    2.5276   -3.9560   H         1 RES1   0.0000
    69 H35       1.2426    5.5286   -4.0674   H         1 RES1   0.0000
    70 H36       2.6078    4.4388   -3.9058   H         1 RES1   0.0000
    71 H37       2.4721    4.9000   -6.1543   H         1 RES1   0.0000
    72 H38       1.8630    3.2629   -6.0090   H         1 RES1   0.0000
    73 H39      -0.1608    5.5046   -6.0302   H         1 RES1   0.0000
    74 H40       0.6908    5.1488   -7.5191   H         1 RES1   0.0000
    75 H41       0.0122    2.7955   -7.4283   H         1 RES1   0.0000
    76 H42      -0.9402    3.0934   -5.9748   H         1 RES1   0.0000
    77 H43      -2.3322    4.7327   -7.2257   H         1 RES1   0.0000
    78 H44      -1.3483    4.4751   -8.6636   H         1 RES1   0.0000
    79 H45      -3.0020    2.3180   -7.2701   H         1 RES1   0.0000
    80 H46      -3.4532    3.1454   -8.7579   H         1 RES1   0.0000
    81 H47      -2.0412    2.0913   -8.7314   H         1 RES1   0.0000
    82 H48      -1.7865    5.2093   -0.3877   H         1 RES1   0.0000
    83 H49      -0.9887    5.9974   -1.7472   H         1 RES1   0.0000
    84 H50      -2.9389    5.6319   -3.1786   H         1 RES1   0.0000
    85 H51      -3.7350    6.8251   -0.4814   H         1 RES1   0.0000
    86 H52      -2.8335    7.6642   -1.7404   H         1 RES1   0.0000
    87 H53      -4.4911    7.1557   -2.0360   H         1 RES1   0.0000
    88 H54      -4.3500    4.3805   -0.7812   H         1 RES1   0.0000
    89 H55      -5.0006    4.6560   -2.3894   H         1 RES1   0.0000
    90 H56      -3.7221    3.4675   -2.1685   H         1 RES1   0.0000
    91 C29      -0.2917   -6.5565    0.3199   C.3       1 RES1   0.0000
    92 C30       0.9915   -6.1090   -0.3800   C.3       1 RES1   0.0000
    93 C31       0.8211   -6.1377   -1.8969   C.3       1 RES1   0.0000
    94 C32       2.1170   -5.9829   -2.6883   C.3       1 RES1   0.0000
    95 C33       2.7533   -4.5836   -2.6514   C.3       1 RES1   0.0000
    96 C34       3.8555   -4.3914   -1.5962   C.3       1 RES1   0.0000
    97 C35       5.0457   -3.5382   -2.0673   C.3       1 RES1   0.0000
    98 C36       4.9617   -2.0148   -1.8286   C.3       1 RES1   0.0000
    99 N3        3.7161   -1.3891   -2.2469   N.am      1 RES1   0.0000
   100 C37       3.2613   -1.6011   -3.6211   C.3       1 RES1   0.0000
   101 C38       3.5647   -0.4119   -4.5491   C.3       1 RES1   0.0000
   102 C39       2.6584    0.7785   -4.2570   C.3       1 RES1   0.0000
   103 C40       5.0292    0.0146   -4.5037   C.3       1 RES1   0.0000
   104 C41       2.9397   -0.6503   -1.4628   C.2       1 RES1   0.0000
   105 O4        1.7385   -0.4466   -1.7381   O.2       1 RES1   0.0000
   106 C42       3.5109    0.0614   -0.2123   C.3       1 RES1   0.0000
   107 O5        2.3891    0.5433    0.5104   O.3       1 RES1   0.0000
   108 C43       2.5661    1.6098    1.4374   C.3       1 RES1   0.0000
   109 C44       1.7945    2.7946    0.8236   C.2       1 RES1   0.0000
   110 O6        1.0863    2.5178   -0.1626   O.2       1 RES1   0.0000
   111 N4        1.9598    4.0265    1.3015   N.am      1 RES1   0.0000
   112 C45       2.1788    4.3401    2.7068   C.3       1 RES1   0.0000
   113 C46       0.8407    4.5250    3.4556   C.3       1 RES1   0.0000
   114 C47       0.0873    5.8184    3.1223   C.3       1 RES1   0.0000
   115 C48      -1.3008    5.9097    3.7657   C.3       1 RES1   0.0000
   116 C49      -2.3322    5.1001    2.9827   C.3       1 RES1   0.0000
   117 C50      -3.7547    5.2432    3.5166   C.3       1 RES1   0.0000
   118 C51      -4.7622    4.5634    2.5904   C.3       1 RES1   0.0000
   119 C52      -6.1694    4.5404    3.1721   C.3       1 RES1   0.0000
   120 C53       1.7010    5.1572    0.4221   C.3       1 RES1   0.0000
   121 C54       2.7861    5.3081   -0.6486   C.3       1 RES1   0.0000
   122 C55       4.1601    5.5671   -0.0392   C.3       1 RES1   0.0000
   123 C56       2.3585    6.4619   -1.5456   C.3       1 RES1   0.0000
   124 H57      -0.1776   -6.5768    1.4025   H         1 RES1   0.0000
   125 H58      -1.1339   -5.9106    0.0719   H         1 RES1   0.0000
   126 H59      -0.5476   -7.5641    0.0040   H         1 RES1   0.0000
   127 H60       1.2860   -5.1017   -0.0691   H         1 RES1   0.0000
   128 H61       1.7982   -6.7874   -0.0988   H         1 RES1   0.0000
   129 H62       0.3660   -7.0900   -2.1740   H         1 RES1   0.0000
   130 H63       0.1337   -5.3464   -2.2122   H         1 RES1   0.0000
   131 H64       2.8407   -6.7296   -2.3604   H         1 RES1   0.0000
   132 H65       1.8786   -6.2083   -3.7289   H         1 RES1   0.0000
   133 H66       3.2048   -4.4376   -3.6328   H         1 RES1   0.0000
   134 H67       1.9672   -3.8338   -2.5294   H         1 RES1   0.0000
   135 H68       3.4514   -3.9697   -0.6717   H         1 RES1   0.0000
   136 H69       4.2546   -5.3787   -1.3593   H         1 RES1   0.0000
   137 H70       5.9343   -3.8650   -1.5202   H         1 RES1   0.0000
   138 H71       5.2434   -3.7477   -3.1185   H         1 RES1   0.0000
   139 H72       5.0784   -1.8448   -0.7595   H         1 RES1   0.0000
   140 H73       5.8060   -1.5494   -2.3460   H         1 RES1   0.0000
   141 H74       3.7570   -2.4824   -4.0108   H         1 RES1   0.0000
   142 H75       2.1809   -1.7616   -3.6067   H         1 RES1   0.0000
   143 H76       3.3428   -0.7659   -5.5618   H         1 RES1   0.0000
   144 H77       2.8630    1.2013   -3.2740   H         1 RES1   0.0000
   145 H78       2.8328    1.5534   -4.9986   H         1 RES1   0.0000
   146 H79       1.6129    0.4734   -4.2933   H         1 RES1   0.0000
   147 H80       5.2751    0.4548   -3.5384   H         1 RES1   0.0000
   148 H81       5.6928   -0.8237   -4.6996   H         1 RES1   0.0000
   149 H82       5.2121    0.7640   -5.2690   H         1 RES1   0.0000
   150 H83       4.0945   -0.6109    0.4281   H         1 RES1   0.0000
   151 H84       4.1578    0.8900   -0.5406   H         1 RES1   0.0000
   152 H85       2.1155    1.3060    2.3928   H         1 RES1   0.0000
   153 H86       3.6239    1.8517    1.5882   H         1 RES1   0.0000
   154 H87       2.7442    3.5365    3.1776   H         1 RES1   0.0000
   155 H88       2.7638    5.2585    2.7763   H         1 RES1   0.0000
   156 H89       0.2140    3.6498    3.2616   H         1 RES1   0.0000
   157 H90       1.0591    4.5383    4.5243   H         1 RES1   0.0000
   158 H91       0.6967    6.6600    3.4577   H         1 RES1   0.0000
   159 H92      -0.0650    5.9047    2.0464   H         1 RES1   0.0000
   160 H93      -1.2644    5.5853    4.8057   H         1 RES1   0.0000
   161 H94      -1.6125    6.9541    3.7529   H         1 RES1   0.0000
   162 H95      -2.3164    5.4483    1.9436   H         1 RES1   0.0000
   163 H96      -2.0553    4.0416    2.9890   H         1 RES1   0.0000
   164 H97      -3.8190    4.8067    4.5140   H         1 RES1   0.0000
   165 H98      -4.0058    6.3003    3.6010   H         1 RES1   0.0000
   166 H99      -4.7764    5.0886    1.6310   H         1 RES1   0.0000
   167 H100     -4.4387    3.5336    2.4012   H         1 RES1   0.0000
   168 H101     -6.5277    5.5510    3.3428   H         1 RES1   0.0000
   169 H102     -6.8583    4.0446    2.4916   H         1 RES1   0.0000
   170 H103     -6.1845    4.0103    4.1213   H         1 RES1   0.0000
   171 H104      0.7304    5.0348   -0.0610   H         1 RES1   0.0000
   172 H105      1.6915    6.0604    1.0241   H         1 RES1   0.0000
   173 H106      2.8247    4.3817   -1.2306   H         1 RES1   0.0000
   174 H107      4.1535    6.4717    0.5646   H         1 RES1   0.0000
   175 H108      4.4864    4.7349    0.5814   H         1 RES1   0.0000
   176 H109      4.8862    5.6962   -0.8365   H         1 RES1   0.0000
   177 H110      2.3163    7.3844   -0.9730   H         1 RES1   0.0000
   178 H111      3.0548    6.5874   -2.3665   H         1 RES1   0.0000
   179 H112      1.3717    6.2669   -1.9550   H         1 RES1   0.0000
   180 C57      -3.2785   -2.5363    8.2921   C.3       1 RES1   0.0000
   181 C58      -2.5095   -3.7881    7.8843   C.3       1 RES1   0.0000
   182 C59      -1.4808   -3.5501    6.7781   C.3       1 RES1   0.0000
   183 C60      -0.3174   -2.6815    7.2440   C.3       1 RES1   0.0000
   184 C61       0.7164   -2.3855    6.1585   C.3       1 RES1   0.0000
   185 C62       1.4057   -3.6363    5.5995   C.3       1 RES1   0.0000
   186 C63       0.6752   -4.2689    4.4011   C.3       1 RES1   0.0000
   187 C64       1.5699   -4.4284    3.1671   C.3       1 RES1   0.0000
   188 N5        1.9325   -3.1392    2.5746   N.am      1 RES1   0.0000
   189 C65       3.3680   -2.8256    2.5934   C.3       1 RES1   0.0000
   190 C66       3.8580   -1.4391    3.0186   C.3       1 RES1   0.0000
   191 C67       3.6370   -1.1591    4.4988   C.3       1 RES1   0.0000
   192 C68       5.3605   -1.3792    2.7287   C.3       1 RES1   0.0000
   193 C69       1.0440   -2.4190    1.8933   C.2       1 RES1   0.0000
   194 O7        1.1661   -1.2174    1.5908   O.2       1 RES1   0.0000
   195 C70      -0.2198   -3.0742    1.3326   C.3       1 RES1   0.0000
   196 O8       -0.2849   -2.5800   -0.0137   O.3       1 RES1   0.0000
   197 C71      -1.3509   -3.1708   -0.7536   C.3       1 RES1   0.0000
   198 C72      -1.7980   -2.1700   -1.8277   C.2       1 RES1   0.0000
   199 O9       -1.0625   -1.1859   -2.0574   O.2       1 RES1   0.0000
   200 N6       -2.9236   -2.3727   -2.4950   N.am      1 RES1   0.0000
   201 C73      -3.2477   -1.4889   -3.6157   C.3       1 RES1   0.0000
   202 C74      -3.7465   -0.0841   -3.2314   C.3       1 RES1   0.0000
   203 C75      -5.0394    0.3351   -3.9568   C.3       1 RES1   0.0000
   204 C76      -4.9426    0.6813   -5.4519   C.3       1 RES1   0.0000
   205 C77      -4.7123   -0.4933   -6.4170   C.3       1 RES1   0.0000
   206 C78      -3.2475   -0.6603   -6.8350   C.3       1 RES1   0.0000
   207 C79      -2.8964   -2.0896   -7.2397   C.3       1 RES1   0.0000
   208 C80      -1.4043   -2.2415   -7.5133   C.3       1 RES1   0.0000
   209 C81      -3.8768   -3.4443   -2.2553   C.3       1 RES1   0.0000
   210 C82      -3.9706   -4.5228   -3.3492   C.3       1 RES1   0.0000
   211 C83      -5.1021   -5.4729   -2.9627   C.3       1 RES1   0.0000
   212 C84      -2.6577   -5.2786   -3.5157   C.3       1 RES1   0.0000
   213 H113     -3.9865   -2.7789    9.0797   H         1 RES1   0.0000
   214 H114     -2.6105   -1.7662    8.6698   H         1 RES1   0.0000
   215 H115     -3.8370   -2.1329    7.4486   H         1 RES1   0.0000
   216 H116     -1.9964   -4.1984    8.7554   H         1 RES1   0.0000
   217 H117     -3.2226   -4.5385    7.5380   H         1 RES1   0.0000
   218 H118     -1.0948   -4.5189    6.4575   H         1 RES1   0.0000
   219 H119     -1.9676   -3.0822    5.9172   H         1 RES1   0.0000
   220 H120     -0.6938   -1.7284    7.6196   H         1 RES1   0.0000
   221 H121      0.1829   -3.1847    8.0720   H         1 RES1   0.0000
   222 H122      0.2514   -1.8208    5.3418   H         1 RES1   0.0000
   223 H123      1.4743   -1.7394    6.6053   H         1 RES1   0.0000
   224 H124      2.4145   -3.3700    5.2912   H         1 RES1   0.0000
   225 H125      1.5046   -4.3689    6.4003   H         1 RES1   0.0000
   226 H126     -0.1905   -3.6613    4.1333   H         1 RES1   0.0000
   227 H127      0.3213   -5.2660    4.6623   H         1 RES1   0.0000
   228 H128      2.4824   -4.9437    3.4615   H         1 RES1   0.0000
   229 H129      1.0864   -5.0747    2.4325   H         1 RES1   0.0000
   230 H130      3.8447   -3.5455    3.2569   H         1 RES1   0.0000
   231 H131      3.7299   -3.0215    1.5765   H         1 RES1   0.0000
   232 H132      3.3251   -0.6854    2.4411   H         1 RES1   0.0000
   233 H133      4.1181   -1.9206    5.1078   H         1 RES1   0.0000
   234 H134      4.0798   -0.2018    4.7580   H         1 RES1   0.0000
   235 H135      2.5803   -1.1191    4.7364   H         1 RES1   0.0000
   236 H136      5.8829   -2.1050    3.3476   H         1 RES1   0.0000
   237 H137      5.6011   -1.6003    1.6898   H         1 RES1   0.0000
   238 H138      5.7496   -0.3924    2.9628   H         1 RES1   0.0000
   239 H139     -0.1986   -4.1635    1.3315   H         1 RES1   0.0000
   240 H140     -1.0939   -2.7162    1.8921   H         1 RES1   0.0000
   241 H141     -2.1636   -3.4167   -0.0658   H         1 RES1   0.0000
   242 H142     -0.9893   -4.0898   -1.2408   H         1 RES1   0.0000
   243 H143     -2.3555   -1.4169   -4.2385   H         1 RES1   0.0000
   244 H144     -4.0332   -1.9898   -4.1726   H         1 RES1   0.0000
   245 H145     -3.9467   -0.0624   -2.1543   H         1 RES1   0.0000
   246 H146     -2.9681    0.6545   -3.4304   H         1 RES1   0.0000
   247 H147     -5.7960   -0.4420   -3.8220   H         1 RES1   0.0000
   248 H148     -5.4136    1.2346   -3.4568   H         1 RES1   0.0000
   249 H149     -5.8888    1.1600   -5.7162   H         1 RES1   0.0000
   250 H150     -4.1626    1.4322   -5.5952   H         1 RES1   0.0000
   251 H151     -5.0965   -1.4140   -5.9716   H         1 RES1   0.0000
   252 H152     -5.3043   -0.3229   -7.3162   H         1 RES1   0.0000
   253 H153     -3.0493   -0.0015   -7.6803   H         1 RES1   0.0000
   254 H154     -2.5894   -0.3475   -6.0211   H         1 RES1   0.0000
   255 H155     -3.1809   -2.7813   -6.4420   H         1 RES1   0.0000
   256 H156     -3.4627   -2.3661   -8.1295   H         1 RES1   0.0000
   257 H157     -0.8220   -1.9841   -6.6281   H         1 RES1   0.0000
   258 H158     -1.1684   -3.2653   -7.7913   H         1 RES1   0.0000
   259 H159     -1.0912   -1.5880   -8.3231   H         1 RES1   0.0000
   260 H160     -3.6254   -3.9429   -1.3230   H         1 RES1   0.0000
   261 H161     -4.8614   -2.9788   -2.1439   H         1 RES1   0.0000
   262 H162     -4.2263   -4.0564   -4.3045   H         1 RES1   0.0000
   263 H163     -4.8888   -5.9720   -2.0205   H         1 RES1   0.0000
   264 H164     -6.0433   -4.9401   -2.8579   H         1 RES1   0.0000
   265 H165     -5.2278   -6.2318   -3.7268   H         1 RES1   0.0000
   266 H166     -2.3902   -5.7982   -2.5981   H         1 RES1   0.0000
   267 H167     -2.7668   -6.0224   -4.2988   H         1 RES1   0.0000
   268 H168     -1.8508   -4.6064   -3.7994   H         1 RES1   0.0000
@<TRIPOS>BOND
     1     1    16    1
     2     1    18    1
     3     1    21    1
     4     1   105    1
     5     1   107    1
     6     1   110    1
     7     1   194    1
     8     1   196    1
     9     1   199    1
    10     2     3    1
    11     2    35    1
    12     2    36    1
    13     2    37    1
    14     3     4    1
    15     3    38    1
    16     3    39    1
    17     4     5    1
    18     4    40    1
    19     4    41    1
    20     5     6    1
    21     5    42    1
    22     5    43    1
    23     6     7    1
    24     6    44    1
    25     6    45    1
    26     7     8    1
    27     7    46    1
    28     7    47    1
    29     8     9    1
    30     8    48    1
    31     8    49    1
    32     9    10    1
    33     9    50    1
    34     9    51    1
    35    10    11    1
    36    10    15    1
    37    11    12    1
    38    11    52    1
    39    11    53    1
    40    12    13    1
    41    12    14    1
    42    12    54    1
    43    13    55    1
    44    13    56    1
    45    13    57    1
    46    14    58    1
    47    14    59    1
    48    14    60    1
    49    15    16    2
    50    15    17    1
    51    17    18    1
    52    17    61    1
    53    17    62    1
    54    18    19    1
    55    19    20    1
    56    19    63    1
    57    19    64    1
    58    20    21    2
    59    20    22    1
    60    22    23    1
    61    22    31    1
    62    23    24    1
    63    23    65    1
    64    23    66    1
    65    24    25    1
    66    24    67    1
    67    24    68    1
    68    25    26    1
    69    25    69    1
    70    25    70    1
    71    26    27    1
    72    26    71    1
    73    26    72    1
    74    27    28    1
    75    27    73    1
    76    27    74    1
    77    28    29    1
    78    28    75    1
    79    28    76    1
    80    29    30    1
    81    29    77    1
    82    29    78    1
    83    30    79    1
    84    30    80    1
    85    30    81    1
    86    31    32    1
    87    31    82    1
    88    31    83    1
    89    32    33    1
    90    32    34    1
    91    32    84    1
    92    33    85    1
    93    33    86    1
    94    33    87    1
    95    34    88    1
    96    34    89    1
    97    34    90    1
    98    91    92    1
    99    91   124    1
   100    91   125    1
   101    91   126    1
   102    92    93    1
   103    92   127    1
   104    92   128    1
   105    93    94    1
   106    93   129    1
   107    93   130    1
   108    94    95    1
   109    94   131    1
   110    94   132    1
   111    95    96    1
   112    95   133    1
   113    95   134    1
   114    96    97    1
   115    96   135    1
   116    96   136    1
   117    97    98    1
   118    97   137    1
   119    97   138    1
   120    98    99    1
   121    98   139    1
   122    98   140    1
   123    99   100    1
   124    99   104    1
   125   100   101    1
   126   100   141    1
   127   100   142    1
   128   101   102    1
   129   101   103    1
   130   101   143    1
   131   102   144    1
   132   102   145    1
   133   102   146    1
   134   103   147    1
   135   103   148    1
   136   103   149    1
   137   104   105    2
   138   104   106    1
   139   106   107    1
   140   106   150    1
   141   106   151    1
   142   107   108    1
   143   108   109    1
   144   108   152    1
   145   108   153    1
   146   109   110    2
   147   109   111    1
   148   111   112    1
   149   111   120    1
   150   112   113    1
   151   112   154    1
   152   112   155    1
   153   113   114    1
   154   113   156    1
   155   113   157    1
   156   114   115    1
   157   114   158    1
   158   114   159    1
   159   115   116    1
   160   115   160    1
   161   115   161    1
   162   116   117    1
   163   116   162    1
   164   116   163    1
   165   117   118    1
   166   117   164    1
   167   117   165    1
   168   118   119    1
   169   118   166    1
   170   118   167    1
   171   119   168    1
   172   119   169    1
   173   119   170    1
   174   120   121    1
   175   120   171    1
   176   120   172    1
   177   121   122    1
   178   121   123    1
   179   121   173    1
   180   122   174    1
   181   122   175    1
   182   122   176    1
   183   123   177    1
   184   123   178    1
   185   123   179    1
   186   180   181    1
   187   180   213    1
   188   180   214    1
   189   180   215    1
   190   181   182    1
   191   181   216    1
   192   181   217    1
   193   182   183    1
   194   182   218    1
   195   182   219    1
   196   183   184    1
   197   183   220    1
   198   183   221    1
   199   184   185    1
   200   184   222    1
   201   184   223    1
   202   185   186    1
   203   185   224    1
   204   185   225    1
   205   186   187    1
   206   186   226    1
   207   186   227    1
   208   187   188    1
   209   187   228    1
   210   187   229    1
   211   188   189    1
   212   188   193    1
   213   189   190    1
   214   189   230    1
   215   189   231    1
   216   190   191    1
   217   190   192    1
   218   190   232    1
   219   191   233    1
   220   191   234    1
   221   191   235    1
   222   192   236    1
   223   192   237    1
   224   192   238    1
   225   193   194    2
   226   193   195    1
   227   195   196    1
   228   195   239    1
   229   195   240    1
   230   196   197    1
   231   197   198    1
   232   197   241    1
   233   197   242    1
   234   198   199    2
   235   198   200    1
   236   200   201    1
   237   200   209    1
   238   201   202    1
   239   201   243    1
   240   201   244    1
   241   202   203    1
   242   202   245    1
   243   202   246    1
   244   203   204    1
   245   203   247    1
   246   203   248    1
   247   204   205    1
   248   204   249    1
   249   204   250    1
   250   205   206    1
   251   205   251    1
   252   205   252    1
   253   206   207    1
   254   206   253    1
   255   206   254    1
   256   207   208    1
   257   207   255    1
   258   207   256    1
   259   208   257    1
   260   208   258    1
   261   208   259    1
   262   209   210    1
   263   209   260    1
   264   209   261    1
   265   210   211    1
   266   210   212    1
   267   210   262    1
   268   211   263    1
   269   211   264    1
   270   211   265    1
   271   212   266    1
   272   212   267    1
   273   212   268    1
@<TRIPOS>SUBSTRUCTURE
     1 RES1      268 GROUP             0 ****  ****    0  
