@<TRIPOS>MOLECULE
am_c3_9H2O_c0_0_nunpairedes_0_charge_3 Charge: 3 Unpaired_Electrons: 5 XTB_Unpaired_Electrons: 0 XTB_Charge: 3
   104   119     1     0     0
SMALL
NoCharges
****
Generated from Architector

@<TRIPOS>ATOM
     1 Sm1       0.0401   -0.0613    0.0245   Sm        1 RES1   0.0000
     2 O1        0.8876   -2.1201    0.5902   O.2       1 RES1   0.0000
     3 C1        1.6649   -2.2940    1.5586   C.2       1 RES1   0.0000
     4 C2        2.3865   -1.0707    2.0808   C.ar      1 RES1   0.0000
     5 C3        3.3747   -1.0167    3.0675   C.ar      1 RES1   0.0000
     6 C4        3.9363    0.2088    3.3997   C.ar      1 RES1   0.0000
     7 Cl1       5.1336    0.2725    4.6071   Cl        1 RES1   0.0000
     8 C5        3.5066    1.3920    2.7440   C.ar      1 RES1   0.0000
     9 C6        4.0231    2.6936    2.9962   C.ar      1 RES1   0.0000
    10 C7        3.5671    3.7800    2.3172   C.ar      1 RES1   0.0000
    11 C8        2.5328    3.6697    1.3462   C.ar      1 RES1   0.0000
    12 C9        2.0032    4.7594    0.6051   C.ar      1 RES1   0.0000
    13 Cl2       2.6133    6.3405    0.8032   Cl        1 RES1   0.0000
    14 C10       0.9644    4.5409   -0.2921   C.ar      1 RES1   0.0000
    15 C11       0.4258    3.2583   -0.4229   C.ar      1 RES1   0.0000
    16 C12      -0.7351    2.8320   -1.2819   C.2       1 RES1   0.0000
    17 O2       -0.9592    1.5944   -1.3441   O.2       1 RES1   0.0000
    18 N1       -1.5264    3.6507   -1.9583   N.am      1 RES1   0.0000
    19 C13      -2.5801    3.0279   -2.7669   C.3       1 RES1   0.0000
    20 C14      -3.1530    4.1688   -3.5937   C.3       1 RES1   0.0000
    21 C15      -2.9878    5.3625   -2.6580   C.3       1 RES1   0.0000
    22 C16      -1.6209    5.1056   -2.0179   C.3       1 RES1   0.0000
    23 N2        0.9349    2.2219    0.2472   N.ar      1 RES1   0.0000
    24 C17       1.9650    2.3983    1.0866   C.ar      1 RES1   0.0000
    25 C18       2.4878    1.2316    1.7765   C.ar      1 RES1   0.0000
    26 N3        1.9667    0.0363    1.4675   N.ar      1 RES1   0.0000
    27 N4        1.7921   -3.5173    2.0567   N.am      1 RES1   0.0000
    28 C19       2.6097   -4.0539    3.1370   C.3       1 RES1   0.0000
    29 C20       2.1596   -5.5108    3.2742   C.3       1 RES1   0.0000
    30 C21       1.7013   -5.8656    1.8609   C.3       1 RES1   0.0000
    31 C22       1.0144   -4.5842    1.4176   C.3       1 RES1   0.0000
    32 H1        3.7275   -1.8924    3.5830   H         1 RES1   0.0000
    33 H2        4.8007    2.8040    3.7346   H         1 RES1   0.0000
    34 H3        3.9794    4.7559    2.5135   H         1 RES1   0.0000
    35 H4        0.6035    5.3738   -0.8670   H         1 RES1   0.0000
    36 H5       -3.3242    2.5768   -2.1014   H         1 RES1   0.0000
    37 H6       -2.1502    2.2277   -3.3712   H         1 RES1   0.0000
    38 H7       -4.1872    4.0033   -3.8819   H         1 RES1   0.0000
    39 H8       -2.5628    4.3095   -4.4989   H         1 RES1   0.0000
    40 H9       -3.7591    5.3564   -1.8882   H         1 RES1   0.0000
    41 H10      -3.0368    6.3178   -3.1749   H         1 RES1   0.0000
    42 H11      -1.5547    5.5455   -1.0235   H         1 RES1   0.0000
    43 H12      -0.8248    5.5161   -2.6462   H         1 RES1   0.0000
    44 H13       2.4524   -3.5082    4.0667   H         1 RES1   0.0000
    45 H14       3.6664   -4.0101    2.8662   H         1 RES1   0.0000
    46 H15       1.3232   -5.5787    3.9707   H         1 RES1   0.0000
    47 H16       2.9570   -6.1613    3.6274   H         1 RES1   0.0000
    48 H17       1.0390   -6.7297    1.8371   H         1 RES1   0.0000
    49 H18       2.5625   -6.0605    1.2199   H         1 RES1   0.0000
    50 H19      -0.0180   -4.5260    1.7772   H         1 RES1   0.0000
    51 H20       1.0036   -4.4456    0.3356   H         1 RES1   0.0000
    52 O3       -0.7265   -0.4593    2.2344   O.2       1 RES1   0.0000
    53 C23      -1.8888   -0.8429    2.5188   C.2       1 RES1   0.0000
    54 C24      -2.7805   -1.2242    1.3590   C.ar      1 RES1   0.0000
    55 C25      -4.1336   -1.5746    1.4102   C.ar      1 RES1   0.0000
    56 C26      -4.8196   -1.8267    0.2294   C.ar      1 RES1   0.0000
    57 Cl3      -6.4784   -2.2187    0.2947   Cl        1 RES1   0.0000
    58 C27      -4.1383   -1.7338   -1.0115   C.ar      1 RES1   0.0000
    59 C28      -4.7617   -1.8869   -2.2794   C.ar      1 RES1   0.0000
    60 C29      -4.0671   -1.7233   -3.4348   C.ar      1 RES1   0.0000
    61 C30      -2.6804   -1.4153   -3.4282   C.ar      1 RES1   0.0000
    62 C31      -1.9150   -1.1700   -4.5968   C.ar      1 RES1   0.0000
    63 Cl4      -2.6005   -1.3105   -6.1533   Cl        1 RES1   0.0000
    64 C32      -0.5912   -0.7744   -4.4696   C.ar      1 RES1   0.0000
    65 C33      -0.0063   -0.7127   -3.2006   C.ar      1 RES1   0.0000
    66 C34       1.3793   -0.2084   -2.8729   C.2       1 RES1   0.0000
    67 O4        1.6323   -0.0013   -1.6608   O.2       1 RES1   0.0000
    68 N5        2.3005    0.1008   -3.7791   N.am      1 RES1   0.0000
    69 C35       3.5279    0.7353   -3.2838   C.3       1 RES1   0.0000
    70 C36       4.2875    1.1376   -4.5395   C.3       1 RES1   0.0000
    71 C37       3.8750    0.0511   -5.5273   C.3       1 RES1   0.0000
    72 C38       2.3882   -0.1354   -5.2160   C.3       1 RES1   0.0000
    73 N6       -0.7032   -0.9965   -2.1001   N.ar      1 RES1   0.0000
    74 C39      -2.0073   -1.2893   -2.1898   C.ar      1 RES1   0.0000
    75 C40      -2.7606   -1.4132   -0.9556   C.ar      1 RES1   0.0000
    76 N7       -2.1263   -1.1503    0.1975   N.ar      1 RES1   0.0000
    77 N8       -2.2500   -0.8434    3.7977   N.am      1 RES1   0.0000
    78 C41      -3.4696   -1.2647    4.4811   C.3       1 RES1   0.0000
    79 C42      -3.1190   -1.1842    5.9718   C.3       1 RES1   0.0000
    80 C43      -2.0774   -0.0704    6.0195   C.3       1 RES1   0.0000
    81 C44      -1.2628   -0.3515    4.7667   C.3       1 RES1   0.0000
    82 H21      -4.6776   -1.6448    2.3361   H         1 RES1   0.0000
    83 H22      -5.8164   -2.1010   -2.3087   H         1 RES1   0.0000
    84 H23      -4.5666   -1.7979   -4.3854   H         1 RES1   0.0000
    85 H24      -0.0484   -0.5120   -5.3601   H         1 RES1   0.0000
    86 H25       4.0848    0.0167   -2.6756   H         1 RES1   0.0000
    87 H26       3.2659    1.5794   -2.6422   H         1 RES1   0.0000
    88 H27       5.3622    1.1700   -4.3857   H         1 RES1   0.0000
    89 H28       3.9568    2.1173   -4.8857   H         1 RES1   0.0000
    90 H29       4.4109   -0.8757   -5.3230   H         1 RES1   0.0000
    91 H30       4.0530    0.3269   -6.5639   H         1 RES1   0.0000
    92 H31       2.0413   -1.1348   -5.4772   H         1 RES1   0.0000
    93 H32       1.7967    0.6102   -5.7582   H         1 RES1   0.0000
    94 H33      -3.7525   -2.2775    4.1939   H         1 RES1   0.0000
    95 H34      -4.2927   -0.5825    4.2473   H         1 RES1   0.0000
    96 H35      -2.6805   -2.1259    6.3015   H         1 RES1   0.0000
    97 H36      -3.9890   -0.9832    6.5929   H         1 RES1   0.0000
    98 H37      -1.4772   -0.0967    6.9247   H         1 RES1   0.0000
    99 H38      -2.5559    0.9075    5.9491   H         1 RES1   0.0000
   100 H39      -0.5057   -1.1247    4.9339   H         1 RES1   0.0000
   101 H40      -0.7563    0.5279    4.3648   H         1 RES1   0.0000
   102 O5       -1.6830    1.8752    1.3971   O.3       1 RES1   0.0000
   103 H41      -1.3782    2.1714    2.2654   H         1 RES1   0.0000
   104 H42      -2.6475    1.9322    1.4236   H         1 RES1   0.0000
@<TRIPOS>BOND
     1     1     2    1
     2     1    17    1
     3     1    23    1
     4     1    26    1
     5     1    52    1
     6     1    67    1
     7     1    73    1
     8     1    76    1
     9     1   102    1
    10     2     3    2
    11     3     4    1
    12     3    27    1
    13     4     5    1
    14     4    26    2
    15     5     6    2
    16     5    32    1
    17     6     7    1
    18     6     8    1
    19     8     9    1
    20     8    25    2
    21     9    10    2
    22     9    33    1
    23    10    11    1
    24    10    34    1
    25    11    12    1
    26    11    24    2
    27    12    13    1
    28    12    14    2
    29    14    15    1
    30    14    35    1
    31    15    16    1
    32    15    23    2
    33    16    17    2
    34    16    18    1
    35    18    19    1
    36    18    22    1
    37    19    20    1
    38    19    36    1
    39    19    37    1
    40    20    21    1
    41    20    38    1
    42    20    39    1
    43    21    22    1
    44    21    40    1
    45    21    41    1
    46    22    42    1
    47    22    43    1
    48    23    24    1
    49    24    25    1
    50    25    26    1
    51    27    28    1
    52    27    31    1
    53    28    29    1
    54    28    44    1
    55    28    45    1
    56    29    30    1
    57    29    46    1
    58    29    47    1
    59    30    31    1
    60    30    48    1
    61    30    49    1
    62    31    50    1
    63    31    51    1
    64    52    53    2
    65    53    54    1
    66    53    77    1
    67    54    55    1
    68    54    76    2
    69    55    56    2
    70    55    82    1
    71    56    57    1
    72    56    58    1
    73    58    59    1
    74    58    75    2
    75    59    60    2
    76    59    83    1
    77    60    61    1
    78    60    84    1
    79    61    62    1
    80    61    74    2
    81    62    63    1
    82    62    64    2
    83    64    65    1
    84    64    85    1
    85    65    66    1
    86    65    73    2
    87    66    67    2
    88    66    68    1
    89    68    69    1
    90    68    72    1
    91    69    70    1
    92    69    86    1
    93    69    87    1
    94    70    71    1
    95    70    88    1
    96    70    89    1
    97    71    72    1
    98    71    90    1
    99    71    91    1
   100    72    92    1
   101    72    93    1
   102    73    74    1
   103    74    75    1
   104    75    76    1
   105    77    78    1
   106    77    81    1
   107    78    79    1
   108    78    94    1
   109    78    95    1
   110    79    80    1
   111    79    96    1
   112    79    97    1
   113    80    81    1
   114    80    98    1
   115    80    99    1
   116    81   100    1
   117    81   101    1
   118   102   103    1
   119   102   104    1
@<TRIPOS>SUBSTRUCTURE
     1 RES1      104 GROUP             0 ****  ****    0  
