@<TRIPOS>MOLECULE
am_c3_9H2O_c0_0_nunpairedes_0_charge_3 Charge: 3 Unpaired_Electrons: 5 XTB_Unpaired_Electrons: 0 XTB_Charge: 3
   284   291     1     0     0
SMALL
NoCharges
****
Generated from Architector

@<TRIPOS>ATOM
     1 Sm1       0.0059    0.0010   -0.0467   Sm        1 RES1   0.0000
     2 C1       -0.6440    7.8967   -2.7836   C.3       1 RES1   0.0000
     3 C2        0.8152    8.1472   -3.1467   C.3       1 RES1   0.0000
     4 C3        1.7512    6.9686   -2.8768   C.3       1 RES1   0.0000
     5 C4        1.8309    6.5546   -1.4045   C.3       1 RES1   0.0000
     6 C5        2.8691    5.4429   -1.1971   C.3       1 RES1   0.0000
     7 C6        4.2724    5.9618   -0.8229   C.3       1 RES1   0.0000
     8 C7        4.8993    6.8974   -1.8544   C.3       1 RES1   0.0000
     9 C8        2.4308    4.4628   -0.1084   C.3       1 RES1   0.0000
    10 P1        0.8324    3.5849   -0.2812   P.3       1 RES1   0.0000
    11 O1        0.9466    2.2287    0.3452   O.2       1 RES1   0.0000
    12 C9        0.6014    3.2576   -2.0916   C.3       1 RES1   0.0000
    13 C10      -0.7224    2.6101   -2.3890   C.2       1 RES1   0.0000
    14 O2       -0.9975    1.5424   -1.8047   O.2       1 RES1   0.0000
    15 N1       -1.5321    3.1474   -3.3107   N.am      1 RES1   0.0000
    16 C11      -1.3745    4.4801   -3.8684   C.3       1 RES1   0.0000
    17 C12      -1.0083    4.4783   -5.3615   C.3       1 RES1   0.0000
    18 C13       0.3553    3.8352   -5.6081   C.3       1 RES1   0.0000
    19 C14      -1.0397    5.9002   -5.9074   C.3       1 RES1   0.0000
    20 C15      -2.7750    2.4630   -3.6569   C.3       1 RES1   0.0000
    21 C16      -2.7100    1.3429   -4.7293   C.3       1 RES1   0.0000
    22 C17      -2.9063    1.7563   -6.1915   C.3       1 RES1   0.0000
    23 C18      -1.4256    0.5313   -4.6298   C.3       1 RES1   0.0000
    24 C19      -0.5186    4.5483    0.4642   C.ar      1 RES1   0.0000
    25 C20      -0.2586    5.6834    1.2206   C.ar      1 RES1   0.0000
    26 C21      -1.2919    6.3678    1.8339   C.ar      1 RES1   0.0000
    27 C22      -2.5940    5.9125    1.7102   C.ar      1 RES1   0.0000
    28 C23      -2.8557    4.7659    0.9768   C.ar      1 RES1   0.0000
    29 C24      -1.8250    4.0880    0.3483   C.ar      1 RES1   0.0000
    30 H1       -1.2268    8.7870   -2.9998   H         1 RES1   0.0000
    31 H2       -0.7535    7.6606   -1.7286   H         1 RES1   0.0000
    32 H3       -1.0538    7.0780   -3.3664   H         1 RES1   0.0000
    33 H4        1.1863    9.0156   -2.6005   H         1 RES1   0.0000
    34 H5        0.8744    8.3789   -4.2122   H         1 RES1   0.0000
    35 H6        2.7484    7.2482   -3.2173   H         1 RES1   0.0000
    36 H7        1.4362    6.1079   -3.4798   H         1 RES1   0.0000
    37 H8        0.8522    6.1906   -1.0767   H         1 RES1   0.0000
    38 H9        2.0759    7.4250   -0.7926   H         1 RES1   0.0000
    39 H10       2.9604    4.9064   -2.1416   H         1 RES1   0.0000
    40 H11       4.9258    5.0922   -0.6975   H         1 RES1   0.0000
    41 H12       4.2293    6.4748    0.1420   H         1 RES1   0.0000
    42 H13       4.8559    6.4634   -2.8513   H         1 RES1   0.0000
    43 H14       5.9451    7.0691   -1.6119   H         1 RES1   0.0000
    44 H15       4.3982    7.8608   -1.8636   H         1 RES1   0.0000
    45 H16       2.4259    4.9826    0.8499   H         1 RES1   0.0000
    46 H17       3.1518    3.6510   -0.0227   H         1 RES1   0.0000
    47 H18       1.3427    2.4532   -2.1845   H         1 RES1   0.0000
    48 H19       0.8538    4.1062   -2.7130   H         1 RES1   0.0000
    49 H20      -0.6419    5.0462   -3.2965   H         1 RES1   0.0000
    50 H21      -2.3365    4.9863   -3.7426   H         1 RES1   0.0000
    51 H22      -1.7757    3.9109   -5.8870   H         1 RES1   0.0000
    52 H23       1.1498    4.4345   -5.1674   H         1 RES1   0.0000
    53 H24       0.5463    3.7816   -6.6764   H         1 RES1   0.0000
    54 H25       0.3990    2.8294   -5.1917   H         1 RES1   0.0000
    55 H26      -0.2554    6.5011   -5.4595   H         1 RES1   0.0000
    56 H27      -2.0035    6.3636   -5.7163   H         1 RES1   0.0000
    57 H28      -0.8851    5.8877   -6.9806   H         1 RES1   0.0000
    58 H29      -3.4994    3.2042   -3.9912   H         1 RES1   0.0000
    59 H30      -3.1463    2.0186   -2.7265   H         1 RES1   0.0000
    60 H31      -3.5559    0.6888   -4.4880   H         1 RES1   0.0000
    61 H32      -2.0015    2.1795   -6.6135   H         1 RES1   0.0000
    62 H33      -3.7220    2.4609   -6.2997   H         1 RES1   0.0000
    63 H34      -3.1511    0.8858   -6.7973   H         1 RES1   0.0000
    64 H35      -0.5973    1.0582   -5.0997   H         1 RES1   0.0000
    65 H36      -1.5629   -0.4016   -5.1655   H         1 RES1   0.0000
    66 H37      -1.1500    0.3177   -3.5998   H         1 RES1   0.0000
    67 H38       0.7487    6.0467    1.3353   H         1 RES1   0.0000
    68 H39      -1.0770    7.2493    2.4169   H         1 RES1   0.0000
    69 H40      -3.4021    6.4464    2.1871   H         1 RES1   0.0000
    70 H41      -3.8688    4.3982    0.9091   H         1 RES1   0.0000
    71 H42      -2.0131    3.1792   -0.2035   H         1 RES1   0.0000
    72 C25       0.8636   -1.5449    8.4102   C.3       1 RES1   0.0000
    73 C26       0.6790   -3.0570    8.4769   C.3       1 RES1   0.0000
    74 C27       0.6699   -3.7395    7.1088   C.3       1 RES1   0.0000
    75 C28      -0.4877   -3.2965    6.2111   C.3       1 RES1   0.0000
    76 C29      -0.4340   -3.9592    4.8301   C.3       1 RES1   0.0000
    77 C30      -1.1327   -5.3331    4.7589   C.3       1 RES1   0.0000
    78 C31      -0.4372   -6.4586    5.5190   C.3       1 RES1   0.0000
    79 C32      -1.1219   -3.0745    3.7926   C.3       1 RES1   0.0000
    80 P2       -0.4872   -1.4176    3.3932   P.3       1 RES1   0.0000
    81 O3       -0.8579   -1.0724    1.9850   O.2       1 RES1   0.0000
    82 C33       1.3475   -1.5634    3.4744   C.3       1 RES1   0.0000
    83 C34       1.9905   -0.3117    2.9300   C.2       1 RES1   0.0000
    84 O4        1.5468    0.1646    1.8734   O.2       1 RES1   0.0000
    85 N2        3.0163    0.2558    3.5804   N.am      1 RES1   0.0000
    86 C35       3.4186   -0.1441    4.9257   C.3       1 RES1   0.0000
    87 C36       4.5219   -1.2155    5.0269   C.3       1 RES1   0.0000
    88 C37       4.0958   -2.5963    4.5352   C.3       1 RES1   0.0000
    89 C38       4.9334   -1.3126    6.4912   C.3       1 RES1   0.0000
    90 C39       3.5073    1.5390    3.0669   C.3       1 RES1   0.0000
    91 C40       4.6243    1.5532    1.9987   C.3       1 RES1   0.0000
    92 C41       5.9474    0.9474    2.4628   C.3       1 RES1   0.0000
    93 C42       4.1791    0.9157    0.6858   C.3       1 RES1   0.0000
    94 C43      -1.1509   -0.1638    4.5295   C.ar      1 RES1   0.0000
    95 C44      -2.3119   -0.4259    5.2428   C.ar      1 RES1   0.0000
    96 C45      -2.8685    0.5451    6.0540   C.ar      1 RES1   0.0000
    97 C46      -2.2843    1.7986    6.1347   C.ar      1 RES1   0.0000
    98 C47      -1.1394    2.0765    5.4044   C.ar      1 RES1   0.0000
    99 C48      -0.5667    1.0945    4.6129   C.ar      1 RES1   0.0000
   100 H43       0.9855   -1.1515    9.4145   H         1 RES1   0.0000
   101 H44       0.0004   -1.0599    7.9585   H         1 RES1   0.0000
   102 H45       1.7530   -1.2897    7.8348   H         1 RES1   0.0000
   103 H46      -0.2552   -3.2875    8.9932   H         1 RES1   0.0000
   104 H47       1.4967   -3.4919    9.0560   H         1 RES1   0.0000
   105 H48       0.6029   -4.8155    7.2695   H         1 RES1   0.0000
   106 H49       1.6211   -3.5403    6.5991   H         1 RES1   0.0000
   107 H50      -0.4387   -2.2101    6.0735   H         1 RES1   0.0000
   108 H51      -1.4389   -3.5252    6.6987   H         1 RES1   0.0000
   109 H52       0.6234   -4.1007    4.5745   H         1 RES1   0.0000
   110 H53      -1.1838   -5.6235    3.7050   H         1 RES1   0.0000
   111 H54      -2.1595   -5.2309    5.1211   H         1 RES1   0.0000
   112 H55       0.6284   -6.4698    5.2974   H         1 RES1   0.0000
   113 H56      -0.8552   -7.4168    5.2180   H         1 RES1   0.0000
   114 H57      -0.5787   -6.3559    6.5904   H         1 RES1   0.0000
   115 H58      -2.1704   -2.9711    4.0687   H         1 RES1   0.0000
   116 H59      -1.0975   -3.5527    2.8182   H         1 RES1   0.0000
   117 H60       1.4936   -2.3457    2.7199   H         1 RES1   0.0000
   118 H61       1.6910   -1.8927    4.4464   H         1 RES1   0.0000
   119 H62       2.5342   -0.4657    5.4850   H         1 RES1   0.0000
   120 H63       3.7896    0.7540    5.4250   H         1 RES1   0.0000
   121 H64       5.3785   -0.8841    4.4342   H         1 RES1   0.0000
   122 H65       3.3089   -3.0005    5.1712   H         1 RES1   0.0000
   123 H66       4.9388   -3.2798    4.6028   H         1 RES1   0.0000
   124 H67       3.7599   -2.5580    3.5031   H         1 RES1   0.0000
   125 H68       4.0843   -1.6289    7.0917   H         1 RES1   0.0000
   126 H69       5.2936   -0.3585    6.8615   H         1 RES1   0.0000
   127 H70       5.7237   -2.0443    6.6095   H         1 RES1   0.0000
   128 H71       3.8642    2.1158    3.9216   H         1 RES1   0.0000
   129 H72       2.6446    2.0514    2.6216   H         1 RES1   0.0000
   130 H73       4.7984    2.6230    1.8162   H         1 RES1   0.0000
   131 H74       5.8581   -0.1277    2.5907   H         1 RES1   0.0000
   132 H75       6.2795    1.3992    3.3937   H         1 RES1   0.0000
   133 H76       6.7169    1.1260    1.7146   H         1 RES1   0.0000
   134 H77       4.0026   -0.1472    0.8253   H         1 RES1   0.0000
   135 H78       4.9607    1.0342   -0.0620   H         1 RES1   0.0000
   136 H79       3.2541    1.3646    0.3234   H         1 RES1   0.0000
   137 H80      -2.7753   -1.3965    5.1831   H         1 RES1   0.0000
   138 H81      -3.7571    0.3199    6.6215   H         1 RES1   0.0000
   139 H82      -2.7176    2.5567    6.7682   H         1 RES1   0.0000
   140 H83      -0.6951    3.0590    5.4599   H         1 RES1   0.0000
   141 H84       0.3483    1.2870    4.0681   H         1 RES1   0.0000
   142 C49      -3.2470   -5.4423   -1.5686   C.3       1 RES1   0.0000
   143 C50      -2.2558   -6.5285   -1.9724   C.3       1 RES1   0.0000
   144 C51      -1.0111   -6.6110   -1.0759   C.3       1 RES1   0.0000
   145 C52      -0.0053   -5.4661   -1.2952   C.3       1 RES1   0.0000
   146 C53       1.3690   -5.6970   -0.6490   C.3       1 RES1   0.0000
   147 C54       1.2868   -6.0080    0.8478   C.3       1 RES1   0.0000
   148 C55       1.0935   -4.7839    1.7193   C.3       1 RES1   0.0000
   149 C56       2.4435   -4.6263   -0.9785   C.3       1 RES1   0.0000
   150 P3        2.4449   -2.7520   -0.8155   P.3       1 RES1   0.0000
   151 O5        1.4094   -2.0614    0.0190   O.2       1 RES1   0.0000
   152 C57       2.3239   -2.1074   -2.5631   C.3       1 RES1   0.0000
   153 C58       2.4467   -0.6045   -2.7416   C.2       1 RES1   0.0000
   154 O6        1.8234    0.1197   -1.9352   O.2       1 RES1   0.0000
   155 N3        3.0894   -0.0717   -3.8049   N.am      1 RES1   0.0000
   156 C59       3.1003    1.3826   -3.9699   C.3       1 RES1   0.0000
   157 C60       4.0298    2.2156   -3.0667   C.3       1 RES1   0.0000
   158 C61       4.1923    3.5774   -3.7471   C.3       1 RES1   0.0000
   159 C62       5.4223    1.6202   -2.8819   C.3       1 RES1   0.0000
   160 C63       3.9594   -0.7513   -4.7818   C.3       1 RES1   0.0000
   161 C64       3.7909   -0.5711   -6.3510   C.3       1 RES1   0.0000
   162 C65       3.1249    0.6835   -6.9326   C.3       1 RES1   0.0000
   163 C66       3.1361   -1.7708   -7.0521   C.3       1 RES1   0.0000
   164 C67       4.1687   -2.4466   -0.2834   C.ar      1 RES1   0.0000
   165 C68       4.6213   -2.9084    0.9478   C.ar      1 RES1   0.0000
   166 C69       5.9250   -2.6833    1.3570   C.ar      1 RES1   0.0000
   167 C70       6.8064   -2.0052    0.5278   C.ar      1 RES1   0.0000
   168 C71       6.3761   -1.5692   -0.7138   C.ar      1 RES1   0.0000
   169 C72       5.0688   -1.7940   -1.1143   C.ar      1 RES1   0.0000
   170 H85      -4.0992   -5.4435   -2.2435   H         1 RES1   0.0000
   171 H86      -2.7856   -4.4562   -1.5769   H         1 RES1   0.0000
   172 H87      -3.6234   -5.6323   -0.5673   H         1 RES1   0.0000
   173 H88      -1.9474   -6.3931   -3.0134   H         1 RES1   0.0000
   174 H89      -2.7802   -7.4837   -1.9138   H         1 RES1   0.0000
   175 H90      -0.5079   -7.5586   -1.2890   H         1 RES1   0.0000
   176 H91      -1.3492   -6.6337   -0.0380   H         1 RES1   0.0000
   177 H92      -0.4337   -4.5228   -0.9459   H         1 RES1   0.0000
   178 H93       0.1735   -5.4032   -2.3689   H         1 RES1   0.0000
   179 H94       1.7707   -6.6073   -1.1142   H         1 RES1   0.0000
   180 H95       2.1962   -6.5272    1.1570   H         1 RES1   0.0000
   181 H96       0.4552   -6.6945    1.0056   H         1 RES1   0.0000
   182 H97       1.9831   -4.1580    1.6919   H         1 RES1   0.0000
   183 H98       0.9178   -5.1052    2.7407   H         1 RES1   0.0000
   184 H99       0.2523   -4.1931    1.3656   H         1 RES1   0.0000
   185 H100      2.7559   -4.7760   -2.0143   H         1 RES1   0.0000
   186 H101      3.3157   -4.9007   -0.3803   H         1 RES1   0.0000
   187 H102      1.2674   -2.3198   -2.7471   H         1 RES1   0.0000
   188 H103      2.9434   -2.6989   -3.2290   H         1 RES1   0.0000
   189 H104      2.0746    1.7510   -3.8735   H         1 RES1   0.0000
   190 H105      3.4207    1.5960   -4.9808   H         1 RES1   0.0000
   191 H106      3.5617    2.3248   -2.0810   H         1 RES1   0.0000
   192 H107      4.7178    3.4728   -4.6938   H         1 RES1   0.0000
   193 H108      4.7913    4.2301   -3.1222   H         1 RES1   0.0000
   194 H109      3.2319    4.0426   -3.9569   H         1 RES1   0.0000
   195 H110      5.9437    1.5591   -3.8343   H         1 RES1   0.0000
   196 H111      5.3871    0.6397   -2.4165   H         1 RES1   0.0000
   197 H112      6.0033    2.2799   -2.2423   H         1 RES1   0.0000
   198 H113      3.9352   -1.8248   -4.5980   H         1 RES1   0.0000
   199 H114      4.9789   -0.4269   -4.5456   H         1 RES1   0.0000
   200 H115      4.8292   -0.5596   -6.6973   H         1 RES1   0.0000
   201 H116      2.1298    0.8442   -6.5240   H         1 RES1   0.0000
   202 H117      3.0160    0.5309   -8.0045   H         1 RES1   0.0000
   203 H118      3.7340    1.5772   -6.8144   H         1 RES1   0.0000
   204 H119      2.0592   -1.6608   -7.1088   H         1 RES1   0.0000
   205 H120      3.3818   -2.7163   -6.5779   H         1 RES1   0.0000
   206 H121      3.5081   -1.8166   -8.0720   H         1 RES1   0.0000
   207 H122      3.9542   -3.4654    1.5893   H         1 RES1   0.0000
   208 H123      6.2576   -3.0293    2.3258   H         1 RES1   0.0000
   209 H124      7.8209   -1.8160    0.8490   H         1 RES1   0.0000
   210 H125      7.0634   -1.0437   -1.3623   H         1 RES1   0.0000
   211 H126      4.7413   -1.4598   -2.0839   H         1 RES1   0.0000
   212 C73      -6.7996   -4.4454   -2.6448   C.3       1 RES1   0.0000
   213 C74      -7.7315   -3.2906   -2.9926   C.3       1 RES1   0.0000
   214 C75      -7.0573   -1.9154   -3.0043   C.3       1 RES1   0.0000
   215 C76      -6.5964   -1.4450   -1.6203   C.3       1 RES1   0.0000
   216 C77      -6.0314   -0.0129   -1.6277   C.3       1 RES1   0.0000
   217 C78      -7.1008    1.0822   -1.4335   C.3       1 RES1   0.0000
   218 C79      -8.1344    1.1814   -2.5528   C.3       1 RES1   0.0000
   219 C80      -5.0037    0.1571   -0.5009   C.3       1 RES1   0.0000
   220 P4       -3.5349   -0.9353   -0.4671   P.3       1 RES1   0.0000
   221 O7       -2.3474   -0.2085    0.0758   O.2       1 RES1   0.0000
   222 C81      -3.1968   -1.1666   -2.2734   C.3       1 RES1   0.0000
   223 C82      -1.9689   -1.9578   -2.6063   C.2       1 RES1   0.0000
   224 O8       -0.9185   -1.7213   -1.9692   O.2       1 RES1   0.0000
   225 N4       -1.9969   -2.7988   -3.6546   N.am      1 RES1   0.0000
   226 C83      -3.2282   -3.3674   -4.1934   C.3       1 RES1   0.0000
   227 C84      -3.4337   -3.2797   -5.7107   C.3       1 RES1   0.0000
   228 C85      -3.8835   -1.8982   -6.1682   C.3       1 RES1   0.0000
   229 C86      -4.4852   -4.3199   -6.0803   C.3       1 RES1   0.0000
   230 C87      -0.7950   -3.6004   -3.8911   C.3       1 RES1   0.0000
   231 C88       0.2549   -3.2593   -4.9809   C.3       1 RES1   0.0000
   232 C89      -0.0348   -3.8020   -6.3786   C.3       1 RES1   0.0000
   233 C90       0.5764   -1.7683   -5.0416   C.3       1 RES1   0.0000
   234 C91      -3.8490   -2.4208    0.5370   C.ar      1 RES1   0.0000
   235 C92      -5.0605   -2.6499    1.1753   C.ar      1 RES1   0.0000
   236 C93      -5.2366   -3.7779    1.9562   C.ar      1 RES1   0.0000
   237 C94      -4.2053   -4.6921    2.0942   C.ar      1 RES1   0.0000
   238 C95      -2.9841   -4.4468    1.4874   C.ar      1 RES1   0.0000
   239 C96      -2.7950   -3.3018    0.7296   C.ar      1 RES1   0.0000
   240 H127     -7.3447   -5.3820   -2.7137   H         1 RES1   0.0000
   241 H128     -6.4123   -4.3513   -1.6326   H         1 RES1   0.0000
   242 H129     -5.9669   -4.4882   -3.3446   H         1 RES1   0.0000
   243 H130     -8.5628   -3.2690   -2.2850   H         1 RES1   0.0000
   244 H131     -8.1474   -3.4623   -3.9878   H         1 RES1   0.0000
   245 H132     -7.7741   -1.1974   -3.4020   H         1 RES1   0.0000
   246 H133     -6.1987   -1.9369   -3.6877   H         1 RES1   0.0000
   247 H134     -5.8226   -2.1310   -1.2540   H         1 RES1   0.0000
   248 H135     -7.4401   -1.5040   -0.9273   H         1 RES1   0.0000
   249 H136     -5.5630    0.1713   -2.6040   H         1 RES1   0.0000
   250 H137     -6.5761    2.0407   -1.3694   H         1 RES1   0.0000
   251 H138     -7.6178    0.9225   -0.4830   H         1 RES1   0.0000
   252 H139     -7.6478    1.1865   -3.5268   H         1 RES1   0.0000
   253 H140     -8.6965    2.1072   -2.4529   H         1 RES1   0.0000
   254 H141     -8.8414    0.3580   -2.5059   H         1 RES1   0.0000
   255 H142     -5.5253    0.0627    0.4510   H         1 RES1   0.0000
   256 H143     -4.5692    1.1568   -0.5244   H         1 RES1   0.0000
   257 H144     -2.9144   -0.1243   -2.4622   H         1 RES1   0.0000
   258 H145     -4.0869   -1.4297   -2.8268   H         1 RES1   0.0000
   259 H146     -4.1012   -2.9473   -3.6976   H         1 RES1   0.0000
   260 H147     -3.1966   -4.4268   -3.9357   H         1 RES1   0.0000
   261 H148     -2.5026   -3.5333   -6.2138   H         1 RES1   0.0000
   262 H149     -4.7860   -1.5950   -5.6423   H         1 RES1   0.0000
   263 H150     -4.1189   -1.9221   -7.2290   H         1 RES1   0.0000
   264 H151     -3.1062   -1.1616   -5.9957   H         1 RES1   0.0000
   265 H152     -5.4300   -4.0715   -5.6064   H         1 RES1   0.0000
   266 H153     -4.1764   -5.3136   -5.7681   H         1 RES1   0.0000
   267 H154     -4.6405   -4.3405   -7.1516   H         1 RES1   0.0000
   268 H155     -1.1120   -4.6258   -4.0814   H         1 RES1   0.0000
   269 H156     -0.2604   -3.5575   -2.9386   H         1 RES1   0.0000
   270 H157      1.1436   -3.8019   -4.6306   H         1 RES1   0.0000
   271 H158     -0.7567   -3.1830   -6.8995   H         1 RES1   0.0000
   272 H159     -0.3978   -4.8229   -6.3312   H         1 RES1   0.0000
   273 H160      0.8725   -3.8083   -6.9769   H         1 RES1   0.0000
   274 H161      0.1035   -1.3285   -5.9136   H         1 RES1   0.0000
   275 H162      1.6407   -1.6097   -5.1274   H         1 RES1   0.0000
   276 H163      0.2148   -1.2516   -4.1601   H         1 RES1   0.0000
   277 H164     -5.8732   -1.9523    1.0684   H         1 RES1   0.0000
   278 H165     -6.1806   -3.9458    2.4497   H         1 RES1   0.0000
   279 H166     -4.3517   -5.5939    2.6700   H         1 RES1   0.0000
   280 H167     -2.1874   -5.1669    1.6012   H         1 RES1   0.0000
   281 H168     -1.8402   -3.0623    0.2774   H         1 RES1   0.0000
   282 O9       -1.2213    1.6819    1.6611   O.3       1 RES1   0.0000
   283 H169     -1.8260    1.1301    2.1756   H         1 RES1   0.0000
   284 H170     -0.4848    1.9493    2.2280   H         1 RES1   0.0000
@<TRIPOS>BOND
     1     1    11    1
     2     1    14    1
     3     1    81    1
     4     1    84    1
     5     1   151    1
     6     1   154    1
     7     1   221    1
     8     1   224    1
     9     1   282    1
    10     2     3    1
    11     2    30    1
    12     2    31    1
    13     2    32    1
    14     3     4    1
    15     3    33    1
    16     3    34    1
    17     4     5    1
    18     4    35    1
    19     4    36    1
    20     5     6    1
    21     5    37    1
    22     5    38    1
    23     6     7    1
    24     6     9    1
    25     6    39    1
    26     7     8    1
    27     7    40    1
    28     7    41    1
    29     8    42    1
    30     8    43    1
    31     8    44    1
    32     9    10    1
    33     9    45    1
    34     9    46    1
    35    10    11    2
    36    10    12    1
    37    10    24    1
    38    12    13    1
    39    12    47    1
    40    12    48    1
    41    13    14    2
    42    13    15    1
    43    15    16    1
    44    15    20    1
    45    16    17    1
    46    16    49    1
    47    16    50    1
    48    17    18    1
    49    17    19    1
    50    17    51    1
    51    18    52    1
    52    18    53    1
    53    18    54    1
    54    19    55    1
    55    19    56    1
    56    19    57    1
    57    20    21    1
    58    20    58    1
    59    20    59    1
    60    21    22    1
    61    21    23    1
    62    21    60    1
    63    22    61    1
    64    22    62    1
    65    22    63    1
    66    23    64    1
    67    23    65    1
    68    23    66    1
    69    24    25    1
    70    24    29    2
    71    25    26    2
    72    25    67    1
    73    26    27    1
    74    26    68    1
    75    27    28    2
    76    27    69    1
    77    28    29    1
    78    28    70    1
    79    29    71    1
    80    72    73    1
    81    72   100    1
    82    72   101    1
    83    72   102    1
    84    73    74    1
    85    73   103    1
    86    73   104    1
    87    74    75    1
    88    74   105    1
    89    74   106    1
    90    75    76    1
    91    75   107    1
    92    75   108    1
    93    76    77    1
    94    76    79    1
    95    76   109    1
    96    77    78    1
    97    77   110    1
    98    77   111    1
    99    78   112    1
   100    78   113    1
   101    78   114    1
   102    79    80    1
   103    79   115    1
   104    79   116    1
   105    80    81    2
   106    80    82    1
   107    80    94    1
   108    82    83    1
   109    82   117    1
   110    82   118    1
   111    83    84    2
   112    83    85    1
   113    85    86    1
   114    85    90    1
   115    86    87    1
   116    86   119    1
   117    86   120    1
   118    87    88    1
   119    87    89    1
   120    87   121    1
   121    88   122    1
   122    88   123    1
   123    88   124    1
   124    89   125    1
   125    89   126    1
   126    89   127    1
   127    90    91    1
   128    90   128    1
   129    90   129    1
   130    91    92    1
   131    91    93    1
   132    91   130    1
   133    92   131    1
   134    92   132    1
   135    92   133    1
   136    93   134    1
   137    93   135    1
   138    93   136    1
   139    94    95    1
   140    94    99    2
   141    95    96    2
   142    95   137    1
   143    96    97    1
   144    96   138    1
   145    97    98    2
   146    97   139    1
   147    98    99    1
   148    98   140    1
   149    99   141    1
   150   142   143    1
   151   142   170    1
   152   142   171    1
   153   142   172    1
   154   143   144    1
   155   143   173    1
   156   143   174    1
   157   144   145    1
   158   144   175    1
   159   144   176    1
   160   145   146    1
   161   145   177    1
   162   145   178    1
   163   146   147    1
   164   146   149    1
   165   146   179    1
   166   147   148    1
   167   147   180    1
   168   147   181    1
   169   148   182    1
   170   148   183    1
   171   148   184    1
   172   149   150    1
   173   149   185    1
   174   149   186    1
   175   150   151    2
   176   150   152    1
   177   150   164    1
   178   152   153    1
   179   152   187    1
   180   152   188    1
   181   153   154    2
   182   153   155    1
   183   155   156    1
   184   155   160    1
   185   156   157    1
   186   156   189    1
   187   156   190    1
   188   157   158    1
   189   157   159    1
   190   157   191    1
   191   158   192    1
   192   158   193    1
   193   158   194    1
   194   159   195    1
   195   159   196    1
   196   159   197    1
   197   160   161    1
   198   160   198    1
   199   160   199    1
   200   161   162    1
   201   161   163    1
   202   161   200    1
   203   162   201    1
   204   162   202    1
   205   162   203    1
   206   163   204    1
   207   163   205    1
   208   163   206    1
   209   164   165    1
   210   164   169    2
   211   165   166    2
   212   165   207    1
   213   166   167    1
   214   166   208    1
   215   167   168    2
   216   167   209    1
   217   168   169    1
   218   168   210    1
   219   169   211    1
   220   212   213    1
   221   212   240    1
   222   212   241    1
   223   212   242    1
   224   213   214    1
   225   213   243    1
   226   213   244    1
   227   214   215    1
   228   214   245    1
   229   214   246    1
   230   215   216    1
   231   215   247    1
   232   215   248    1
   233   216   217    1
   234   216   219    1
   235   216   249    1
   236   217   218    1
   237   217   250    1
   238   217   251    1
   239   218   252    1
   240   218   253    1
   241   218   254    1
   242   219   220    1
   243   219   255    1
   244   219   256    1
   245   220   221    2
   246   220   222    1
   247   220   234    1
   248   222   223    1
   249   222   257    1
   250   222   258    1
   251   223   224    2
   252   223   225    1
   253   225   226    1
   254   225   230    1
   255   226   227    1
   256   226   259    1
   257   226   260    1
   258   227   228    1
   259   227   229    1
   260   227   261    1
   261   228   262    1
   262   228   263    1
   263   228   264    1
   264   229   265    1
   265   229   266    1
   266   229   267    1
   267   230   231    1
   268   230   268    1
   269   230   269    1
   270   231   232    1
   271   231   233    1
   272   231   270    1
   273   232   271    1
   274   232   272    1
   275   232   273    1
   276   233   274    1
   277   233   275    1
   278   233   276    1
   279   234   235    1
   280   234   239    2
   281   235   236    2
   282   235   277    1
   283   236   237    1
   284   236   278    1
   285   237   238    2
   286   237   279    1
   287   238   239    1
   288   238   280    1
   289   239   281    1
   290   282   283    1
   291   282   284    1
@<TRIPOS>SUBSTRUCTURE
     1 RES1      284 GROUP             0 ****  ****    0  
