@<TRIPOS>MOLECULE
am_c3_9H2O_c0_0_nunpairedes_0_charge_3 Charge: 3 Unpaired_Electrons: 5 XTB_Unpaired_Electrons: 0 XTB_Charge: 3
   340   345     1     0     0
SMALL
NoCharges
****
Generated from Architector

@<TRIPOS>ATOM
     1 Sm1      -0.1827    0.0033    0.2148   Sm        1 RES1   0.0000
     2 C1        0.5607    3.1439    7.8316   C.3       1 RES1   0.0000
     3 C2       -0.3457    2.1364    7.1356   C.3       1 RES1   0.0000
     4 C3       -0.5228    2.3616    5.6308   C.3       1 RES1   0.0000
     5 C4       -1.1038    3.7371    5.3038   C.3       1 RES1   0.0000
     6 C5       -1.7525    3.8119    3.9137   C.3       1 RES1   0.0000
     7 C6       -2.9443    4.7778    3.9309   C.3       1 RES1   0.0000
     8 C7       -4.0425    4.3470    4.9046   C.3       1 RES1   0.0000
     9 C8       -0.6628    4.1970    2.8852   C.3       1 RES1   0.0000
    10 N1       -1.1114    4.2860    1.4920   N.am      1 RES1   0.0000
    11 C9       -1.5865    5.5898    1.0322   C.3       1 RES1   0.0000
    12 C10      -0.6103    6.7312    0.6346   C.3       1 RES1   0.0000
    13 C11      -0.0528    7.5739    1.8062   C.3       1 RES1   0.0000
    14 C12       1.3516    7.3123    2.3375   C.3       1 RES1   0.0000
    15 C13       0.3901    6.4154   -0.4835   C.3       1 RES1   0.0000
    16 C14       1.5614    5.4583   -0.2469   C.3       1 RES1   0.0000
    17 C15       2.5050    5.5736   -1.4510   C.3       1 RES1   0.0000
    18 C16       3.9179    5.0495   -1.2332   C.3       1 RES1   0.0000
    19 C17      -1.2293    3.1563    0.8037   C.2       1 RES1   0.0000
    20 O1       -0.8927    2.0449    1.2571   O.2       1 RES1   0.0000
    21 C18      -1.8450    3.1778   -0.6046   C.3       1 RES1   0.0000
    22 O2       -1.7390    1.8662   -1.1497   O.3       1 RES1   0.0000
    23 C19      -2.8748    1.4006   -1.8734   C.3       1 RES1   0.0000
    24 C20      -3.1367   -0.0635   -1.4839   C.2       1 RES1   0.0000
    25 O3       -2.4026   -0.5527   -0.6018   O.2       1 RES1   0.0000
    26 N2       -4.1206   -0.7381   -2.0835   N.am      1 RES1   0.0000
    27 C21      -4.2938   -2.1565   -1.7205   C.3       1 RES1   0.0000
    28 C22      -4.6128   -3.1601   -2.8418   C.3       1 RES1   0.0000
    29 C23      -3.4704   -3.2914   -3.8547   C.3       1 RES1   0.0000
    30 C24      -3.8265   -4.2605   -4.9780   C.3       1 RES1   0.0000
    31 C25      -5.0416   -4.5085   -2.2209   C.3       1 RES1   0.0000
    32 C26      -3.9646   -5.2853   -1.4624   C.3       1 RES1   0.0000
    33 C27      -4.3948   -6.7130   -1.1049   C.3       1 RES1   0.0000
    34 C28      -5.5244   -6.7828   -0.0824   C.3       1 RES1   0.0000
    35 C29      -5.0818   -0.1344   -3.0055   C.3       1 RES1   0.0000
    36 C30      -6.3829    0.4839   -2.4103   C.3       1 RES1   0.0000
    37 C31      -6.1930    1.9532   -2.0013   C.3       1 RES1   0.0000
    38 C32      -7.4357    2.8216   -2.1799   C.3       1 RES1   0.0000
    39 C33      -6.9551   -0.4129   -1.3089   C.3       1 RES1   0.0000
    40 C34      -8.2845    0.0391   -0.7057   C.3       1 RES1   0.0000
    41 C35      -8.8693   -1.0465    0.2035   C.3       1 RES1   0.0000
    42 C36      -9.7475   -0.4603    1.3009   C.3       1 RES1   0.0000
    43 H1        0.6248    2.9026    8.8897   H         1 RES1   0.0000
    44 H2        0.1681    4.1538    7.7438   H         1 RES1   0.0000
    45 H3        1.5671    3.1154    7.4196   H         1 RES1   0.0000
    46 H4       -1.3296    2.1623    7.6083   H         1 RES1   0.0000
    47 H5        0.0668    1.1355    7.2846   H         1 RES1   0.0000
    48 H6       -1.2044    1.5913    5.2566   H         1 RES1   0.0000
    49 H7        0.4323    2.2171    5.1227   H         1 RES1   0.0000
    50 H8       -0.3306    4.5042    5.3844   H         1 RES1   0.0000
    51 H9       -1.8635    3.9589    6.0516   H         1 RES1   0.0000
    52 H10      -2.1221    2.8165    3.6493   H         1 RES1   0.0000
    53 H11      -3.3939    4.8193    2.9374   H         1 RES1   0.0000
    54 H12      -2.5978    5.7772    4.2015   H         1 RES1   0.0000
    55 H13      -4.1718    3.2665    4.8877   H         1 RES1   0.0000
    56 H14      -4.9863    4.8093    4.6296   H         1 RES1   0.0000
    57 H15      -3.8248    4.6448    5.9253   H         1 RES1   0.0000
    58 H16       0.1223    3.4340    2.9279   H         1 RES1   0.0000
    59 H17      -0.2386    5.1638    3.1510   H         1 RES1   0.0000
    60 H18      -2.2018    6.0073    1.8328   H         1 RES1   0.0000
    61 H19      -2.2369    5.4288    0.1726   H         1 RES1   0.0000
    62 H20      -1.3157    7.4237    0.1552   H         1 RES1   0.0000
    63 H21      -0.7580    7.5032    2.6365   H         1 RES1   0.0000
    64 H22      -0.0596    8.6139    1.4770   H         1 RES1   0.0000
    65 H23       1.5028    6.2717    2.6160   H         1 RES1   0.0000
    66 H24       1.5012    7.9257    3.2251   H         1 RES1   0.0000
    67 H25       2.1090    7.6097    1.6162   H         1 RES1   0.0000
    68 H26       0.8161    7.3765   -0.7772   H         1 RES1   0.0000
    69 H27      -0.1770    6.0502   -1.3469   H         1 RES1   0.0000
    70 H28       1.1905    4.4389   -0.1035   H         1 RES1   0.0000
    71 H29       2.1147    5.7393    0.6433   H         1 RES1   0.0000
    72 H30       2.5946    6.6333   -1.6962   H         1 RES1   0.0000
    73 H31       2.0549    5.0882   -2.3189   H         1 RES1   0.0000
    74 H32       4.3541    5.5142   -0.3524   H         1 RES1   0.0000
    75 H33       4.5336    5.3152   -2.0889   H         1 RES1   0.0000
    76 H34       3.9544    3.9676   -1.1168   H         1 RES1   0.0000
    77 H35      -1.3252    3.8891   -1.2578   H         1 RES1   0.0000
    78 H36      -2.8970    3.4773   -0.5129   H         1 RES1   0.0000
    79 H37      -2.6885    1.4977   -2.9519   H         1 RES1   0.0000
    80 H38      -3.7593    1.9938   -1.6268   H         1 RES1   0.0000
    81 H39      -5.1187   -2.2195   -1.0059   H         1 RES1   0.0000
    82 H40      -3.3618   -2.4472   -1.2299   H         1 RES1   0.0000
    83 H41      -5.4929   -2.8097   -3.3896   H         1 RES1   0.0000
    84 H42      -2.5585   -3.6235   -3.3514   H         1 RES1   0.0000
    85 H43      -3.2733   -2.3022   -4.2804   H         1 RES1   0.0000
    86 H44      -3.8968   -5.2797   -4.6115   H         1 RES1   0.0000
    87 H45      -3.0698   -4.2485   -5.7554   H         1 RES1   0.0000
    88 H46      -4.7775   -3.9901   -5.4304   H         1 RES1   0.0000
    89 H47      -5.4070   -5.1398   -3.0294   H         1 RES1   0.0000
    90 H48      -5.8876   -4.3314   -1.5535   H         1 RES1   0.0000
    91 H49      -3.7135   -4.7610   -0.5365   H         1 RES1   0.0000
    92 H50      -3.0615   -5.3541   -2.0705   H         1 RES1   0.0000
    93 H51      -3.5276   -7.2436   -0.7012   H         1 RES1   0.0000
    94 H52      -4.7038   -7.2345   -2.0127   H         1 RES1   0.0000
    95 H53      -5.2524   -6.2603    0.8350   H         1 RES1   0.0000
    96 H54      -5.7245   -7.8221    0.1681   H         1 RES1   0.0000
    97 H55      -6.4421   -6.3517   -0.4760   H         1 RES1   0.0000
    98 H56      -5.3776   -0.9151   -3.7051   H         1 RES1   0.0000
    99 H57      -4.5794    0.6366   -3.5887   H         1 RES1   0.0000
   100 H58      -7.0891    0.4949   -3.2487   H         1 RES1   0.0000
   101 H59      -5.4403    2.3868   -2.6643   H         1 RES1   0.0000
   102 H60      -5.8458    2.0229   -0.9698   H         1 RES1   0.0000
   103 H61      -7.8929    2.6229   -3.1450   H         1 RES1   0.0000
   104 H62      -7.1498    3.8708   -2.1580   H         1 RES1   0.0000
   105 H63      -8.1732    2.6587   -1.4027   H         1 RES1   0.0000
   106 H64      -6.2300   -0.4682   -0.4946   H         1 RES1   0.0000
   107 H65      -7.0908   -1.4167   -1.7268   H         1 RES1   0.0000
   108 H66      -8.9938    0.2855   -1.4971   H         1 RES1   0.0000
   109 H67      -8.1202    0.9364   -0.1058   H         1 RES1   0.0000
   110 H68      -8.0530   -1.6067    0.6718   H         1 RES1   0.0000
   111 H69      -9.4467   -1.7612   -0.3846   H         1 RES1   0.0000
   112 H70      -9.1511    0.1543    1.9726   H         1 RES1   0.0000
   113 H71     -10.2153   -1.2508    1.8803   H         1 RES1   0.0000
   114 H72     -10.5331    0.1614    0.8838   H         1 RES1   0.0000
   115 C37       0.1967   -5.2607   -5.4221   C.3       1 RES1   0.0000
   116 C38       0.1654   -4.4541   -6.7170   C.3       1 RES1   0.0000
   117 C39      -0.4305   -3.0490   -6.5600   C.3       1 RES1   0.0000
   118 C40       0.4559   -2.1502   -5.7037   C.3       1 RES1   0.0000
   119 C41      -0.0404   -0.7117   -5.4428   C.3       1 RES1   0.0000
   120 C42      -0.3928    0.0219   -6.7414   C.3       1 RES1   0.0000
   121 C43      -1.8814   -0.0523   -7.0630   C.3       1 RES1   0.0000
   122 C44       1.1339   -0.0711   -4.6813   C.3       1 RES1   0.0000
   123 N3        1.0582    1.1997   -3.9386   N.am      1 RES1   0.0000
   124 C45       1.5367    2.4084   -4.6047   C.3       1 RES1   0.0000
   125 C46       0.5458    3.5919   -4.7131   C.3       1 RES1   0.0000
   126 C47       1.1478    4.6046   -5.7050   C.3       1 RES1   0.0000
   127 C48       2.3986    5.3167   -5.2029   C.3       1 RES1   0.0000
   128 C49      -0.8508    3.1475   -5.1740   C.3       1 RES1   0.0000
   129 C50      -1.9408    4.2056   -4.9846   C.3       1 RES1   0.0000
   130 C51      -3.2032    3.8995   -5.7950   C.3       1 RES1   0.0000
   131 C52      -4.0300    2.7571   -5.2280   C.3       1 RES1   0.0000
   132 C53       0.9421    1.1033   -2.6101   C.2       1 RES1   0.0000
   133 O4        0.3891    0.1324   -2.0641   O.2       1 RES1   0.0000
   134 C54       1.6323    2.1550   -1.7294   C.3       1 RES1   0.0000
   135 O5        1.4745    1.8000   -0.3569   O.3       1 RES1   0.0000
   136 C55       2.6313    1.9621    0.4757   C.3       1 RES1   0.0000
   137 C56       2.3117    1.2877    1.8228   C.2       1 RES1   0.0000
   138 O6        1.3465    0.5060    1.8350   O.2       1 RES1   0.0000
   139 N4        3.0574    1.5263    2.8966   N.am      1 RES1   0.0000
   140 C57       4.1330    2.5090    2.9692   C.3       1 RES1   0.0000
   141 C58       3.7172    3.9510    3.3463   C.3       1 RES1   0.0000
   142 C59       2.9357    3.9557    4.6713   C.3       1 RES1   0.0000
   143 C60       2.6285    5.3200    5.2847   C.3       1 RES1   0.0000
   144 C61       4.9735    4.8290    3.4845   C.3       1 RES1   0.0000
   145 C62       5.9598    4.8452    2.3056   C.3       1 RES1   0.0000
   146 C63       7.2041    3.9765    2.5141   C.3       1 RES1   0.0000
   147 C64       8.2954    4.3163    1.5037   C.3       1 RES1   0.0000
   148 C65       2.7199    0.7871    4.1191   C.3       1 RES1   0.0000
   149 C66       3.6763   -0.3172    4.6124   C.3       1 RES1   0.0000
   150 C67       4.9186    0.2097    5.3443   C.3       1 RES1   0.0000
   151 C68       5.5465   -0.8582    6.2349   C.3       1 RES1   0.0000
   152 C69       3.9580   -1.4132    3.5680   C.3       1 RES1   0.0000
   153 C70       5.2220   -1.2940    2.7099   C.3       1 RES1   0.0000
   154 C71       5.6393   -2.6817    2.2173   C.3       1 RES1   0.0000
   155 C72       6.9644   -2.6822    1.4659   C.3       1 RES1   0.0000
   156 H73       0.4278   -6.2998   -5.6397   H         1 RES1   0.0000
   157 H74       0.9606   -4.8872   -4.7418   H         1 RES1   0.0000
   158 H75      -0.7715   -5.2232   -4.9266   H         1 RES1   0.0000
   159 H76       1.1794   -4.3796   -7.1166   H         1 RES1   0.0000
   160 H77      -0.4310   -4.9982   -7.4511   H         1 RES1   0.0000
   161 H78      -0.5369   -2.6220   -7.5568   H         1 RES1   0.0000
   162 H79      -1.4225   -3.1234   -6.1120   H         1 RES1   0.0000
   163 H80       0.6046   -2.6416   -4.7376   H         1 RES1   0.0000
   164 H81       1.4312   -2.0887   -6.1940   H         1 RES1   0.0000
   165 H82      -0.9177   -0.7403   -4.7894   H         1 RES1   0.0000
   166 H83      -0.1139    1.0699   -6.6506   H         1 RES1   0.0000
   167 H84       0.1878   -0.3950   -7.5644   H         1 RES1   0.0000
   168 H85      -2.4621    0.2886   -6.2076   H         1 RES1   0.0000
   169 H86      -2.1185    0.5830   -7.9110   H         1 RES1   0.0000
   170 H87      -2.1980   -1.0646   -7.2982   H         1 RES1   0.0000
   171 H88       1.4311   -0.8137   -3.9350   H         1 RES1   0.0000
   172 H89       1.9542    0.0457   -5.3930   H         1 RES1   0.0000
   173 H90       2.4430    2.7758   -4.1116   H         1 RES1   0.0000
   174 H91       1.8089    2.1166   -5.6197   H         1 RES1   0.0000
   175 H92       0.4506    4.0758   -3.7324   H         1 RES1   0.0000
   176 H93       1.3783    4.0971   -6.6437   H         1 RES1   0.0000
   177 H94       0.4021    5.3652   -5.9322   H         1 RES1   0.0000
   178 H95       3.1973    4.6175   -4.9577   H         1 RES1   0.0000
   179 H96       2.7661    5.9832   -5.9794   H         1 RES1   0.0000
   180 H97       2.1734    5.9204   -4.3260   H         1 RES1   0.0000
   181 H98      -0.8033    2.9098   -6.2369   H         1 RES1   0.0000
   182 H99      -1.1285    2.2376   -4.6352   H         1 RES1   0.0000
   183 H100     -2.1916    4.2993   -3.9229   H         1 RES1   0.0000
   184 H101     -1.5640    5.1728   -5.3168   H         1 RES1   0.0000
   185 H102     -3.8256    4.7924   -5.8192   H         1 RES1   0.0000
   186 H103     -2.9227    3.6648   -6.8212   H         1 RES1   0.0000
   187 H104     -4.3307    2.9950   -4.2095   H         1 RES1   0.0000
   188 H105     -4.9279    2.6110   -5.8218   H         1 RES1   0.0000
   189 H106     -3.4670    1.8268   -5.2329   H         1 RES1   0.0000
   190 H107      2.6938    2.1553   -2.0038   H         1 RES1   0.0000
   191 H108      1.2344    3.1592   -1.9085   H         1 RES1   0.0000
   192 H109      3.4937    1.4374    0.0374   H         1 RES1   0.0000
   193 H110      2.8669    3.0226    0.5995   H         1 RES1   0.0000
   194 H111      4.8280    2.1641    3.7329   H         1 RES1   0.0000
   195 H112      4.6610    2.5281    2.0137   H         1 RES1   0.0000
   196 H113      3.0789    4.3650    2.5540   H         1 RES1   0.0000
   197 H114      1.9855    3.4480    4.5038   H         1 RES1   0.0000
   198 H115      3.5117    3.3883    5.4052   H         1 RES1   0.0000
   199 H116      2.1350    5.9797    4.5770   H         1 RES1   0.0000
   200 H117      1.9633    5.1815    6.1346   H         1 RES1   0.0000
   201 H118      3.5257    5.8155    5.6452   H         1 RES1   0.0000
   202 H119      4.6267    5.8487    3.6514   H         1 RES1   0.0000
   203 H120      5.5071    4.5205    4.3846   H         1 RES1   0.0000
   204 H121      5.4520    4.5565    1.3805   H         1 RES1   0.0000
   205 H122      6.3023    5.8722    2.1696   H         1 RES1   0.0000
   206 H123      7.5997    4.1532    3.5163   H         1 RES1   0.0000
   207 H124      6.9546    2.9151    2.4400   H         1 RES1   0.0000
   208 H125      8.6427    5.3355    1.6583   H         1 RES1   0.0000
   209 H126      9.1454    3.6497    1.6251   H         1 RES1   0.0000
   210 H127      7.9262    4.2275    0.4826   H         1 RES1   0.0000
   211 H128      2.6065    1.4966    4.9362   H         1 RES1   0.0000
   212 H129      1.7492    0.3212    3.9295   H         1 RES1   0.0000
   213 H130      3.0661   -0.8020    5.3863   H         1 RES1   0.0000
   214 H131      5.6760    0.5742    4.6502   H         1 RES1   0.0000
   215 H132      4.6215    1.0469    5.9803   H         1 RES1   0.0000
   216 H133      5.9786   -1.6631    5.6481   H         1 RES1   0.0000
   217 H134      6.3360   -0.4235    6.8410   H         1 RES1   0.0000
   218 H135      4.8012   -1.2822    6.9033   H         1 RES1   0.0000
   219 H136      4.0451   -2.3530    4.1171   H         1 RES1   0.0000
   220 H137      3.0805   -1.5035    2.9164   H         1 RES1   0.0000
   221 H138      5.0517   -0.6256    1.8596   H         1 RES1   0.0000
   222 H139      6.0500   -0.8909    3.2903   H         1 RES1   0.0000
   223 H140      5.7345   -3.3405    3.0833   H         1 RES1   0.0000
   224 H141      4.8499   -3.0867    1.5819   H         1 RES1   0.0000
   225 H142      7.7807   -2.4184    2.1339   H         1 RES1   0.0000
   226 H143      7.1719   -3.6701    1.0582   H         1 RES1   0.0000
   227 H144      6.9494   -1.9683    0.6478   H         1 RES1   0.0000
   228 C73      -4.2617   -0.9801    8.3214   C.3       1 RES1   0.0000
   229 C74      -2.7739   -0.7006    8.1424   C.3       1 RES1   0.0000
   230 C75      -2.2808   -0.9371    6.7120   C.3       1 RES1   0.0000
   231 C76      -2.2866   -2.4167    6.3349   C.3       1 RES1   0.0000
   232 C77      -1.6401   -2.7263    4.9786   C.3       1 RES1   0.0000
   233 C78      -1.6100   -4.2410    4.7360   C.3       1 RES1   0.0000
   234 C79      -0.6070   -4.9764    5.6196   C.3       1 RES1   0.0000
   235 C80      -2.4141   -1.9444    3.8862   C.3       1 RES1   0.0000
   236 N5       -2.4225   -2.5746    2.5697   N.am      1 RES1   0.0000
   237 C81      -3.5764   -3.3976    2.2649   C.3       1 RES1   0.0000
   238 C82      -4.9575   -2.7128    2.4506   C.3       1 RES1   0.0000
   239 C83      -5.5853   -2.8817    3.8620   C.3       1 RES1   0.0000
   240 C84      -6.0409   -1.6315    4.6141   C.3       1 RES1   0.0000
   241 C85      -5.0533   -1.3280    1.7878   C.3       1 RES1   0.0000
   242 C86      -4.3622   -0.0498    2.2733   C.3       1 RES1   0.0000
   243 C87      -4.9045    1.0784    1.3902   C.3       1 RES1   0.0000
   244 C88      -4.4747    2.4660    1.8300   C.3       1 RES1   0.0000
   245 C89      -1.4326   -2.2924    1.7347   C.2       1 RES1   0.0000
   246 O7       -0.6721   -1.3199    1.9287   O.2       1 RES1   0.0000
   247 C90      -1.0283   -3.2104    0.5719   C.3       1 RES1   0.0000
   248 O8       -0.5506   -2.3866   -0.4870   O.3       1 RES1   0.0000
   249 C91       0.4466   -2.9830   -1.3089   C.3       1 RES1   0.0000
   250 C92       1.8176   -2.3948   -0.9480   C.2       1 RES1   0.0000
   251 O9        1.8375   -1.3746   -0.2316   O.2       1 RES1   0.0000
   252 N6        2.9089   -2.9800   -1.4390   N.am      1 RES1   0.0000
   253 C93       4.2270   -2.3890   -1.1616   C.3       1 RES1   0.0000
   254 C94       4.8807   -1.6903   -2.3699   C.3       1 RES1   0.0000
   255 C95       4.0401   -0.4901   -2.7955   C.3       1 RES1   0.0000
   256 C96       4.5187    0.1106   -4.1111   C.3       1 RES1   0.0000
   257 C97       6.3581   -1.3192   -2.1208   C.3       1 RES1   0.0000
   258 C98       6.6160   -0.0135   -1.3636   C.3       1 RES1   0.0000
   259 C99       8.0890    0.4153   -1.4135   C.3       1 RES1   0.0000
   260 C100      9.0170   -0.4077   -0.5293   C.3       1 RES1   0.0000
   261 C101      2.8540   -4.0915   -2.3861   C.3       1 RES1   0.0000
   262 C102      2.8454   -5.5648   -1.8919   C.3       1 RES1   0.0000
   263 C103      1.4487   -6.1642   -1.6529   C.3       1 RES1   0.0000
   264 C104      1.4729   -7.6935   -1.6431   C.3       1 RES1   0.0000
   265 C105      3.8287   -5.8360   -0.7426   C.3       1 RES1   0.0000
   266 C106      3.3433   -5.5076    0.6703   C.3       1 RES1   0.0000
   267 C107      4.3502   -5.9810    1.7198   C.3       1 RES1   0.0000
   268 C108      3.8142   -5.7731    3.1302   C.3       1 RES1   0.0000
   269 H145     -4.5671   -0.7205    9.3309   H         1 RES1   0.0000
   270 H146     -4.4913   -2.0302    8.1608   H         1 RES1   0.0000
   271 H147     -4.8504   -0.3840    7.6261   H         1 RES1   0.0000
   272 H148     -2.1986   -1.3245    8.8282   H         1 RES1   0.0000
   273 H149     -2.5789    0.3399    8.4094   H         1 RES1   0.0000
   274 H150     -1.2610   -0.5586    6.6226   H         1 RES1   0.0000
   275 H151     -2.9092   -0.3614    6.0278   H         1 RES1   0.0000
   276 H152     -3.3123   -2.7852    6.3291   H         1 RES1   0.0000
   277 H153     -1.7471   -2.9644    7.1062   H         1 RES1   0.0000
   278 H154     -0.6050   -2.3698    4.9817   H         1 RES1   0.0000
   279 H155     -1.3357   -4.4332    3.6950   H         1 RES1   0.0000
   280 H156     -2.6010   -4.6625    4.9121   H         1 RES1   0.0000
   281 H157      0.3778   -4.5213    5.5513   H         1 RES1   0.0000
   282 H158     -0.5234   -6.0101    5.2925   H         1 RES1   0.0000
   283 H159     -0.9133   -4.9818    6.6602   H         1 RES1   0.0000
   284 H160     -1.9639   -0.9529    3.7905   H         1 RES1   0.0000
   285 H161     -3.4493   -1.8374    4.1861   H         1 RES1   0.0000
   286 H162     -3.5681   -4.3047    2.8747   H         1 RES1   0.0000
   287 H163     -3.5069   -3.6882    1.2179   H         1 RES1   0.0000
   288 H164     -5.5963   -3.3257    1.8007   H         1 RES1   0.0000
   289 H165     -4.9034   -3.4457    4.5053   H         1 RES1   0.0000
   290 H166     -6.4728   -3.5092    3.7391   H         1 RES1   0.0000
   291 H167     -5.2098   -1.0331    4.9850   H         1 RES1   0.0000
   292 H168     -6.6230   -1.9426    5.4796   H         1 RES1   0.0000
   293 H169     -6.6847   -1.0085    3.9965   H         1 RES1   0.0000
   294 H170     -6.1215   -1.1012    1.7357   H         1 RES1   0.0000
   295 H171     -4.6922   -1.4673    0.7665   H         1 RES1   0.0000
   296 H172     -3.2759   -0.1080    2.1341   H         1 RES1   0.0000
   297 H173     -4.5713    0.1716    3.3179   H         1 RES1   0.0000
   298 H174     -5.9963    1.0404    1.3786   H         1 RES1   0.0000
   299 H175     -4.5519    0.8879    0.3730   H         1 RES1   0.0000
   300 H176     -4.9135    2.7049    2.7937   H         1 RES1   0.0000
   301 H177     -4.8200    3.2168    1.1185   H         1 RES1   0.0000
   302 H178     -3.3921    2.5095    1.9117   H         1 RES1   0.0000
   303 H179     -1.8096   -3.8748    0.1905   H         1 RES1   0.0000
   304 H180     -0.2118   -3.8249    0.9814   H         1 RES1   0.0000
   305 H181      0.2030   -2.7061   -2.3468   H         1 RES1   0.0000
   306 H182      0.4207   -4.0647   -1.2139   H         1 RES1   0.0000
   307 H183      4.8881   -3.1853   -0.8169   H         1 RES1   0.0000
   308 H184      4.0740   -1.6680   -0.3561   H         1 RES1   0.0000
   309 H185      4.8933   -2.3904   -3.2096   H         1 RES1   0.0000
   310 H186      4.0579    0.2568   -2.0018   H         1 RES1   0.0000
   311 H187      3.0063   -0.8242   -2.8880   H         1 RES1   0.0000
   312 H188      5.5594    0.4126   -4.0422   H         1 RES1   0.0000
   313 H189      3.9346    0.9856   -4.3868   H         1 RES1   0.0000
   314 H190      4.4357   -0.6248   -4.9077   H         1 RES1   0.0000
   315 H191      6.8444   -1.2310   -3.0942   H         1 RES1   0.0000
   316 H192      6.8480   -2.1450   -1.6052   H         1 RES1   0.0000
   317 H193      6.2968   -0.0989   -0.3216   H         1 RES1   0.0000
   318 H194      6.0466    0.7939   -1.8263   H         1 RES1   0.0000
   319 H195      8.1551    1.4613   -1.1015   H         1 RES1   0.0000
   320 H196      8.4373    0.3614   -2.4480   H         1 RES1   0.0000
   321 H197      8.7394   -0.3079    0.5182   H         1 RES1   0.0000
   322 H198     10.0385   -0.0528   -0.6430   H         1 RES1   0.0000
   323 H199      8.9950   -1.4598   -0.8011   H         1 RES1   0.0000
   324 H200      3.7455   -3.9879   -3.0079   H         1 RES1   0.0000
   325 H201      1.9879   -3.9468   -3.0357   H         1 RES1   0.0000
   326 H202      3.2360   -6.1123   -2.7587   H         1 RES1   0.0000
   327 H203      0.7805   -5.8507   -2.4610   H         1 RES1   0.0000
   328 H204      1.0307   -5.8267   -0.7013   H         1 RES1   0.0000
   329 H205      1.8934   -8.0783   -2.5699   H         1 RES1   0.0000
   330 H206      0.4604   -8.0822   -1.5484   H         1 RES1   0.0000
   331 H207      2.0593   -8.0732   -0.8113   H         1 RES1   0.0000
   332 H208      4.7525   -5.2919   -0.9540   H         1 RES1   0.0000
   333 H209      4.0808   -6.8979   -0.7636   H         1 RES1   0.0000
   334 H210      2.4039   -6.0269    0.8658   H         1 RES1   0.0000
   335 H211      3.1636   -4.4336    0.7843   H         1 RES1   0.0000
   336 H212      5.2948   -5.4499    1.5937   H         1 RES1   0.0000
   337 H213      4.5487   -7.0431    1.5652   H         1 RES1   0.0000
   338 H214      3.5394   -4.7321    3.2875   H         1 RES1   0.0000
   339 H215      4.5660   -6.0447    3.8636   H         1 RES1   0.0000
   340 H216      2.9349   -6.3912    3.2973   H         1 RES1   0.0000
@<TRIPOS>BOND
     1     1    20    1
     2     1    22    1
     3     1    25    1
     4     1   133    1
     5     1   135    1
     6     1   138    1
     7     1   246    1
     8     1   248    1
     9     1   251    1
    10     2     3    1
    11     2    43    1
    12     2    44    1
    13     2    45    1
    14     3     4    1
    15     3    46    1
    16     3    47    1
    17     4     5    1
    18     4    48    1
    19     4    49    1
    20     5     6    1
    21     5    50    1
    22     5    51    1
    23     6     7    1
    24     6     9    1
    25     6    52    1
    26     7     8    1
    27     7    53    1
    28     7    54    1
    29     8    55    1
    30     8    56    1
    31     8    57    1
    32     9    10    1
    33     9    58    1
    34     9    59    1
    35    10    11    1
    36    10    19    1
    37    11    12    1
    38    11    60    1
    39    11    61    1
    40    12    13    1
    41    12    15    1
    42    12    62    1
    43    13    14    1
    44    13    63    1
    45    13    64    1
    46    14    65    1
    47    14    66    1
    48    14    67    1
    49    15    16    1
    50    15    68    1
    51    15    69    1
    52    16    17    1
    53    16    70    1
    54    16    71    1
    55    17    18    1
    56    17    72    1
    57    17    73    1
    58    18    74    1
    59    18    75    1
    60    18    76    1
    61    19    20    2
    62    19    21    1
    63    21    22    1
    64    21    77    1
    65    21    78    1
    66    22    23    1
    67    23    24    1
    68    23    79    1
    69    23    80    1
    70    24    25    2
    71    24    26    1
    72    26    27    1
    73    26    35    1
    74    27    28    1
    75    27    81    1
    76    27    82    1
    77    28    29    1
    78    28    31    1
    79    28    83    1
    80    29    30    1
    81    29    84    1
    82    29    85    1
    83    30    86    1
    84    30    87    1
    85    30    88    1
    86    31    32    1
    87    31    89    1
    88    31    90    1
    89    32    33    1
    90    32    91    1
    91    32    92    1
    92    33    34    1
    93    33    93    1
    94    33    94    1
    95    34    95    1
    96    34    96    1
    97    34    97    1
    98    35    36    1
    99    35    98    1
   100    35    99    1
   101    36    37    1
   102    36    39    1
   103    36   100    1
   104    37    38    1
   105    37   101    1
   106    37   102    1
   107    38   103    1
   108    38   104    1
   109    38   105    1
   110    39    40    1
   111    39   106    1
   112    39   107    1
   113    40    41    1
   114    40   108    1
   115    40   109    1
   116    41    42    1
   117    41   110    1
   118    41   111    1
   119    42   112    1
   120    42   113    1
   121    42   114    1
   122   115   116    1
   123   115   156    1
   124   115   157    1
   125   115   158    1
   126   116   117    1
   127   116   159    1
   128   116   160    1
   129   117   118    1
   130   117   161    1
   131   117   162    1
   132   118   119    1
   133   118   163    1
   134   118   164    1
   135   119   120    1
   136   119   122    1
   137   119   165    1
   138   120   121    1
   139   120   166    1
   140   120   167    1
   141   121   168    1
   142   121   169    1
   143   121   170    1
   144   122   123    1
   145   122   171    1
   146   122   172    1
   147   123   124    1
   148   123   132    1
   149   124   125    1
   150   124   173    1
   151   124   174    1
   152   125   126    1
   153   125   128    1
   154   125   175    1
   155   126   127    1
   156   126   176    1
   157   126   177    1
   158   127   178    1
   159   127   179    1
   160   127   180    1
   161   128   129    1
   162   128   181    1
   163   128   182    1
   164   129   130    1
   165   129   183    1
   166   129   184    1
   167   130   131    1
   168   130   185    1
   169   130   186    1
   170   131   187    1
   171   131   188    1
   172   131   189    1
   173   132   133    2
   174   132   134    1
   175   134   135    1
   176   134   190    1
   177   134   191    1
   178   135   136    1
   179   136   137    1
   180   136   192    1
   181   136   193    1
   182   137   138    2
   183   137   139    1
   184   139   140    1
   185   139   148    1
   186   140   141    1
   187   140   194    1
   188   140   195    1
   189   141   142    1
   190   141   144    1
   191   141   196    1
   192   142   143    1
   193   142   197    1
   194   142   198    1
   195   143   199    1
   196   143   200    1
   197   143   201    1
   198   144   145    1
   199   144   202    1
   200   144   203    1
   201   145   146    1
   202   145   204    1
   203   145   205    1
   204   146   147    1
   205   146   206    1
   206   146   207    1
   207   147   208    1
   208   147   209    1
   209   147   210    1
   210   148   149    1
   211   148   211    1
   212   148   212    1
   213   149   150    1
   214   149   152    1
   215   149   213    1
   216   150   151    1
   217   150   214    1
   218   150   215    1
   219   151   216    1
   220   151   217    1
   221   151   218    1
   222   152   153    1
   223   152   219    1
   224   152   220    1
   225   153   154    1
   226   153   221    1
   227   153   222    1
   228   154   155    1
   229   154   223    1
   230   154   224    1
   231   155   225    1
   232   155   226    1
   233   155   227    1
   234   228   229    1
   235   228   269    1
   236   228   270    1
   237   228   271    1
   238   229   230    1
   239   229   272    1
   240   229   273    1
   241   230   231    1
   242   230   274    1
   243   230   275    1
   244   231   232    1
   245   231   276    1
   246   231   277    1
   247   232   233    1
   248   232   235    1
   249   232   278    1
   250   233   234    1
   251   233   279    1
   252   233   280    1
   253   234   281    1
   254   234   282    1
   255   234   283    1
   256   235   236    1
   257   235   284    1
   258   235   285    1
   259   236   237    1
   260   236   245    1
   261   237   238    1
   262   237   286    1
   263   237   287    1
   264   238   239    1
   265   238   241    1
   266   238   288    1
   267   239   240    1
   268   239   289    1
   269   239   290    1
   270   240   291    1
   271   240   292    1
   272   240   293    1
   273   241   242    1
   274   241   294    1
   275   241   295    1
   276   242   243    1
   277   242   296    1
   278   242   297    1
   279   243   244    1
   280   243   298    1
   281   243   299    1
   282   244   300    1
   283   244   301    1
   284   244   302    1
   285   245   246    2
   286   245   247    1
   287   247   248    1
   288   247   303    1
   289   247   304    1
   290   248   249    1
   291   249   250    1
   292   249   305    1
   293   249   306    1
   294   250   251    2
   295   250   252    1
   296   252   253    1
   297   252   261    1
   298   253   254    1
   299   253   307    1
   300   253   308    1
   301   254   255    1
   302   254   257    1
   303   254   309    1
   304   255   256    1
   305   255   310    1
   306   255   311    1
   307   256   312    1
   308   256   313    1
   309   256   314    1
   310   257   258    1
   311   257   315    1
   312   257   316    1
   313   258   259    1
   314   258   317    1
   315   258   318    1
   316   259   260    1
   317   259   319    1
   318   259   320    1
   319   260   321    1
   320   260   322    1
   321   260   323    1
   322   261   262    1
   323   261   324    1
   324   261   325    1
   325   262   263    1
   326   262   265    1
   327   262   326    1
   328   263   264    1
   329   263   327    1
   330   263   328    1
   331   264   329    1
   332   264   330    1
   333   264   331    1
   334   265   266    1
   335   265   332    1
   336   265   333    1
   337   266   267    1
   338   266   334    1
   339   266   335    1
   340   267   268    1
   341   267   336    1
   342   267   337    1
   343   268   338    1
   344   268   339    1
   345   268   340    1
@<TRIPOS>SUBSTRUCTURE
     1 RES1      340 GROUP             0 ****  ****    0  
