@<TRIPOS>MOLECULE
am_c3_9H2O_c0_0_nunpairedes_0_charge_3 Charge: 3 Unpaired_Electrons: 5 XTB_Unpaired_Electrons: 0 XTB_Charge: 3
   196   209     1     0     0
SMALL
NoCharges
****
Generated from Architector

@<TRIPOS>ATOM
     1 Sm1       0.1937   -0.0341   -0.0399   Sm        1 RES1   0.0000
     2 C1        7.8624   -4.0335    2.6896   C.3       1 RES1   0.0000
     3 C2        9.0612   -3.2419    2.1788   C.3       1 RES1   0.0000
     4 C3        8.8140   -2.7571    0.7523   C.3       1 RES1   0.0000
     5 C4        9.9645   -1.9182    0.1995   C.3       1 RES1   0.0000
     6 C5        9.9141   -1.7224   -1.3172   C.3       1 RES1   0.0000
     7 C6        8.7773   -0.8137   -1.8035   C.3       1 RES1   0.0000
     8 C7        7.3870   -1.2797   -1.5016   C.ar      1 RES1   0.0000
     9 C8        6.9531   -2.5771   -1.7642   C.ar      1 RES1   0.0000
    10 C9        5.6677   -2.9774   -1.4512   C.ar      1 RES1   0.0000
    11 C10       4.7323   -2.0639   -0.9685   C.ar      1 RES1   0.0000
    12 N1        3.3859   -2.4645   -0.7325   N.am      1 RES1   0.0000
    13 C11       2.7903   -3.4714   -1.6233   C.3       1 RES1   0.0000
    14 C12       2.4607   -4.7740   -0.9041   C.3       1 RES1   0.0000
    15 C13       2.5636   -1.8794    0.1375   C.2       1 RES1   0.0000
    16 O1        1.3357   -2.1209    0.1621   O.2       1 RES1   0.0000
    17 C14       3.0336   -0.8199    1.1160   C.ar      1 RES1   0.0000
    18 C15       4.0464   -0.9292    2.0665   C.ar      1 RES1   0.0000
    19 C16       4.2281    0.1471    2.9272   C.ar      1 RES1   0.0000
    20 C17       3.4629    1.3042    2.7936   C.ar      1 RES1   0.0000
    21 C18       2.4848    1.3458    1.8039   C.ar      1 RES1   0.0000
    22 C19       1.6828    2.5357    1.3951   C.ar      1 RES1   0.0000
    23 C20       1.8644    3.8381    1.8679   C.ar      1 RES1   0.0000
    24 C21       1.2170    4.8845    1.2181   C.ar      1 RES1   0.0000
    25 C22       0.4091    4.6403    0.1133   C.ar      1 RES1   0.0000
    26 C23       0.1971    3.3070   -0.2443   C.ar      1 RES1   0.0000
    27 C24      -0.4870    2.7999   -1.4790   C.2       1 RES1   0.0000
    28 O2       -0.4241    1.5689   -1.6726   O.2       1 RES1   0.0000
    29 N2       -0.9214    3.5996   -2.5064   N.am      1 RES1   0.0000
    30 C25      -0.4561    3.1264   -3.8247   C.3       1 RES1   0.0000
    31 C26      -1.3525    2.1071   -4.5146   C.3       1 RES1   0.0000
    32 C27      -2.1394    4.3271   -2.4744   C.ar      1 RES1   0.0000
    33 C28      -2.7112    4.8236   -3.6467   C.ar      1 RES1   0.0000
    34 C29      -4.0448    5.1824   -3.6772   C.ar      1 RES1   0.0000
    35 C30      -4.8435    5.1362   -2.5399   C.ar      1 RES1   0.0000
    36 C31      -6.3062    5.4334   -2.6265   C.3       1 RES1   0.0000
    37 C32      -7.2350    4.3715   -2.0153   C.3       1 RES1   0.0000
    38 C33      -7.1441    2.9843   -2.6607   C.3       1 RES1   0.0000
    39 C34      -5.9413    2.1646   -2.1862   C.3       1 RES1   0.0000
    40 C35      -6.0496    0.6742   -2.5176   C.3       1 RES1   0.0000
    41 C36      -5.9546    0.3966   -4.0126   C.3       1 RES1   0.0000
    42 C37      -4.2197    4.7983   -1.3396   C.ar      1 RES1   0.0000
    43 C38      -2.9074    4.3757   -1.3061   C.ar      1 RES1   0.0000
    44 N3        0.8106    2.3025    0.4081   N.ar      1 RES1   0.0000
    45 N4        2.2651    0.2670    1.0457   N.ar      1 RES1   0.0000
    46 C39       5.1322   -0.7412   -0.7972   C.ar      1 RES1   0.0000
    47 C40       6.4515   -0.3825   -0.9995   C.ar      1 RES1   0.0000
    48 H1        8.0391   -4.3886    3.7002   H         1 RES1   0.0000
    49 H2        7.6744   -4.8967    2.0537   H         1 RES1   0.0000
    50 H3        6.9653   -3.4127    2.6925   H         1 RES1   0.0000
    51 H4        9.9497   -3.8744    2.2019   H         1 RES1   0.0000
    52 H5        9.2461   -2.3883    2.8350   H         1 RES1   0.0000
    53 H6        7.8899   -2.1724    0.7372   H         1 RES1   0.0000
    54 H7        8.6680   -3.6280    0.1083   H         1 RES1   0.0000
    55 H8       10.9049   -2.4194    0.4360   H         1 RES1   0.0000
    56 H9        9.9806   -0.9456    0.6962   H         1 RES1   0.0000
    57 H10       9.8528   -2.6972   -1.8016   H         1 RES1   0.0000
    58 H11      10.8564   -1.2687   -1.6357   H         1 RES1   0.0000
    59 H12       8.8795   -0.7124   -2.8875   H         1 RES1   0.0000
    60 H13       8.9240    0.1783   -1.3753   H         1 RES1   0.0000
    61 H14       7.6244   -3.2967   -2.2053   H         1 RES1   0.0000
    62 H15       5.4036   -4.0130   -1.5861   H         1 RES1   0.0000
    63 H16       3.4914   -3.6519   -2.4362   H         1 RES1   0.0000
    64 H17       1.8708   -3.0432   -2.0377   H         1 RES1   0.0000
    65 H18       3.3437   -5.1862   -0.4260   H         1 RES1   0.0000
    66 H19       2.0850   -5.5146   -1.6054   H         1 RES1   0.0000
    67 H20       1.6971   -4.6054   -0.1515   H         1 RES1   0.0000
    68 H21       4.6701   -1.8101    2.1346   H         1 RES1   0.0000
    69 H22       4.9755    0.0873    3.7053   H         1 RES1   0.0000
    70 H23       3.6351    2.1498    3.4376   H         1 RES1   0.0000
    71 H24       2.4971    4.0521    2.7128   H         1 RES1   0.0000
    72 H25       1.3737    5.9009    1.5526   H         1 RES1   0.0000
    73 H26      -0.0352    5.4494   -0.4529   H         1 RES1   0.0000
    74 H27       0.5308    2.6821   -3.6723   H         1 RES1   0.0000
    75 H28      -0.3310    4.0096   -4.4526   H         1 RES1   0.0000
    76 H29      -1.4727    1.2349   -3.8782   H         1 RES1   0.0000
    77 H30      -0.9024    1.7967   -5.4538   H         1 RES1   0.0000
    78 H31      -2.3287    2.5249   -4.7357   H         1 RES1   0.0000
    79 H32      -2.1506    4.9073   -4.5631   H         1 RES1   0.0000
    80 H33      -4.4846    5.4787   -4.6177   H         1 RES1   0.0000
    81 H34      -6.5869    5.5664   -3.6703   H         1 RES1   0.0000
    82 H35      -6.5109    6.3795   -2.1209   H         1 RES1   0.0000
    83 H36      -8.2577    4.7356   -2.1368   H         1 RES1   0.0000
    84 H37      -7.0584    4.2740   -0.9430   H         1 RES1   0.0000
    85 H38      -7.1276    3.0943   -3.7449   H         1 RES1   0.0000
    86 H39      -8.0500    2.4325   -2.3982   H         1 RES1   0.0000
    87 H40      -5.8683    2.2735   -1.0996   H         1 RES1   0.0000
    88 H41      -5.0204    2.5548   -2.6256   H         1 RES1   0.0000
    89 H42      -6.9940    0.2864   -2.1327   H         1 RES1   0.0000
    90 H43      -5.2395    0.1436   -2.0019   H         1 RES1   0.0000
    91 H44      -6.7867    0.8521   -4.5397   H         1 RES1   0.0000
    92 H45      -5.9826   -0.6728   -4.2092   H         1 RES1   0.0000
    93 H46      -5.0268    0.8011   -4.4152   H         1 RES1   0.0000
    94 H47      -4.7928    4.8201   -0.4260   H         1 RES1   0.0000
    95 H48      -2.4783    4.0465   -0.3706   H         1 RES1   0.0000
    96 H49       4.4129    0.0231   -0.5527   H         1 RES1   0.0000
    97 H50       6.7422    0.6367   -0.7993   H         1 RES1   0.0000
    98 C41      -0.2217   -5.2844    5.6642   C.3       1 RES1   0.0000
    99 C42       0.5681   -5.0107    6.9399   C.3       1 RES1   0.0000
   100 C43       1.1404   -3.5957    6.9194   C.3       1 RES1   0.0000
   101 C44       1.9241   -3.2397    8.1809   C.3       1 RES1   0.0000
   102 C45       2.6869   -1.9186    8.0656   C.3       1 RES1   0.0000
   103 C46       1.7953   -0.6685    8.0754   C.3       1 RES1   0.0000
   104 C47       0.8428   -0.5760    6.9325   C.ar      1 RES1   0.0000
   105 C48      -0.5158   -0.3898    7.1583   C.ar      1 RES1   0.0000
   106 C49      -1.4259   -0.3861    6.1232   C.ar      1 RES1   0.0000
   107 C50      -1.0209   -0.6035    4.8017   C.ar      1 RES1   0.0000
   108 N5       -1.9943   -0.7900    3.7701   N.am      1 RES1   0.0000
   109 C51      -3.3919   -0.8378    4.2087   C.3       1 RES1   0.0000
   110 C52      -3.7810   -2.1360    4.9022   C.3       1 RES1   0.0000
   111 C53      -1.6363   -0.8233    2.4728   C.2       1 RES1   0.0000
   112 O3       -0.5471   -0.3279    2.0835   O.2       1 RES1   0.0000
   113 C54      -2.4762   -1.4291    1.3653   C.ar      1 RES1   0.0000
   114 C55      -3.7114   -2.0773    1.4341   C.ar      1 RES1   0.0000
   115 C56      -4.3379   -2.4677    0.2569   C.ar      1 RES1   0.0000
   116 C57      -3.6925   -2.3015   -0.9557   C.ar      1 RES1   0.0000
   117 C58      -2.4055   -1.7558   -0.9517   C.ar      1 RES1   0.0000
   118 C59      -1.6042   -1.6239   -2.2020   C.ar      1 RES1   0.0000
   119 C60      -2.1091   -2.0205   -3.4434   C.ar      1 RES1   0.0000
   120 C61      -1.3124   -1.8414   -4.5567   C.ar      1 RES1   0.0000
   121 C62      -0.0575   -1.2519   -4.4333   C.ar      1 RES1   0.0000
   122 C63       0.3957   -0.8746   -3.1696   C.ar      1 RES1   0.0000
   123 C64       1.6874   -0.1535   -2.7798   C.2       1 RES1   0.0000
   124 O4        1.8579   -0.0022   -1.5536   O.2       1 RES1   0.0000
   125 N6        2.5928    0.3629   -3.6239   N.am      1 RES1   0.0000
   126 C65       2.7236   -0.0101   -5.0254   C.3       1 RES1   0.0000
   127 C66       3.1259   -1.4768   -5.1385   C.3       1 RES1   0.0000
   128 C67       3.6547    1.1737   -3.0849   C.ar      1 RES1   0.0000
   129 C68       3.4059    2.2019   -2.1776   C.ar      1 RES1   0.0000
   130 C69       4.4375    3.0131   -1.7356   C.ar      1 RES1   0.0000
   131 C70       5.7468    2.8399   -2.1790   C.ar      1 RES1   0.0000
   132 C71       6.8632    3.7570   -1.7767   C.3       1 RES1   0.0000
   133 C72       7.4123    3.5934   -0.3478   C.3       1 RES1   0.0000
   134 C73       6.4741    3.9990    0.7893   C.3       1 RES1   0.0000
   135 C74       6.0967    5.4794    0.7668   C.3       1 RES1   0.0000
   136 C75       5.1673    5.8476    1.9206   C.3       1 RES1   0.0000
   137 C76       4.7451    7.3110    1.8637   C.3       1 RES1   0.0000
   138 C77       5.9793    1.8086   -3.0837   C.ar      1 RES1   0.0000
   139 C78       4.9626    0.9853   -3.5241   C.ar      1 RES1   0.0000
   140 N7       -0.3808   -1.0973   -2.0942   N.ar      1 RES1   0.0000
   141 N8       -1.8536   -1.3050    0.1762   N.ar      1 RES1   0.0000
   142 C79       0.3571   -0.7153    4.5670   C.ar      1 RES1   0.0000
   143 C80       1.2595   -0.6768    5.6076   C.ar      1 RES1   0.0000
   144 H51      -0.6473   -6.2835    5.6813   H         1 RES1   0.0000
   145 H52       0.4226   -5.2013    4.7897   H         1 RES1   0.0000
   146 H53      -1.0339   -4.5651    5.5560   H         1 RES1   0.0000
   147 H54       1.3744   -5.7399    7.0326   H         1 RES1   0.0000
   148 H55      -0.0867   -5.1267    7.8050   H         1 RES1   0.0000
   149 H56       0.3094   -2.9001    6.7914   H         1 RES1   0.0000
   150 H57       1.7970   -3.4893    6.0497   H         1 RES1   0.0000
   151 H58       2.6515   -4.0323    8.3707   H         1 RES1   0.0000
   152 H59       1.2493   -3.2029    9.0373   H         1 RES1   0.0000
   153 H60       3.2939   -1.9461    7.1598   H         1 RES1   0.0000
   154 H61       3.3684   -1.8313    8.9135   H         1 RES1   0.0000
   155 H62       2.4414    0.2118    8.0644   H         1 RES1   0.0000
   156 H63       1.2357   -0.6513    9.0090   H         1 RES1   0.0000
   157 H64      -0.8722   -0.2756    8.1721   H         1 RES1   0.0000
   158 H65      -2.4542   -0.2448    6.4050   H         1 RES1   0.0000
   159 H66      -4.0303   -0.6349    3.3525   H         1 RES1   0.0000
   160 H67      -3.5445   -0.0082    4.9006   H         1 RES1   0.0000
   161 H68      -3.6231   -2.9980    4.2638   H         1 RES1   0.0000
   162 H69      -4.8289   -2.1039    5.1836   H         1 RES1   0.0000
   163 H70      -3.1943   -2.2815    5.8022   H         1 RES1   0.0000
   164 H71      -4.2067   -2.3017    2.3606   H         1 RES1   0.0000
   165 H72      -5.3257   -2.9074    0.2920   H         1 RES1   0.0000
   166 H73      -4.1754   -2.6033   -1.8678   H         1 RES1   0.0000
   167 H74      -3.0903   -2.4493   -3.5575   H         1 RES1   0.0000
   168 H75      -1.6681   -2.1458   -5.5311   H         1 RES1   0.0000
   169 H76       0.5202   -1.1058   -5.3255   H         1 RES1   0.0000
   170 H77       3.5005    0.6166   -5.4600   H         1 RES1   0.0000
   171 H78       1.7968    0.2242   -5.5505   H         1 RES1   0.0000
   172 H79       4.0915   -1.6202   -4.6630   H         1 RES1   0.0000
   173 H80       3.2097   -1.7876   -6.1740   H         1 RES1   0.0000
   174 H81       2.4121   -2.1218   -4.6353   H         1 RES1   0.0000
   175 H82       2.3990    2.3890   -1.8267   H         1 RES1   0.0000
   176 H83       4.2137    3.8275   -1.0626   H         1 RES1   0.0000
   177 H84       6.5419    4.7889   -1.9031   H         1 RES1   0.0000
   178 H85       7.7029    3.5966   -2.4517   H         1 RES1   0.0000
   179 H86       8.3166    4.2010   -0.2708   H         1 RES1   0.0000
   180 H87       7.7135    2.5546   -0.1985   H         1 RES1   0.0000
   181 H88       6.9859    3.7894    1.7330   H         1 RES1   0.0000
   182 H89       5.5718    3.3787    0.7674   H         1 RES1   0.0000
   183 H90       5.6008    5.7270   -0.1747   H         1 RES1   0.0000
   184 H91       7.0061    6.0783    0.8310   H         1 RES1   0.0000
   185 H92       5.6698    5.6526    2.8702   H         1 RES1   0.0000
   186 H93       4.2781    5.2088    1.8743   H         1 RES1   0.0000
   187 H94       5.6124    7.9620    1.9333   H         1 RES1   0.0000
   188 H95       4.0786    7.5519    2.6885   H         1 RES1   0.0000
   189 H96       4.2335    7.5310    0.9277   H         1 RES1   0.0000
   190 H97       6.9752    1.6555   -3.4708   H         1 RES1   0.0000
   191 H98       5.2073    0.1995   -4.2189   H         1 RES1   0.0000
   192 H99       0.7524   -0.8644    3.5748   H         1 RES1   0.0000
   193 H100      2.3129   -0.7650    5.3852   H         1 RES1   0.0000
   194 O5       -2.1830    1.4827    0.7594   O.3       1 RES1   0.0000
   195 H101     -3.0537    1.5979    0.3559   H         1 RES1   0.0000
   196 H102     -2.2341    1.9139    1.6234   H         1 RES1   0.0000
@<TRIPOS>BOND
     1     1    16    1
     2     1    28    1
     3     1    44    1
     4     1    45    1
     5     1   112    1
     6     1   124    1
     7     1   140    1
     8     1   141    1
     9     1   194    1
    10     2     3    1
    11     2    48    1
    12     2    49    1
    13     2    50    1
    14     3     4    1
    15     3    51    1
    16     3    52    1
    17     4     5    1
    18     4    53    1
    19     4    54    1
    20     5     6    1
    21     5    55    1
    22     5    56    1
    23     6     7    1
    24     6    57    1
    25     6    58    1
    26     7     8    1
    27     7    59    1
    28     7    60    1
    29     8     9    1
    30     8    47    2
    31     9    10    2
    32     9    61    1
    33    10    11    1
    34    10    62    1
    35    11    12    1
    36    11    46    2
    37    12    13    1
    38    12    15    1
    39    13    14    1
    40    13    63    1
    41    13    64    1
    42    14    65    1
    43    14    66    1
    44    14    67    1
    45    15    16    2
    46    15    17    1
    47    17    18    1
    48    17    45    2
    49    18    19    2
    50    18    68    1
    51    19    20    1
    52    19    69    1
    53    20    21    2
    54    20    70    1
    55    21    22    1
    56    21    45    1
    57    22    23    1
    58    22    44    2
    59    23    24    2
    60    23    71    1
    61    24    25    1
    62    24    72    1
    63    25    26    2
    64    25    73    1
    65    26    27    1
    66    26    44    1
    67    27    28    2
    68    27    29    1
    69    29    30    1
    70    29    32    1
    71    30    31    1
    72    30    74    1
    73    30    75    1
    74    31    76    1
    75    31    77    1
    76    31    78    1
    77    32    33    1
    78    32    43    2
    79    33    34    2
    80    33    79    1
    81    34    35    1
    82    34    80    1
    83    35    36    1
    84    35    42    2
    85    36    37    1
    86    36    81    1
    87    36    82    1
    88    37    38    1
    89    37    83    1
    90    37    84    1
    91    38    39    1
    92    38    85    1
    93    38    86    1
    94    39    40    1
    95    39    87    1
    96    39    88    1
    97    40    41    1
    98    40    89    1
    99    40    90    1
   100    41    91    1
   101    41    92    1
   102    41    93    1
   103    42    43    1
   104    42    94    1
   105    43    95    1
   106    46    47    1
   107    46    96    1
   108    47    97    1
   109    98    99    1
   110    98   144    1
   111    98   145    1
   112    98   146    1
   113    99   100    1
   114    99   147    1
   115    99   148    1
   116   100   101    1
   117   100   149    1
   118   100   150    1
   119   101   102    1
   120   101   151    1
   121   101   152    1
   122   102   103    1
   123   102   153    1
   124   102   154    1
   125   103   104    1
   126   103   155    1
   127   103   156    1
   128   104   105    1
   129   104   143    2
   130   105   106    2
   131   105   157    1
   132   106   107    1
   133   106   158    1
   134   107   108    1
   135   107   142    2
   136   108   109    1
   137   108   111    1
   138   109   110    1
   139   109   159    1
   140   109   160    1
   141   110   161    1
   142   110   162    1
   143   110   163    1
   144   111   112    2
   145   111   113    1
   146   113   114    1
   147   113   141    2
   148   114   115    2
   149   114   164    1
   150   115   116    1
   151   115   165    1
   152   116   117    2
   153   116   166    1
   154   117   118    1
   155   117   141    1
   156   118   119    1
   157   118   140    2
   158   119   120    2
   159   119   167    1
   160   120   121    1
   161   120   168    1
   162   121   122    2
   163   121   169    1
   164   122   123    1
   165   122   140    1
   166   123   124    2
   167   123   125    1
   168   125   126    1
   169   125   128    1
   170   126   127    1
   171   126   170    1
   172   126   171    1
   173   127   172    1
   174   127   173    1
   175   127   174    1
   176   128   129    1
   177   128   139    2
   178   129   130    2
   179   129   175    1
   180   130   131    1
   181   130   176    1
   182   131   132    1
   183   131   138    2
   184   132   133    1
   185   132   177    1
   186   132   178    1
   187   133   134    1
   188   133   179    1
   189   133   180    1
   190   134   135    1
   191   134   181    1
   192   134   182    1
   193   135   136    1
   194   135   183    1
   195   135   184    1
   196   136   137    1
   197   136   185    1
   198   136   186    1
   199   137   187    1
   200   137   188    1
   201   137   189    1
   202   138   139    1
   203   138   190    1
   204   139   191    1
   205   142   143    1
   206   142   192    1
   207   143   193    1
   208   194   195    1
   209   194   196    1
@<TRIPOS>SUBSTRUCTURE
     1 RES1      196 GROUP             0 ****  ****    0  
