@<TRIPOS>MOLECULE
tri_tri_mer_capped_0_nunpairedes_0_charge_3 Charge: 3 Unpaired_Electrons: 5 XTB_Unpaired_Electrons: 0 XTB_Charge: 3
    98   108     1     0     0
SMALL
NoCharges
****
Generated from Architector

@<TRIPOS>ATOM
     1 Sm1       1.1518   -0.2267    0.2377   Sm        1 RES1   0.0000
     2 C1       -2.0728    3.7906    0.9188   C.3       1 RES1   0.0000
     3 C2       -0.7960    4.6070    1.0981   C.3       1 RES1   0.0000
     4 C3        0.2559    3.8808    1.9419   C.3       1 RES1   0.0000
     5 C4        0.9595    2.7216    1.1922   C.3       1 RES1   0.0000
     6 C5        2.4990    2.8529    1.2635   C.3       1 RES1   0.0000
     7 C6        3.0754    1.8870    0.2817   C.ar      1 RES1   0.0000
     8 N1        2.8873    2.2084   -0.9879   N.ar      1 RES1   0.0000
     9 N2        3.0245    1.3794   -1.9649   N.ar      1 RES1   0.0000
    10 C7        3.1140    0.0976   -1.6256   C.ar      1 RES1   0.0000
    11 C8        2.4508   -0.9207   -2.4859   C.ar      1 RES1   0.0000
    12 C9        2.7393   -1.3136   -3.7793   C.ar      1 RES1   0.0000
    13 C10       1.8737   -2.2353   -4.3604   C.ar      1 RES1   0.0000
    14 C11       0.7793   -2.7361   -3.6641   C.ar      1 RES1   0.0000
    15 C12       0.5725   -2.3112   -2.3534   C.ar      1 RES1   0.0000
    16 C13      -0.4674   -2.7772   -1.3957   C.ar      1 RES1   0.0000
    17 C14      -1.4924   -3.6816   -1.6564   C.ar      1 RES1   0.0000
    18 C15      -2.3710   -3.9907   -0.6243   C.ar      1 RES1   0.0000
    19 C16      -2.2021   -3.4544    0.6508   C.ar      1 RES1   0.0000
    20 C17      -1.1244   -2.5948    0.8510   C.ar      1 RES1   0.0000
    21 C18      -0.7205   -1.8812    2.0889   C.ar      1 RES1   0.0000
    22 N3        0.4978   -1.3100    1.9954   N.ar      1 RES1   0.0000
    23 N4        1.0337   -0.7290    3.0638   N.ar      1 RES1   0.0000
    24 C19       0.3727   -0.6509    4.2110   C.ar      1 RES1   0.0000
    25 C20       1.2037   -0.1830    5.3482   C.3       1 RES1   0.0000
    26 C21       2.3945   -1.1463    5.6097   C.3       1 RES1   0.0000
    27 C22       1.9554   -2.4116    6.3396   C.3       1 RES1   0.0000
    28 C23       1.0407   -3.3050    5.5111   C.3       1 RES1   0.0000
    29 C24       1.7453   -4.1708    4.4750   C.3       1 RES1   0.0000
    30 C25      -1.0652   -0.7748    4.0593   C.ar      1 RES1   0.0000
    31 C26      -2.0268    0.1553    4.6749   C.3       1 RES1   0.0000
    32 C27      -2.5532    1.0930    3.5366   C.3       1 RES1   0.0000
    33 C28      -4.0621    1.0535    3.2933   C.3       1 RES1   0.0000
    34 C29      -4.6295   -0.2362    2.6930   C.3       1 RES1   0.0000
    35 C30      -4.7630   -1.4049    3.6642   C.3       1 RES1   0.0000
    36 N5       -1.5129   -1.5368    3.0772   N.ar      1 RES1   0.0000
    37 N6       -0.3244   -2.2461   -0.1714   N.ar      1 RES1   0.0000
    38 N7        1.3982   -1.3986   -1.8077   N.ar      1 RES1   0.0000
    39 N8        3.4224   -0.3097   -0.3846   N.ar      1 RES1   0.0000
    40 C31       3.5918    0.5893    0.5937   C.ar      1 RES1   0.0000
    41 C32       4.1263    0.1179    1.9106   C.3       1 RES1   0.0000
    42 C33       4.4177   -1.3963    1.9297   C.3       1 RES1   0.0000
    43 C34       5.5967   -1.7458    1.0060   C.3       1 RES1   0.0000
    44 C35       5.7178   -3.2347    0.6885   C.3       1 RES1   0.0000
    45 C36       6.1382   -4.0630    1.8962   C.3       1 RES1   0.0000
    46 H1       -2.6449    4.2213    0.1032   H         1 RES1   0.0000
    47 H2       -2.6848    3.8238    1.8169   H         1 RES1   0.0000
    48 H3       -1.8569    2.7407    0.6882   H         1 RES1   0.0000
    49 H4       -1.0382    5.5532    1.5895   H         1 RES1   0.0000
    50 H5       -0.3732    4.8538    0.1200   H         1 RES1   0.0000
    51 H6       -0.1965    3.5259    2.8679   H         1 RES1   0.0000
    52 H7        1.0207    4.6041    2.2125   H         1 RES1   0.0000
    53 H8        0.6743    2.7982    0.1290   H         1 RES1   0.0000
    54 H9        0.6331    1.7101    1.6143   H         1 RES1   0.0000
    55 H10       2.8524    2.6796    2.2780   H         1 RES1   0.0000
    56 H11       2.7611    3.8641    0.9488   H         1 RES1   0.0000
    57 H12       3.5903   -0.9131   -4.3059   H         1 RES1   0.0000
    58 H13       2.0713   -2.5828   -5.3611   H         1 RES1   0.0000
    59 H14       0.1374   -3.4629   -4.1344   H         1 RES1   0.0000
    60 H15      -1.6088   -4.1114   -2.6382   H         1 RES1   0.0000
    61 H16      -3.2021   -4.6431   -0.8475   H         1 RES1   0.0000
    62 H17      -2.8879   -3.6962    1.4492   H         1 RES1   0.0000
    63 H18       0.6294   -0.0346    6.2607   H         1 RES1   0.0000
    64 H19       1.6303    0.7772    5.0390   H         1 RES1   0.0000
    65 H20       3.1357   -0.6221    6.2141   H         1 RES1   0.0000
    66 H21       2.8641   -1.4091    4.6583   H         1 RES1   0.0000
    67 H22       1.4556   -2.1200    7.2648   H         1 RES1   0.0000
    68 H23       2.8430   -2.9774    6.6283   H         1 RES1   0.0000
    69 H24       0.3088   -2.6602    5.0042   H         1 RES1   0.0000
    70 H25       0.4871   -3.9511    6.1891   H         1 RES1   0.0000
    71 H26       2.6291   -4.6345    4.8999   H         1 RES1   0.0000
    72 H27       2.0476   -3.6040    3.5957   H         1 RES1   0.0000
    73 H28       1.0873   -4.9712    4.1520   H         1 RES1   0.0000
    74 H29      -1.5653    0.7308    5.4784   H         1 RES1   0.0000
    75 H30      -2.8807   -0.3977    5.0726   H         1 RES1   0.0000
    76 H31      -2.0264    0.8672    2.5925   H         1 RES1   0.0000
    77 H32      -2.2836    2.1116    3.8160   H         1 RES1   0.0000
    78 H33      -4.2961    1.8673    2.6033   H         1 RES1   0.0000
    79 H34      -4.5747    1.2803    4.2261   H         1 RES1   0.0000
    80 H35      -4.0122   -0.5445    1.8444   H         1 RES1   0.0000
    81 H36      -5.6248   -0.0054    2.3104   H         1 RES1   0.0000
    82 H37      -3.7969   -1.8383    3.9162   H         1 RES1   0.0000
    83 H38      -5.3651   -2.1897    3.2111   H         1 RES1   0.0000
    84 H39      -5.2724   -1.0941    4.5728   H         1 RES1   0.0000
    85 H40       3.3881    0.3939    2.6843   H         1 RES1   0.0000
    86 H41       5.0502    0.6519    2.1669   H         1 RES1   0.0000
    87 H42       3.5093   -1.9541    1.6174   H         1 RES1   0.0000
    88 H43       4.6556   -1.6882    2.9563   H         1 RES1   0.0000
    89 H44       6.5292   -1.4119    1.4591   H         1 RES1   0.0000
    90 H45       5.4874   -1.2025    0.0664   H         1 RES1   0.0000
    91 H46       6.4686   -3.3516   -0.0930   H         1 RES1   0.0000
    92 H47       4.7670   -3.6009    0.2941   H         1 RES1   0.0000
    93 H48       7.0218   -3.6315    2.3603   H         1 RES1   0.0000
    94 H49       6.3925   -5.0759    1.5948   H         1 RES1   0.0000
    95 H50       5.3409   -4.1252    2.6340   H         1 RES1   0.0000
    96 O1       -0.6083    0.7860   -1.2544   O.3       1 RES1   0.0000
    97 H51      -1.0987    1.6180   -1.3780   H         1 RES1   0.0000
    98 H52      -0.8722    0.2576   -2.0285   H         1 RES1   0.0000
@<TRIPOS>BOND
     1     1     8    1
     2     1     9    1
     3     1    22    1
     4     1    23    1
     5     1    36    1
     6     1    37    1
     7     1    38    1
     8     1    39    1
     9     1    96    1
    10     2     3    1
    11     2    46    1
    12     2    47    1
    13     2    48    1
    14     3     4    1
    15     3    49    1
    16     3    50    1
    17     4     5    1
    18     4    51    1
    19     4    52    1
    20     5     6    1
    21     5    53    1
    22     5    54    1
    23     6     7    1
    24     6    55    1
    25     6    56    1
    26     7     8    1
    27     7    40    2
    28     8     9    2
    29     9    10    1
    30    10    11    1
    31    10    39    2
    32    11    12    1
    33    11    38    2
    34    12    13    2
    35    12    57    1
    36    13    14    1
    37    13    58    1
    38    14    15    2
    39    14    59    1
    40    15    16    1
    41    15    38    1
    42    16    17    1
    43    16    37    2
    44    17    18    2
    45    17    60    1
    46    18    19    1
    47    18    61    1
    48    19    20    2
    49    19    62    1
    50    20    21    1
    51    20    37    1
    52    21    22    1
    53    21    36    2
    54    22    23    2
    55    23    24    1
    56    24    25    1
    57    24    30    2
    58    25    26    1
    59    25    63    1
    60    25    64    1
    61    26    27    1
    62    26    65    1
    63    26    66    1
    64    27    28    1
    65    27    67    1
    66    27    68    1
    67    28    29    1
    68    28    69    1
    69    28    70    1
    70    29    71    1
    71    29    72    1
    72    29    73    1
    73    30    31    1
    74    30    36    1
    75    31    32    1
    76    31    74    1
    77    31    75    1
    78    32    33    1
    79    32    76    1
    80    32    77    1
    81    33    34    1
    82    33    78    1
    83    33    79    1
    84    34    35    1
    85    34    80    1
    86    34    81    1
    87    35    82    1
    88    35    83    1
    89    35    84    1
    90    39    40    1
    91    40    41    1
    92    41    42    1
    93    41    85    1
    94    41    86    1
    95    42    43    1
    96    42    87    1
    97    42    88    1
    98    43    44    1
    99    43    89    1
   100    43    90    1
   101    44    45    1
   102    44    91    1
   103    44    92    1
   104    45    93    1
   105    45    94    1
   106    45    95    1
   107    96    97    1
   108    96    98    1
@<TRIPOS>SUBSTRUCTURE
     1 RES1       98 GROUP             0 ****  ****    0  
