@<TRIPOS>MOLECULE
am_c3_9H2O_c0_0_nunpairedes_0_charge_3 Charge: 3 Unpaired_Electrons: 5 XTB_Unpaired_Electrons: 0 XTB_Charge: 3
   130   141     1     0     0
SMALL
NoCharges
****
Generated from Architector

@<TRIPOS>ATOM
     1 Sm1      -0.1348   -0.0724    0.0872   Sm        1 RES1   0.0000
     2 C1       -0.9356    5.2490    1.4983   C.3       1 RES1   0.0000
     3 N1       -0.8054    3.8837    2.0039   N.am      1 RES1   0.0000
     4 C2       -0.8930    2.8394    1.1741   C.2       1 RES1   0.0000
     5 O1       -0.6489    1.6576    1.4664   O.2       1 RES1   0.0000
     6 C3       -1.2881    3.1133   -0.2974   C.3       1 RES1   0.0000
     7 O2       -1.4288    1.8914   -1.0250   O.3       1 RES1   0.0000
     8 C4       -2.7631    1.5539   -1.4247   C.3       1 RES1   0.0000
     9 C5       -3.2254    0.2415   -0.7435   C.2       1 RES1   0.0000
    10 O3       -2.5014   -0.1869    0.1693   O.2       1 RES1   0.0000
    11 N2       -4.3587   -0.3134   -1.1774   N.am      1 RES1   0.0000
    12 C6       -5.1969    0.3729   -2.1543   C.3       1 RES1   0.0000
    13 C7       -4.8953   -1.5607   -0.6972   C.ar      1 RES1   0.0000
    14 C8       -4.2128   -2.3944    0.1907   C.ar      1 RES1   0.0000
    15 C9       -4.8156   -3.5430    0.6817   C.ar      1 RES1   0.0000
    16 C10      -6.0929   -3.9000    0.2830   C.ar      1 RES1   0.0000
    17 C11      -6.7509   -3.1162   -0.6465   C.ar      1 RES1   0.0000
    18 C12      -6.1609   -1.9627   -1.1297   C.ar      1 RES1   0.0000
    19 C13      -0.5665    3.7769    3.4255   C.ar      1 RES1   0.0000
    20 C14      -0.4322    2.5519    4.0818   C.ar      1 RES1   0.0000
    21 C15      -0.2583    2.5085    5.4565   C.ar      1 RES1   0.0000
    22 C16      -0.2117    3.6718    6.2056   C.ar      1 RES1   0.0000
    23 C17      -0.3207    4.8899    5.5620   C.ar      1 RES1   0.0000
    24 C18      -0.4949    4.9437    4.1908   C.ar      1 RES1   0.0000
    25 H1       -1.0107    5.2897    0.4198   H         1 RES1   0.0000
    26 H2       -0.0507    5.8202    1.7779   H         1 RES1   0.0000
    27 H3       -1.8116    5.7402    1.9220   H         1 RES1   0.0000
    28 H4       -0.4729    3.6687   -0.7827   H         1 RES1   0.0000
    29 H5       -2.2163    3.6969   -0.3260   H         1 RES1   0.0000
    30 H6       -2.7488    1.4234   -2.5149   H         1 RES1   0.0000
    31 H7       -3.4395    2.3647   -1.1336   H         1 RES1   0.0000
    32 H8       -4.7395    1.2665   -2.5527   H         1 RES1   0.0000
    33 H9       -6.1374    0.6679   -1.6889   H         1 RES1   0.0000
    34 H10      -5.4065   -0.2905   -2.9908   H         1 RES1   0.0000
    35 H11      -3.2144   -2.1561    0.5185   H         1 RES1   0.0000
    36 H12      -4.2887   -4.1605    1.3968   H         1 RES1   0.0000
    37 H13      -6.5721   -4.7772    0.6852   H         1 RES1   0.0000
    38 H14      -7.7365   -3.3774   -1.0014   H         1 RES1   0.0000
    39 H15      -6.7308   -1.3984   -1.8433   H         1 RES1   0.0000
    40 H16      -0.4809    1.6182    3.5476   H         1 RES1   0.0000
    41 H17      -0.1672    1.5474    5.9398   H         1 RES1   0.0000
    42 H18      -0.0965    3.6333    7.2754   H         1 RES1   0.0000
    43 H19      -0.2801    5.8164    6.1130   H         1 RES1   0.0000
    44 H20      -0.5890    5.9240    3.7639   H         1 RES1   0.0000
    45 C19       2.9619    2.4473   -4.2115   C.3       1 RES1   0.0000
    46 N3        2.3090    1.2579   -3.6824   N.am      1 RES1   0.0000
    47 C20       1.8880    1.1497   -2.4253   C.2       1 RES1   0.0000
    48 O4        1.2050    0.2081   -1.9771   O.2       1 RES1   0.0000
    49 C21       2.2863    2.2570   -1.4318   C.3       1 RES1   0.0000
    50 O5        1.7627    1.8625   -0.1726   O.3       1 RES1   0.0000
    51 C22       2.5396    2.2451    0.9518   C.3       1 RES1   0.0000
    52 C23       2.3902    1.1272    2.0134   C.2       1 RES1   0.0000
    53 O6        1.7900    0.0973    1.6564   O.2       1 RES1   0.0000
    54 N4        2.9293    1.3590    3.2118   N.am      1 RES1   0.0000
    55 C24       3.6785    2.5812    3.4792   C.3       1 RES1   0.0000
    56 C25       2.8698    0.4664    4.3359   C.ar      1 RES1   0.0000
    57 C26       2.4560   -0.8579    4.2148   C.ar      1 RES1   0.0000
    58 C27       2.5013   -1.7090    5.3067   C.ar      1 RES1   0.0000
    59 C28       2.9458   -1.2573    6.5367   C.ar      1 RES1   0.0000
    60 C29       3.3235    0.0653    6.6756   C.ar      1 RES1   0.0000
    61 C30       3.2797    0.9216    5.5910   C.ar      1 RES1   0.0000
    62 C31       2.1800    0.1875   -4.6299   C.ar      1 RES1   0.0000
    63 C32       2.2832   -1.1336   -4.2082   C.ar      1 RES1   0.0000
    64 C33       2.2508   -2.1619   -5.1330   C.ar      1 RES1   0.0000
    65 C34       2.1231   -1.8837   -6.4835   C.ar      1 RES1   0.0000
    66 C35       2.0233   -0.5708   -6.9091   C.ar      1 RES1   0.0000
    67 C36       2.0438    0.4616   -5.9878   C.ar      1 RES1   0.0000
    68 H21       3.1886    3.1713   -3.4418   H         1 RES1   0.0000
    69 H22       2.3197    2.9385   -4.9428   H         1 RES1   0.0000
    70 H23       3.8901    2.1667   -4.7084   H         1 RES1   0.0000
    71 H24       1.8665    3.2311   -1.7228   H         1 RES1   0.0000
    72 H25       3.3828    2.3338   -1.4035   H         1 RES1   0.0000
    73 H26       2.1693    3.2048    1.3390   H         1 RES1   0.0000
    74 H27       3.6004    2.3370    0.6785   H         1 RES1   0.0000
    75 H28       3.8452    3.1727    2.5920   H         1 RES1   0.0000
    76 H29       4.6577    2.3210    3.8821   H         1 RES1   0.0000
    77 H30       3.1460    3.2031    4.1994   H         1 RES1   0.0000
    78 H31       2.1177   -1.2369    3.2671   H         1 RES1   0.0000
    79 H32       2.2214   -2.7452    5.1864   H         1 RES1   0.0000
    80 H33       3.0028   -1.9247    7.3792   H         1 RES1   0.0000
    81 H34       3.6826    0.4488    7.6180   H         1 RES1   0.0000
    82 H35       3.5890    1.9366    5.7602   H         1 RES1   0.0000
    83 H36       2.4290   -1.3546   -3.1636   H         1 RES1   0.0000
    84 H37       2.3757   -3.1819   -4.8005   H         1 RES1   0.0000
    85 H38       2.1221   -2.6827   -7.2053   H         1 RES1   0.0000
    86 H39       1.9606   -0.3320   -7.9601   H         1 RES1   0.0000
    87 H40       1.9755    1.4699   -6.3578   H         1 RES1   0.0000
    88 C37      -0.0195   -4.4128   -3.5495   C.3       1 RES1   0.0000
    89 N5       -0.5736   -3.1069   -3.2140   N.am      1 RES1   0.0000
    90 C38      -0.3385   -2.5274   -2.0349   C.2       1 RES1   0.0000
    91 O7       -0.9054   -1.5021   -1.6175   O.2       1 RES1   0.0000
    92 C39       0.7101   -3.1746   -1.0988   C.3       1 RES1   0.0000
    93 O8        0.8124   -2.3821    0.0809   O.3       1 RES1   0.0000
    94 C40       0.7702   -3.0843    1.3272   C.3       1 RES1   0.0000
    95 C41      -0.2701   -2.3665    2.2315   C.2       1 RES1   0.0000
    96 O9       -0.6271   -1.2394    1.8587   O.2       1 RES1   0.0000
    97 N6       -0.7417   -2.9641    3.3228   N.am      1 RES1   0.0000
    98 C42      -0.1087   -4.1692    3.8302   C.3       1 RES1   0.0000
    99 C43      -1.8326   -2.4307    4.1028   C.ar      1 RES1   0.0000
   100 C44      -2.6274   -1.3608    3.6819   C.ar      1 RES1   0.0000
   101 C45      -3.6891   -0.9260    4.4605   C.ar      1 RES1   0.0000
   102 C46      -3.9866   -1.5393    5.6647   C.ar      1 RES1   0.0000
   103 C47      -3.2049   -2.5976    6.0896   C.ar      1 RES1   0.0000
   104 C48      -2.1426   -3.0366    5.3199   C.ar      1 RES1   0.0000
   105 C49      -1.4771   -2.5632   -4.1884   C.ar      1 RES1   0.0000
   106 C50      -1.8263   -1.2140   -4.1958   C.ar      1 RES1   0.0000
   107 C51      -2.7473   -0.7388   -5.1150   C.ar      1 RES1   0.0000
   108 C52      -3.2997   -1.5844   -6.0629   C.ar      1 RES1   0.0000
   109 C53      -2.9108   -2.9108   -6.0993   C.ar      1 RES1   0.0000
   110 C54      -2.0167   -3.4000   -5.1642   C.ar      1 RES1   0.0000
   111 H41       0.8522   -4.6629   -2.9590   H         1 RES1   0.0000
   112 H42       0.2738   -4.4199   -4.5966   H         1 RES1   0.0000
   113 H43      -0.7660   -5.1941   -3.3950   H         1 RES1   0.0000
   114 H44       1.6877   -3.1812   -1.6050   H         1 RES1   0.0000
   115 H45       0.4044   -4.1988   -0.8574   H         1 RES1   0.0000
   116 H46       1.7692   -3.0205    1.7855   H         1 RES1   0.0000
   117 H47       0.4937   -4.1314    1.1677   H         1 RES1   0.0000
   118 H48       0.7489   -4.4488    3.2331   H         1 RES1   0.0000
   119 H49      -0.8128   -4.9991    3.8486   H         1 RES1   0.0000
   120 H50       0.2487   -3.9815    4.8404   H         1 RES1   0.0000
   121 H51      -2.4512   -0.8488    2.7515   H         1 RES1   0.0000
   122 H52      -4.2941   -0.0971    4.1209   H         1 RES1   0.0000
   123 H53      -4.8133   -1.2039    6.2691   H         1 RES1   0.0000
   124 H54      -3.4045   -3.1040    7.0212   H         1 RES1   0.0000
   125 H55      -1.5805   -3.8708    5.6959   H         1 RES1   0.0000
   126 H56      -1.3785   -0.5281   -3.4948   H         1 RES1   0.0000
   127 H57      -3.0289    0.3051   -5.1041   H         1 RES1   0.0000
   128 H58      -4.0166   -1.2158   -6.7771   H         1 RES1   0.0000
   129 H59      -3.2912   -3.5875   -6.8488   H         1 RES1   0.0000
   130 H60      -1.7639   -4.4433   -5.2179   H         1 RES1   0.0000
@<TRIPOS>BOND
     1     1     5    1
     2     1     7    1
     3     1    10    1
     4     1    48    1
     5     1    50    1
     6     1    53    1
     7     1    91    1
     8     1    93    1
     9     1    96    1
    10     2     3    1
    11     2    25    1
    12     2    26    1
    13     2    27    1
    14     3     4    1
    15     3    19    1
    16     4     5    2
    17     4     6    1
    18     6     7    1
    19     6    28    1
    20     6    29    1
    21     7     8    1
    22     8     9    1
    23     8    30    1
    24     8    31    1
    25     9    10    2
    26     9    11    1
    27    11    12    1
    28    11    13    1
    29    12    32    1
    30    12    33    1
    31    12    34    1
    32    13    14    1
    33    13    18    2
    34    14    15    2
    35    14    35    1
    36    15    16    1
    37    15    36    1
    38    16    17    2
    39    16    37    1
    40    17    18    1
    41    17    38    1
    42    18    39    1
    43    19    20    1
    44    19    24    2
    45    20    21    2
    46    20    40    1
    47    21    22    1
    48    21    41    1
    49    22    23    2
    50    22    42    1
    51    23    24    1
    52    23    43    1
    53    24    44    1
    54    45    46    1
    55    45    68    1
    56    45    69    1
    57    45    70    1
    58    46    47    1
    59    46    62    1
    60    47    48    2
    61    47    49    1
    62    49    50    1
    63    49    71    1
    64    49    72    1
    65    50    51    1
    66    51    52    1
    67    51    73    1
    68    51    74    1
    69    52    53    2
    70    52    54    1
    71    54    55    1
    72    54    56    1
    73    55    75    1
    74    55    76    1
    75    55    77    1
    76    56    57    1
    77    56    61    2
    78    57    58    2
    79    57    78    1
    80    58    59    1
    81    58    79    1
    82    59    60    2
    83    59    80    1
    84    60    61    1
    85    60    81    1
    86    61    82    1
    87    62    63    1
    88    62    67    2
    89    63    64    2
    90    63    83    1
    91    64    65    1
    92    64    84    1
    93    65    66    2
    94    65    85    1
    95    66    67    1
    96    66    86    1
    97    67    87    1
    98    88    89    1
    99    88   111    1
   100    88   112    1
   101    88   113    1
   102    89    90    1
   103    89   105    1
   104    90    91    2
   105    90    92    1
   106    92    93    1
   107    92   114    1
   108    92   115    1
   109    93    94    1
   110    94    95    1
   111    94   116    1
   112    94   117    1
   113    95    96    2
   114    95    97    1
   115    97    98    1
   116    97    99    1
   117    98   118    1
   118    98   119    1
   119    98   120    1
   120    99   100    1
   121    99   104    2
   122   100   101    2
   123   100   121    1
   124   101   102    1
   125   101   122    1
   126   102   103    2
   127   102   123    1
   128   103   104    1
   129   103   124    1
   130   104   125    1
   131   105   106    1
   132   105   110    2
   133   106   107    2
   134   106   126    1
   135   107   108    1
   136   107   127    1
   137   108   109    2
   138   108   128    1
   139   109   110    1
   140   109   129    1
   141   110   130    1
@<TRIPOS>SUBSTRUCTURE
     1 RES1      130 GROUP             0 ****  ****    0  
