@<TRIPOS>MOLECULE
am_c3_9H2O_c0_0_nunpairedes_0_charge_3 Charge: 3 Unpaired_Electrons: 5 XTB_Unpaired_Electrons: 0 XTB_Charge: 3
   272   275     1     0     0
SMALL
NoCharges
****
Generated from Architector

@<TRIPOS>ATOM
     1 Sm1      -0.0944    0.1113   -0.1782   Sm        1 RES1   0.0000
     2 C1       -7.7437    5.0836    0.5589   C.3       1 RES1   0.0000
     3 C2       -6.4691    4.8857   -0.2544   C.3       1 RES1   0.0000
     4 C3       -5.5858    3.7993    0.3589   C.3       1 RES1   0.0000
     5 C4       -4.2617    3.5986   -0.3846   C.3       1 RES1   0.0000
     6 C5       -4.4153    3.1302   -1.8386   C.3       1 RES1   0.0000
     7 C6       -5.1590    1.8112   -2.0719   C.3       1 RES1   0.0000
     8 C7       -4.4377    0.5366   -1.6207   C.3       1 RES1   0.0000
     9 C8       -4.4593    0.3092   -0.1081   C.3       1 RES1   0.0000
    10 N1       -4.2603   -1.0894    0.2304   N.am      1 RES1   0.0000
    11 C9       -5.4227   -1.9466    0.1340   C.3       1 RES1   0.0000
    12 C10      -3.0712   -1.4975    0.6786   C.2       1 RES1   0.0000
    13 O1       -2.0670   -0.7693    0.6243   O.2       1 RES1   0.0000
    14 C11      -3.0554   -2.9040    1.2695   C.3       1 RES1   0.0000
    15 C12      -1.9088   -3.1214    2.2692   C.2       1 RES1   0.0000
    16 O2       -1.0097   -2.2984    2.3956   O.2       1 RES1   0.0000
    17 N2       -1.9460   -4.2856    2.9543   N.am      1 RES1   0.0000
    18 C13      -3.1194   -5.1403    2.9378   C.3       1 RES1   0.0000
    19 C14      -0.8800   -4.6391    3.9023   C.3       1 RES1   0.0000
    20 C15      -0.1552   -5.9483    3.5262   C.3       1 RES1   0.0000
    21 C16       1.1804   -6.2351    4.2430   C.3       1 RES1   0.0000
    22 C17       2.4996   -5.7651    3.6041   C.3       1 RES1   0.0000
    23 C18       2.8992   -6.4498    2.2918   C.3       1 RES1   0.0000
    24 C19       4.4100   -6.4385    2.0108   C.3       1 RES1   0.0000
    25 C20       5.0364   -5.0484    1.8124   C.3       1 RES1   0.0000
    26 C21       4.8271   -4.4178    0.4239   C.3       1 RES1   0.0000
    27 H1       -8.3475    5.8749    0.1232   H         1 RES1   0.0000
    28 H2       -7.5093    5.3589    1.5857   H         1 RES1   0.0000
    29 H3       -8.3355    4.1695    0.5734   H         1 RES1   0.0000
    30 H4       -5.9124    5.8256   -0.2929   H         1 RES1   0.0000
    31 H5       -6.7422    4.6120   -1.2755   H         1 RES1   0.0000
    32 H6       -6.1455    2.8628    0.3963   H         1 RES1   0.0000
    33 H7       -5.3570    4.0778    1.3908   H         1 RES1   0.0000
    34 H8       -3.6423    2.8985    0.1880   H         1 RES1   0.0000
    35 H9       -3.7390    4.5598   -0.4038   H         1 RES1   0.0000
    36 H10      -3.4273    3.0564   -2.3056   H         1 RES1   0.0000
    37 H11      -4.9595    3.9088   -2.3767   H         1 RES1   0.0000
    38 H12      -5.3287    1.7331   -3.1496   H         1 RES1   0.0000
    39 H13      -6.1429    1.8561   -1.6032   H         1 RES1   0.0000
    40 H14      -3.4027    0.5350   -1.9715   H         1 RES1   0.0000
    41 H15      -4.9526   -0.3037   -2.0925   H         1 RES1   0.0000
    42 H16      -5.4259    0.6084    0.3023   H         1 RES1   0.0000
    43 H17      -3.6672    0.8750    0.3861   H         1 RES1   0.0000
    44 H18      -6.1506   -1.4716   -0.5183   H         1 RES1   0.0000
    45 H19      -5.8916   -2.0932    1.1101   H         1 RES1   0.0000
    46 H20      -5.1673   -2.9110   -0.3021   H         1 RES1   0.0000
    47 H21      -2.9544   -3.6253    0.4543   H         1 RES1   0.0000
    48 H22      -4.0075   -3.0912    1.7640   H         1 RES1   0.0000
    49 H23      -3.3853   -5.4560    1.9277   H         1 RES1   0.0000
    50 H24      -3.9800   -4.6352    3.3846   H         1 RES1   0.0000
    51 H25      -2.9158   -6.0301    3.5229   H         1 RES1   0.0000
    52 H26      -1.3235   -4.7573    4.8950   H         1 RES1   0.0000
    53 H27      -0.2100   -3.7816    3.9320   H         1 RES1   0.0000
    54 H28       0.0159   -5.9937    2.4590   H         1 RES1   0.0000
    55 H29      -0.8257   -6.7717    3.7756   H         1 RES1   0.0000
    56 H30       1.2554   -7.3182    4.3279   H         1 RES1   0.0000
    57 H31       1.1410   -5.8473    5.2615   H         1 RES1   0.0000
    58 H32       3.2855   -5.9571    4.3379   H         1 RES1   0.0000
    59 H33       2.5018   -4.6946    3.4254   H         1 RES1   0.0000
    60 H34       2.4043   -5.9621    1.4499   H         1 RES1   0.0000
    61 H35       2.5668   -7.4879    2.3056   H         1 RES1   0.0000
    62 H36       4.5866   -7.0442    1.1158   H         1 RES1   0.0000
    63 H37       4.9331   -6.9181    2.8417   H         1 RES1   0.0000
    64 H38       6.1098   -5.1559    1.9772   H         1 RES1   0.0000
    65 H39       4.6689   -4.3681    2.5822   H         1 RES1   0.0000
    66 H40       4.5031   -5.1727   -0.2926   H         1 RES1   0.0000
    67 H41       5.7658   -4.0104    0.0508   H         1 RES1   0.0000
    68 H42       4.1107   -3.5920    0.4205   H         1 RES1   0.0000
    69 C22       0.2620   -2.8386   -9.6540   C.3       1 RES1   0.0000
    70 C23      -0.1916   -1.3994   -9.4450   C.3       1 RES1   0.0000
    71 C24      -1.6718   -1.1888   -9.7651   C.3       1 RES1   0.0000
    72 C25      -2.6167   -1.8429   -8.7447   C.3       1 RES1   0.0000
    73 C26      -3.6624   -0.8753   -8.1834   C.3       1 RES1   0.0000
    74 C27      -3.1063    0.2467   -7.2961   C.3       1 RES1   0.0000
    75 C28      -3.0761   -0.0749   -5.7973   C.3       1 RES1   0.0000
    76 C29      -2.0667   -1.1816   -5.4729   C.3       1 RES1   0.0000
    77 N3       -1.8604   -1.3549   -4.0422   N.am      1 RES1   0.0000
    78 C30      -2.6859   -2.3837   -3.4328   C.3       1 RES1   0.0000
    79 C31      -1.1566   -0.5395   -3.2547   C.2       1 RES1   0.0000
    80 O3       -1.2558   -0.6147   -2.0144   O.2       1 RES1   0.0000
    81 C32      -0.2825    0.5290   -3.9031   C.3       1 RES1   0.0000
    82 C33       1.0853    0.6945   -3.2208   C.2       1 RES1   0.0000
    83 O4        1.1831    0.6313   -1.9873   O.2       1 RES1   0.0000
    84 N4        2.1273    0.9853   -3.9988   N.am      1 RES1   0.0000
    85 C34       2.0019    1.2573   -5.4208   C.3       1 RES1   0.0000
    86 C35       3.4534    1.2081   -3.4105   C.3       1 RES1   0.0000
    87 C36       3.9598    0.1312   -2.4432   C.3       1 RES1   0.0000
    88 C37       5.4968    0.1202   -2.4541   C.3       1 RES1   0.0000
    89 C38       6.1451   -0.8129   -1.4194   C.3       1 RES1   0.0000
    90 C39       6.6177   -0.1172   -0.1414   C.3       1 RES1   0.0000
    91 C40       5.4899    0.2839    0.8047   C.3       1 RES1   0.0000
    92 C41       6.0245    0.8836    2.1046   C.3       1 RES1   0.0000
    93 C42       4.9015    1.1877    3.0900   C.3       1 RES1   0.0000
    94 H43       1.3140   -2.9468   -9.4008   H         1 RES1   0.0000
    95 H44       0.1331   -3.1259  -10.6929   H         1 RES1   0.0000
    96 H45      -0.3096   -3.5310   -9.0418   H         1 RES1   0.0000
    97 H46       0.4010   -0.7495  -10.0906   H         1 RES1   0.0000
    98 H47       0.0043   -1.0995   -8.4102   H         1 RES1   0.0000
    99 H48      -1.8696   -1.5877  -10.7583   H         1 RES1   0.0000
   100 H49      -1.8697   -0.1173   -9.8129   H         1 RES1   0.0000
   101 H50      -2.0264   -2.2685   -7.9348   H         1 RES1   0.0000
   102 H51      -3.1516   -2.6692   -9.2117   H         1 RES1   0.0000
   103 H52      -4.4133   -1.4356   -7.6231   H         1 RES1   0.0000
   104 H53      -4.1764   -0.4216   -9.0302   H         1 RES1   0.0000
   105 H54      -3.7307    1.1321   -7.4191   H         1 RES1   0.0000
   106 H55      -2.1019    0.5124   -7.6291   H         1 RES1   0.0000
   107 H56      -4.0734   -0.3810   -5.4745   H         1 RES1   0.0000
   108 H57      -2.8116    0.8311   -5.2431   H         1 RES1   0.0000
   109 H58      -1.1241   -0.9680   -5.9778   H         1 RES1   0.0000
   110 H59      -2.4374   -2.1291   -5.8602   H         1 RES1   0.0000
   111 H60      -2.4961   -3.3401   -3.9212   H         1 RES1   0.0000
   112 H61      -3.7410   -2.1385   -3.5488   H         1 RES1   0.0000
   113 H62      -2.4453   -2.4578   -2.3740   H         1 RES1   0.0000
   114 H63      -0.7983    1.4819   -3.7413   H         1 RES1   0.0000
   115 H64      -0.1768    0.3559   -4.9665   H         1 RES1   0.0000
   116 H65       1.1810    1.9459   -5.6239   H         1 RES1   0.0000
   117 H66       1.8686    0.3378   -5.9954   H         1 RES1   0.0000
   118 H67       2.9147    1.7339   -5.7666   H         1 RES1   0.0000
   119 H68       3.4471    2.1820   -2.9130   H         1 RES1   0.0000
   120 H69       4.1578    1.2651   -4.2395   H         1 RES1   0.0000
   121 H70       3.5784   -0.8436   -2.7523   H         1 RES1   0.0000
   122 H71       3.5824    0.3181   -1.4372   H         1 RES1   0.0000
   123 H72       5.8698    1.1344   -2.2995   H         1 RES1   0.0000
   124 H73       5.8298   -0.1853   -3.4479   H         1 RES1   0.0000
   125 H74       7.0209   -1.2688   -1.8792   H         1 RES1   0.0000
   126 H75       5.4559   -1.6184   -1.1639   H         1 RES1   0.0000
   127 H76       7.2070    0.7619   -0.4063   H         1 RES1   0.0000
   128 H77       7.2861   -0.7937    0.3940   H         1 RES1   0.0000
   129 H78       4.8917   -0.5974    1.0457   H         1 RES1   0.0000
   130 H79       4.8241    1.0042    0.3214   H         1 RES1   0.0000
   131 H80       6.5646    1.8015    1.8821   H         1 RES1   0.0000
   132 H81       6.7423    0.1995    2.5604   H         1 RES1   0.0000
   133 H82       5.2911    1.6123    4.0132   H         1 RES1   0.0000
   134 H83       4.3732    0.2683    3.3276   H         1 RES1   0.0000
   135 H84       4.1933    1.8958    2.6521   H         1 RES1   0.0000
   136 C43       5.9949   -3.9550    5.3662   C.3       1 RES1   0.0000
   137 C44       5.1150   -4.3525    6.5474   C.3       1 RES1   0.0000
   138 C45       5.0451   -3.2723    7.6281   C.3       1 RES1   0.0000
   139 C46       4.1629   -2.0606    7.3076   C.3       1 RES1   0.0000
   140 C47       2.6963   -2.2284    7.7223   C.3       1 RES1   0.0000
   141 C48       1.7566   -2.7900    6.6544   C.3       1 RES1   0.0000
   142 C49       1.4762   -1.7695    5.5399   C.3       1 RES1   0.0000
   143 C50       2.1086   -2.1473    4.2004   C.3       1 RES1   0.0000
   144 N5        1.7117   -1.2804    3.1058   N.am      1 RES1   0.0000
   145 C51       1.6416    0.1558    3.3455   C.3       1 RES1   0.0000
   146 C52       1.4944   -1.5928    1.8254   C.2       1 RES1   0.0000
   147 O5        1.4312   -0.6363    1.0294   O.2       1 RES1   0.0000
   148 C53       1.3730   -3.0156    1.2823   C.3       1 RES1   0.0000
   149 C54       0.7919   -3.0538   -0.1495   C.2       1 RES1   0.0000
   150 O6        0.8489   -2.0709   -0.9007   O.2       1 RES1   0.0000
   151 N6        0.3488   -4.2293   -0.6358   N.am      1 RES1   0.0000
   152 C55      -0.1743   -5.3097    0.1661   C.3       1 RES1   0.0000
   153 C56       0.4822   -4.5378   -2.0541   C.3       1 RES1   0.0000
   154 C57       1.2854   -5.8365   -2.2427   C.3       1 RES1   0.0000
   155 C58       1.9842   -5.8815   -3.6027   C.3       1 RES1   0.0000
   156 C59       3.2162   -4.9688   -3.7080   C.3       1 RES1   0.0000
   157 C60       3.2438   -4.1700   -5.0129   C.3       1 RES1   0.0000
   158 C61       2.4017   -2.8887   -4.9359   C.3       1 RES1   0.0000
   159 C62       1.4106   -2.7098   -6.0796   C.3       1 RES1   0.0000
   160 C63       0.2672   -3.7141   -6.0441   C.3       1 RES1   0.0000
   161 H85       6.0692   -4.7736    4.6525   H         1 RES1   0.0000
   162 H86       6.9966   -3.7190    5.7169   H         1 RES1   0.0000
   163 H87       5.6029   -3.0794    4.8488   H         1 RES1   0.0000
   164 H88       5.5321   -5.2565    6.9962   H         1 RES1   0.0000
   165 H89       4.1115   -4.5981    6.1964   H         1 RES1   0.0000
   166 H90       6.0636   -2.9324    7.8160   H         1 RES1   0.0000
   167 H91       4.6897   -3.7224    8.5549   H         1 RES1   0.0000
   168 H92       4.2393   -1.8181    6.2485   H         1 RES1   0.0000
   169 H93       4.5670   -1.2077    7.8537   H         1 RES1   0.0000
   170 H94       2.3032   -1.2593    8.0323   H         1 RES1   0.0000
   171 H95       2.6600   -2.8759    8.5961   H         1 RES1   0.0000
   172 H96       0.8176   -3.0579    7.1383   H         1 RES1   0.0000
   173 H97       2.1735   -3.7019    6.2368   H         1 RES1   0.0000
   174 H98       1.8575   -0.8131    5.8891   H         1 RES1   0.0000
   175 H99       0.4050   -1.6514    5.3838   H         1 RES1   0.0000
   176 H100      1.8082   -3.1630    3.9557   H         1 RES1   0.0000
   177 H101      3.2018   -2.1274    4.2868   H         1 RES1   0.0000
   178 H102      1.9675    0.3998    4.3457   H         1 RES1   0.0000
   179 H103      0.6009    0.4542    3.1989   H         1 RES1   0.0000
   180 H104      2.2863    0.6780    2.6348   H         1 RES1   0.0000
   181 H105      0.8315   -3.6624    1.9638   H         1 RES1   0.0000
   182 H106      2.3943   -3.4033    1.1659   H         1 RES1   0.0000
   183 H107      0.6201   -5.9254    0.5938   H         1 RES1   0.0000
   184 H108     -0.7788   -5.9647   -0.4608   H         1 RES1   0.0000
   185 H109     -0.8186   -4.8950    0.9388   H         1 RES1   0.0000
   186 H110      1.0079   -3.7018   -2.5115   H         1 RES1   0.0000
   187 H111     -0.4963   -4.6405   -2.5316   H         1 RES1   0.0000
   188 H112      0.6131   -6.6933   -2.1764   H         1 RES1   0.0000
   189 H113      2.0331   -5.9303   -1.4508   H         1 RES1   0.0000
   190 H114      1.2526   -5.6169   -4.3628   H         1 RES1   0.0000
   191 H115      2.2930   -6.9068   -3.8097   H         1 RES1   0.0000
   192 H116      4.1158   -5.5805   -3.6526   H         1 RES1   0.0000
   193 H117      3.2549   -4.2701   -2.8689   H         1 RES1   0.0000
   194 H118      2.8942   -4.8074   -5.8231   H         1 RES1   0.0000
   195 H119      4.2745   -3.9045   -5.2419   H         1 RES1   0.0000
   196 H120      3.0686   -2.0276   -4.9121   H         1 RES1   0.0000
   197 H121      1.8343   -2.8687   -4.0055   H         1 RES1   0.0000
   198 H122      1.9336   -2.7874   -7.0298   H         1 RES1   0.0000
   199 H123      0.9866   -1.7033   -6.0173   H         1 RES1   0.0000
   200 H124      0.6163   -4.7125   -6.2872   H         1 RES1   0.0000
   201 H125     -0.4932   -3.4498   -6.7730   H         1 RES1   0.0000
   202 H126     -0.1896   -3.7353   -5.0559   H         1 RES1   0.0000
   203 C64       9.5669    5.0869    2.9707   C.3       1 RES1   0.0000
   204 C65       9.0734    3.7541    2.4175   C.3       1 RES1   0.0000
   205 C66       8.7323    3.8036    0.9233   C.3       1 RES1   0.0000
   206 C67       7.3331    4.3571    0.6543   C.3       1 RES1   0.0000
   207 C68       6.9503    4.3104   -0.8328   C.3       1 RES1   0.0000
   208 C69       5.5335    3.7846   -1.0690   C.3       1 RES1   0.0000
   209 C70       4.4732    4.6355   -0.3692   C.3       1 RES1   0.0000
   210 C71       3.0540    4.1251   -0.6635   C.3       1 RES1   0.0000
   211 N7        2.1643    4.2930    0.4837   N.am      1 RES1   0.0000
   212 C72       2.1657    5.5849    1.1494   C.3       1 RES1   0.0000
   213 C73       1.4345    3.2553    0.8999   C.2       1 RES1   0.0000
   214 O7        1.3262    2.2099    0.2363   O.2       1 RES1   0.0000
   215 C74       0.7848    3.3931    2.2713   C.3       1 RES1   0.0000
   216 C75      -0.4554    2.5207    2.4632   C.2       1 RES1   0.0000
   217 O8       -0.8776    1.7665    1.5631   O.2       1 RES1   0.0000
   218 N8       -1.0761    2.6548    3.6357   N.am      1 RES1   0.0000
   219 C76      -2.3529    1.9988    3.8519   C.3       1 RES1   0.0000
   220 C77      -0.6070    3.5563    4.6901   C.3       1 RES1   0.0000
   221 C78      -1.0083    3.1610    6.1119   C.3       1 RES1   0.0000
   222 C79      -0.4173    1.8144    6.5661   C.3       1 RES1   0.0000
   223 C80       0.6686    1.9056    7.6472   C.3       1 RES1   0.0000
   224 C81       2.1085    2.1057    7.1603   C.3       1 RES1   0.0000
   225 C82       2.5425    3.5445    6.8787   C.3       1 RES1   0.0000
   226 C83       4.0691    3.6820    6.9120   C.3       1 RES1   0.0000
   227 C84       4.6092    3.7765    8.3329   C.3       1 RES1   0.0000
   228 H127      9.7807    4.9960    4.0336   H         1 RES1   0.0000
   229 H128      8.8251    5.8712    2.8388   H         1 RES1   0.0000
   230 H129     10.4793    5.3912    2.4641   H         1 RES1   0.0000
   231 H130      8.1916    3.4321    2.9807   H         1 RES1   0.0000
   232 H131      9.8496    3.0020    2.5724   H         1 RES1   0.0000
   233 H132      8.7870    2.7908    0.5149   H         1 RES1   0.0000
   234 H133      9.4741    4.4056    0.3960   H         1 RES1   0.0000
   235 H134      7.2734    5.3807    1.0240   H         1 RES1   0.0000
   236 H135      6.6203    3.7592    1.2286   H         1 RES1   0.0000
   237 H136      7.6433    3.6578   -1.3674   H         1 RES1   0.0000
   238 H137      7.0384    5.3023   -1.2751   H         1 RES1   0.0000
   239 H138      5.4703    2.7603   -0.6968   H         1 RES1   0.0000
   240 H139      5.3379    3.7696   -2.1439   H         1 RES1   0.0000
   241 H140      4.5856    5.6733   -0.6880   H         1 RES1   0.0000
   242 H141      4.6524    4.5893    0.7050   H         1 RES1   0.0000
   243 H142      3.0760    3.0506   -0.8723   H         1 RES1   0.0000
   244 H143      2.6328    4.6372   -1.5353   H         1 RES1   0.0000
   245 H144      2.7672    6.2815    0.5718   H         1 RES1   0.0000
   246 H145      2.5855    5.5229    2.1550   H         1 RES1   0.0000
   247 H146      1.1530    5.9889    1.2047   H         1 RES1   0.0000
   248 H147      0.5101    4.4279    2.4781   H         1 RES1   0.0000
   249 H148      1.5572    3.1032    2.9923   H         1 RES1   0.0000
   250 H149     -2.5592    1.3323    3.0164   H         1 RES1   0.0000
   251 H150     -3.1413    2.7505    3.9267   H         1 RES1   0.0000
   252 H151     -2.3253    1.4172    4.7707   H         1 RES1   0.0000
   253 H152     -0.9808    4.5669    4.4834   H         1 RES1   0.0000
   254 H153      0.4819    3.5761    4.6720   H         1 RES1   0.0000
   255 H154     -2.0925    3.1617    6.2166   H         1 RES1   0.0000
   256 H155     -0.6351    3.9577    6.7558   H         1 RES1   0.0000
   257 H156     -0.0145    1.2842    5.7011   H         1 RES1   0.0000
   258 H157     -1.2239    1.2001    6.9689   H         1 RES1   0.0000
   259 H158      0.6423    0.9645    8.1989   H         1 RES1   0.0000
   260 H159      0.4123    2.6920    8.3569   H         1 RES1   0.0000
   261 H160      2.7645    1.7185    7.9397   H         1 RES1   0.0000
   262 H161      2.2827    1.4963    6.2674   H         1 RES1   0.0000
   263 H162      2.1172    4.2106    7.6286   H         1 RES1   0.0000
   264 H163      2.1709    3.8699    5.9040   H         1 RES1   0.0000
   265 H164      4.3689    4.5782    6.3669   H         1 RES1   0.0000
   266 H165      4.5205    2.8267    6.4045   H         1 RES1   0.0000
   267 H166      4.2726    4.6947    8.8050   H         1 RES1   0.0000
   268 H167      5.6951    3.7765    8.3313   H         1 RES1   0.0000
   269 H168      4.2751    2.9422    8.9432   H         1 RES1   0.0000
   270 O9       -1.1345    2.1754   -1.2742   O.3       1 RES1   0.0000
   271 H169     -0.4158    2.7738   -1.0301   H         1 RES1   0.0000
   272 H170     -1.9524    2.5534   -0.9159   H         1 RES1   0.0000
@<TRIPOS>BOND
     1     1    13    1
     2     1    16    1
     3     1    80    1
     4     1    83    1
     5     1   147    1
     6     1   150    1
     7     1   214    1
     8     1   217    1
     9     1   270    1
    10     2     3    1
    11     2    27    1
    12     2    28    1
    13     2    29    1
    14     3     4    1
    15     3    30    1
    16     3    31    1
    17     4     5    1
    18     4    32    1
    19     4    33    1
    20     5     6    1
    21     5    34    1
    22     5    35    1
    23     6     7    1
    24     6    36    1
    25     6    37    1
    26     7     8    1
    27     7    38    1
    28     7    39    1
    29     8     9    1
    30     8    40    1
    31     8    41    1
    32     9    10    1
    33     9    42    1
    34     9    43    1
    35    10    11    1
    36    10    12    1
    37    11    44    1
    38    11    45    1
    39    11    46    1
    40    12    13    2
    41    12    14    1
    42    14    15    1
    43    14    47    1
    44    14    48    1
    45    15    16    2
    46    15    17    1
    47    17    18    1
    48    17    19    1
    49    18    49    1
    50    18    50    1
    51    18    51    1
    52    19    20    1
    53    19    52    1
    54    19    53    1
    55    20    21    1
    56    20    54    1
    57    20    55    1
    58    21    22    1
    59    21    56    1
    60    21    57    1
    61    22    23    1
    62    22    58    1
    63    22    59    1
    64    23    24    1
    65    23    60    1
    66    23    61    1
    67    24    25    1
    68    24    62    1
    69    24    63    1
    70    25    26    1
    71    25    64    1
    72    25    65    1
    73    26    66    1
    74    26    67    1
    75    26    68    1
    76    69    70    1
    77    69    94    1
    78    69    95    1
    79    69    96    1
    80    70    71    1
    81    70    97    1
    82    70    98    1
    83    71    72    1
    84    71    99    1
    85    71   100    1
    86    72    73    1
    87    72   101    1
    88    72   102    1
    89    73    74    1
    90    73   103    1
    91    73   104    1
    92    74    75    1
    93    74   105    1
    94    74   106    1
    95    75    76    1
    96    75   107    1
    97    75   108    1
    98    76    77    1
    99    76   109    1
   100    76   110    1
   101    77    78    1
   102    77    79    1
   103    78   111    1
   104    78   112    1
   105    78   113    1
   106    79    80    2
   107    79    81    1
   108    81    82    1
   109    81   114    1
   110    81   115    1
   111    82    83    2
   112    82    84    1
   113    84    85    1
   114    84    86    1
   115    85   116    1
   116    85   117    1
   117    85   118    1
   118    86    87    1
   119    86   119    1
   120    86   120    1
   121    87    88    1
   122    87   121    1
   123    87   122    1
   124    88    89    1
   125    88   123    1
   126    88   124    1
   127    89    90    1
   128    89   125    1
   129    89   126    1
   130    90    91    1
   131    90   127    1
   132    90   128    1
   133    91    92    1
   134    91   129    1
   135    91   130    1
   136    92    93    1
   137    92   131    1
   138    92   132    1
   139    93   133    1
   140    93   134    1
   141    93   135    1
   142   136   137    1
   143   136   161    1
   144   136   162    1
   145   136   163    1
   146   137   138    1
   147   137   164    1
   148   137   165    1
   149   138   139    1
   150   138   166    1
   151   138   167    1
   152   139   140    1
   153   139   168    1
   154   139   169    1
   155   140   141    1
   156   140   170    1
   157   140   171    1
   158   141   142    1
   159   141   172    1
   160   141   173    1
   161   142   143    1
   162   142   174    1
   163   142   175    1
   164   143   144    1
   165   143   176    1
   166   143   177    1
   167   144   145    1
   168   144   146    1
   169   145   178    1
   170   145   179    1
   171   145   180    1
   172   146   147    2
   173   146   148    1
   174   148   149    1
   175   148   181    1
   176   148   182    1
   177   149   150    2
   178   149   151    1
   179   151   152    1
   180   151   153    1
   181   152   183    1
   182   152   184    1
   183   152   185    1
   184   153   154    1
   185   153   186    1
   186   153   187    1
   187   154   155    1
   188   154   188    1
   189   154   189    1
   190   155   156    1
   191   155   190    1
   192   155   191    1
   193   156   157    1
   194   156   192    1
   195   156   193    1
   196   157   158    1
   197   157   194    1
   198   157   195    1
   199   158   159    1
   200   158   196    1
   201   158   197    1
   202   159   160    1
   203   159   198    1
   204   159   199    1
   205   160   200    1
   206   160   201    1
   207   160   202    1
   208   203   204    1
   209   203   228    1
   210   203   229    1
   211   203   230    1
   212   204   205    1
   213   204   231    1
   214   204   232    1
   215   205   206    1
   216   205   233    1
   217   205   234    1
   218   206   207    1
   219   206   235    1
   220   206   236    1
   221   207   208    1
   222   207   237    1
   223   207   238    1
   224   208   209    1
   225   208   239    1
   226   208   240    1
   227   209   210    1
   228   209   241    1
   229   209   242    1
   230   210   211    1
   231   210   243    1
   232   210   244    1
   233   211   212    1
   234   211   213    1
   235   212   245    1
   236   212   246    1
   237   212   247    1
   238   213   214    2
   239   213   215    1
   240   215   216    1
   241   215   248    1
   242   215   249    1
   243   216   217    2
   244   216   218    1
   245   218   219    1
   246   218   220    1
   247   219   250    1
   248   219   251    1
   249   219   252    1
   250   220   221    1
   251   220   253    1
   252   220   254    1
   253   221   222    1
   254   221   255    1
   255   221   256    1
   256   222   223    1
   257   222   257    1
   258   222   258    1
   259   223   224    1
   260   223   259    1
   261   223   260    1
   262   224   225    1
   263   224   261    1
   264   224   262    1
   265   225   226    1
   266   225   263    1
   267   225   264    1
   268   226   227    1
   269   226   265    1
   270   226   266    1
   271   227   267    1
   272   227   268    1
   273   227   269    1
   274   270   271    1
   275   270   272    1
@<TRIPOS>SUBSTRUCTURE
     1 RES1      272 GROUP             0 ****  ****    0  
