@<TRIPOS>MOLECULE
tri_tri_mer_capped_0_nunpairedes_0_charge_3 Charge: 3 Unpaired_Electrons: 5 XTB_Unpaired_Electrons: 0 XTB_Charge: 3
    50    57     1     0     0
SMALL
NoCharges
****
Generated from Architector

@<TRIPOS>ATOM
     1 Sm1      -0.5265   -0.4488   -0.3048   Sm        1 RES1   0.0000
     2 O1       -1.7788    1.1516   -1.3210   O.2       1 RES1   0.0000
     3 C1       -2.7766    1.6972   -0.8443   C.2       1 RES1   0.0000
     4 O2       -3.6064    2.4537   -1.4669   O.2       1 RES1   0.0000
     5 C2       -3.1505    1.4655    0.6122   C.3       1 RES1   0.0000
     6 N1       -2.0158    0.9205    1.3890   N.4       1 RES1   0.0000
     7 C3       -1.1815    2.0103    1.9644   C.3       1 RES1   0.0000
     8 C4        0.3015    1.7605    1.7237   C.2       1 RES1   0.0000
     9 O3        0.6609    0.9426    0.8738   O.2       1 RES1   0.0000
    10 O4        1.1932    2.3944    2.4140   O.2       1 RES1   0.0000
    11 C5       -2.5406   -0.0070    2.4420   C.3       1 RES1   0.0000
    12 C6       -3.3675    0.7100    3.5452   C.3       1 RES1   0.0000
    13 C7       -2.6628    0.8180    4.8993   C.3       1 RES1   0.0000
    14 C8       -2.2263   -0.5516    5.4244   C.3       1 RES1   0.0000
    15 C9       -1.9901   -1.5627    4.2942   C.3       1 RES1   0.0000
    16 C10      -1.4082   -0.8391    3.0724   C.3       1 RES1   0.0000
    17 N2       -0.6925   -1.7171    2.0847   N.4       1 RES1   0.0000
    18 C11       0.6791   -2.0272    2.5572   C.3       1 RES1   0.0000
    19 C12       1.6429   -1.9612    1.3759   C.2       1 RES1   0.0000
    20 O5        1.1889   -1.8397    0.2401   O.2       1 RES1   0.0000
    21 O6        2.9146   -2.0287    1.5733   O.2       1 RES1   0.0000
    22 C13      -1.4090   -2.9758    1.7536   C.3       1 RES1   0.0000
    23 C14      -2.4679   -2.7370    0.6887   C.2       1 RES1   0.0000
    24 O7       -2.2564   -1.8545   -0.1484   O.2       1 RES1   0.0000
    25 O8       -3.5655   -3.4093    0.6663   O.3       1 RES1   0.0000
    26 H1       -3.4837    2.5909   -2.4283   H         1 RES1   0.0000
    27 H2       -3.9645    0.7333    0.5705   H         1 RES1   0.0000
    28 H3       -3.5964    2.3663    1.0516   H         1 RES1   0.0000
    29 H4       -1.3538    2.1218    3.0435   H         1 RES1   0.0000
    30 H5       -1.4202    2.9756    1.4924   H         1 RES1   0.0000
    31 H6        0.9187    3.0993    3.0318   H         1 RES1   0.0000
    32 H7       -3.2167   -0.6796    1.9056   H         1 RES1   0.0000
    33 H8       -4.3084    0.1791    3.6935   H         1 RES1   0.0000
    34 H9       -3.6443    1.7095    3.2130   H         1 RES1   0.0000
    35 H10      -3.3498    1.2825    5.6093   H         1 RES1   0.0000
    36 H11      -1.7896    1.4721    4.8285   H         1 RES1   0.0000
    37 H12      -2.9844   -0.9541    6.0871   H         1 RES1   0.0000
    38 H13      -1.3238   -0.4323    6.0173   H         1 RES1   0.0000
    39 H14      -2.9426   -2.0286    4.0424   H         1 RES1   0.0000
    40 H15      -1.3138   -2.3378    4.6541   H         1 RES1   0.0000
    41 H16      -0.6466   -0.1400    3.4327   H         1 RES1   0.0000
    42 H17       0.7687   -3.0281    2.9988   H         1 RES1   0.0000
    43 H18       0.9998   -1.3217    3.3311   H         1 RES1   0.0000
    44 H19       3.2677   -2.1787    2.4697   H         1 RES1   0.0000
    45 H20      -1.8325   -3.4426    2.6455   H         1 RES1   0.0000
    46 H21      -0.6865   -3.6698    1.3008   H         1 RES1   0.0000
    47 H22      -3.7384   -4.0884    1.3459   H         1 RES1   0.0000
    48 O9        1.0381   -0.1699   -2.0792   O.3       1 RES1   0.0000
    49 H23       1.5574    0.6450   -2.2054   H         1 RES1   0.0000
    50 H24       1.4800   -0.8009   -2.6776   H         1 RES1   0.0000
@<TRIPOS>BOND
     1     1     2    1
     2     1     4    1
     3     1     6    1
     4     1     9    1
     5     1    10    1
     6     1    17    1
     7     1    20    1
     8     1    21    1
     9     1    48    1
    10     2     3    2
    11     3     4    1
    12     3     5    1
    13     4    26    1
    14     5     6    1
    15     5    27    1
    16     5    28    1
    17     6     7    1
    18     6    11    1
    19     7     8    1
    20     7    29    1
    21     7    30    1
    22     8     9    2
    23     8    10    1
    24    10    31    1
    25    11    12    1
    26    11    16    1
    27    11    32    1
    28    12    13    1
    29    12    33    1
    30    12    34    1
    31    13    14    1
    32    13    35    1
    33    13    36    1
    34    14    15    1
    35    14    37    1
    36    14    38    1
    37    15    16    1
    38    15    39    1
    39    15    40    1
    40    16    17    1
    41    16    41    1
    42    17    18    1
    43    17    22    1
    44    18    19    1
    45    18    42    1
    46    18    43    1
    47    19    20    2
    48    19    21    1
    49    21    44    1
    50    22    23    1
    51    22    45    1
    52    22    46    1
    53    23    24    2
    54    23    25    1
    55    25    47    1
    56    48    49    1
    57    48    50    1
@<TRIPOS>SUBSTRUCTURE
     1 RES1       50 GROUP             0 ****  ****    0  
