@<TRIPOS>MOLECULE
cn9_YICLED_0_nunpairedes_0_charge_3 Charge: 3 Unpaired_Electrons: 5 XTB_Unpaired_Electrons: 0 XTB_Charge: 3
   136   150     1     0     0
SMALL
NoCharges
****
Generated from Architector

@<TRIPOS>ATOM
     1 Sm1      -0.0143    0.1071    0.0679   Sm        1 RES1   0.0000
     2 C1        2.9433   -1.3017    4.3890   C.3       1 RES1   0.0000
     3 N1        2.7890   -0.3003    3.3488   N.am      1 RES1   0.0000
     4 C2        1.6045   -0.0637    2.7733   C.2       1 RES1   0.0000
     5 O1        1.5098    0.5149    1.6657   O.2       1 RES1   0.0000
     6 C3        0.2984   -0.5005    3.4087   C.ar      1 RES1   0.0000
     7 C4       -0.0215   -0.6932    4.7551   C.ar      1 RES1   0.0000
     8 C5       -1.2904   -1.1641    5.0738   C.ar      1 RES1   0.0000
     9 C6       -2.2346   -1.3543    4.0755   C.ar      1 RES1   0.0000
    10 C7       -1.8744   -1.0178    2.7759   C.ar      1 RES1   0.0000
    11 C8       -2.8033   -0.8391    1.6155   C.2       1 RES1   0.0000
    12 O2       -2.4349   -0.0342    0.7408   O.2       1 RES1   0.0000
    13 N2       -4.0150   -1.4199    1.5617   N.am      1 RES1   0.0000
    14 C9       -4.9390   -0.9021    0.5585   C.3       1 RES1   0.0000
    15 C10      -4.2407   -2.7705    1.9525   C.ar      1 RES1   0.0000
    16 C11      -5.5195   -3.2420    2.2295   C.ar      1 RES1   0.0000
    17 C12      -5.7403   -4.6029    2.3729   C.ar      1 RES1   0.0000
    18 C13      -4.6909   -5.5001    2.2593   C.ar      1 RES1   0.0000
    19 C14      -3.4101   -5.0288    2.0271   C.ar      1 RES1   0.0000
    20 C15      -3.1862   -3.6761    1.8604   C.ar      1 RES1   0.0000
    21 N3       -0.6410   -0.6187    2.4720   N.ar      1 RES1   0.0000
    22 C16       3.9854    0.3254    2.8664   C.ar      1 RES1   0.0000
    23 C17       3.9346    1.5399    2.1817   C.ar      1 RES1   0.0000
    24 C18       5.0913    2.1485    1.7312   C.ar      1 RES1   0.0000
    25 C19       6.3295    1.5782    1.9735   C.ar      1 RES1   0.0000
    26 C20       6.3889    0.3848    2.6690   C.ar      1 RES1   0.0000
    27 C21       5.2359   -0.2384    3.1109   C.ar      1 RES1   0.0000
    28 H1        3.2803   -0.8409    5.3194   H         1 RES1   0.0000
    29 H2        3.6752   -2.0490    4.0799   H         1 RES1   0.0000
    30 H3        2.0059   -1.8257    4.5465   H         1 RES1   0.0000
    31 H4        0.6729   -0.4618    5.5451   H         1 RES1   0.0000
    32 H5       -1.5388   -1.3607    6.1054   H         1 RES1   0.0000
    33 H6       -3.2229   -1.7177    4.2924   H         1 RES1   0.0000
    34 H7       -4.5232    0.0196    0.1517   H         1 RES1   0.0000
    35 H8       -5.9090   -0.6907    1.0093   H         1 RES1   0.0000
    36 H9       -5.0625   -1.6353   -0.2399   H         1 RES1   0.0000
    37 H10      -6.3480   -2.5587    2.3170   H         1 RES1   0.0000
    38 H11      -6.7436   -4.9561    2.5542   H         1 RES1   0.0000
    39 H12      -4.8660   -6.5595    2.3412   H         1 RES1   0.0000
    40 H13      -2.5825   -5.7152    1.9405   H         1 RES1   0.0000
    41 H14      -2.1945   -3.3226    1.6163   H         1 RES1   0.0000
    42 H15       2.9926    2.0292    2.0002   H         1 RES1   0.0000
    43 H16       5.0179    3.0816    1.1946   H         1 RES1   0.0000
    44 H17       7.2348    2.0624    1.6476   H         1 RES1   0.0000
    45 H18       7.3400   -0.0781    2.8750   H         1 RES1   0.0000
    46 H19       5.3569   -1.1657    3.6425   H         1 RES1   0.0000
    47 C22      -3.4174   -1.4947   -4.1479   C.3       1 RES1   0.0000
    48 N4       -2.7669   -1.8389   -2.8932   N.am      1 RES1   0.0000
    49 C23      -2.1313   -0.8833   -2.1887   C.2       1 RES1   0.0000
    50 O3       -1.1630   -1.1579   -1.4552   O.2       1 RES1   0.0000
    51 C24      -2.5276    0.5846   -2.1638   C.ar      1 RES1   0.0000
    52 C25      -3.6712    1.2384   -2.6230   C.ar      1 RES1   0.0000
    53 C26      -3.7851    2.6095   -2.4050   C.ar      1 RES1   0.0000
    54 C27      -2.8557    3.2817   -1.6276   C.ar      1 RES1   0.0000
    55 C28      -1.8002    2.5393   -1.1087   C.ar      1 RES1   0.0000
    56 C29      -0.9795    2.9734    0.0796   C.2       1 RES1   0.0000
    57 O4       -0.8518    2.1088    0.9655   O.2       1 RES1   0.0000
    58 N5       -0.6193    4.2531    0.2902   N.am      1 RES1   0.0000
    59 C30      -0.3806    4.6010    1.6873   C.3       1 RES1   0.0000
    60 C31       0.3214    4.9017   -0.5816   C.ar      1 RES1   0.0000
    61 C32       0.2274    6.2523   -0.8748   C.ar      1 RES1   0.0000
    62 C33       1.2788    6.8789   -1.5263   C.ar      1 RES1   0.0000
    63 C34       2.4165    6.1664   -1.8749   C.ar      1 RES1   0.0000
    64 C35       2.5057    4.8156   -1.5829   C.ar      1 RES1   0.0000
    65 C36       1.4617    4.1829   -0.9329   C.ar      1 RES1   0.0000
    66 N6       -1.6279    1.2583   -1.4341   N.ar      1 RES1   0.0000
    67 C37      -2.6006   -3.2329   -2.6031   C.ar      1 RES1   0.0000
    68 C38      -1.8984   -3.7027   -1.4884   C.ar      1 RES1   0.0000
    69 C39      -1.6989   -5.0558   -1.2741   C.ar      1 RES1   0.0000
    70 C40      -2.2231   -5.9929   -2.1469   C.ar      1 RES1   0.0000
    71 C41      -2.9800   -5.5440   -3.2143   C.ar      1 RES1   0.0000
    72 C42      -3.1716   -4.1919   -3.4414   C.ar      1 RES1   0.0000
    73 H20      -4.4999   -1.6122   -4.0964   H         1 RES1   0.0000
    74 H21      -3.0336   -2.1380   -4.9403   H         1 RES1   0.0000
    75 H22      -3.1646   -0.4731   -4.4153   H         1 RES1   0.0000
    76 H23      -4.4678    0.7258   -3.1348   H         1 RES1   0.0000
    77 H24      -4.6228    3.1431   -2.8239   H         1 RES1   0.0000
    78 H25      -2.9477    4.3305   -1.4022   H         1 RES1   0.0000
    79 H26      -1.1850    4.2016    2.3023   H         1 RES1   0.0000
    80 H27      -0.3650    5.6838    1.7633   H         1 RES1   0.0000
    81 H28       0.5719    4.1954    2.0309   H         1 RES1   0.0000
    82 H29      -0.6386    6.8215   -0.5757   H         1 RES1   0.0000
    83 H30       1.2173    7.9349   -1.7328   H         1 RES1   0.0000
    84 H31       3.2514    6.6702   -2.3358   H         1 RES1   0.0000
    85 H32       3.3989    4.2546   -1.8210   H         1 RES1   0.0000
    86 H33       1.5517    3.1380   -0.6534   H         1 RES1   0.0000
    87 H34      -1.4853   -3.0112   -0.7748   H         1 RES1   0.0000
    88 H35      -1.1110   -5.3758   -0.4240   H         1 RES1   0.0000
    89 H36      -2.0559   -7.0480   -1.9979   H         1 RES1   0.0000
    90 H37      -3.4192   -6.2467   -3.9021   H         1 RES1   0.0000
    91 H38      -3.7783   -3.9290   -4.2882   H         1 RES1   0.0000
    92 C43       0.8381   -4.1300    2.2420   C.3       1 RES1   0.0000
    93 N7        1.3490   -4.1391    0.8744   N.am      1 RES1   0.0000
    94 C44       1.1349   -3.0410    0.1538   C.2       1 RES1   0.0000
    95 O5        0.5309   -2.0790    0.6827   O.2       1 RES1   0.0000
    96 C45       1.5641   -2.8407   -1.2717   C.ar      1 RES1   0.0000
    97 C46       1.9073   -3.7978   -2.2263   C.ar      1 RES1   0.0000
    98 C47       2.4322   -3.3387   -3.4270   C.ar      1 RES1   0.0000
    99 C48       2.4716   -1.9795   -3.7092   C.ar      1 RES1   0.0000
   100 C49       1.8726   -1.1093   -2.7942   C.ar      1 RES1   0.0000
   101 C50       1.5488    0.3621   -2.9253   C.2       1 RES1   0.0000
   102 O6        1.3545    0.9800   -1.8554   O.2       1 RES1   0.0000
   103 N8        1.4307    0.9342   -4.1303   N.am      1 RES1   0.0000
   104 C51       1.3182    0.2062   -5.3896   C.3       1 RES1   0.0000
   105 C52       1.1572    2.3358   -4.2947   C.ar      1 RES1   0.0000
   106 C53       1.7397    3.0346   -5.3473   C.ar      1 RES1   0.0000
   107 C54       1.3309    4.3285   -5.6266   C.ar      1 RES1   0.0000
   108 C55       0.3298    4.9324   -4.8819   C.ar      1 RES1   0.0000
   109 C56      -0.2037    4.2610   -3.7949   C.ar      1 RES1   0.0000
   110 C57       0.2182    2.9779   -3.5013   C.ar      1 RES1   0.0000
   111 N9        1.5104   -1.5483   -1.5893   N.ar      1 RES1   0.0000
   112 C58       2.0923   -5.3041    0.5273   C.ar      1 RES1   0.0000
   113 C59       3.3984   -5.2291    0.0539   C.ar      1 RES1   0.0000
   114 C60       4.1452   -6.3892   -0.0791   C.ar      1 RES1   0.0000
   115 C61       3.6043   -7.6162    0.2724   C.ar      1 RES1   0.0000
   116 C62       2.2898   -7.6968    0.6992   C.ar      1 RES1   0.0000
   117 C63       1.5366   -6.5447    0.8298   C.ar      1 RES1   0.0000
   118 H39       0.9074   -3.1192    2.6466   H         1 RES1   0.0000
   119 H40       1.4356   -4.8101    2.8437   H         1 RES1   0.0000
   120 H41      -0.2127   -4.4315    2.2648   H         1 RES1   0.0000
   121 H42       1.7877   -4.8499   -2.0381   H         1 RES1   0.0000
   122 H43       2.8340   -4.0459   -4.1356   H         1 RES1   0.0000
   123 H44       2.9748   -1.6339   -4.5988   H         1 RES1   0.0000
   124 H45       0.9366   -0.7994   -5.2294   H         1 RES1   0.0000
   125 H46       2.2666    0.1558   -5.9244   H         1 RES1   0.0000
   126 H47       0.6079    0.7376   -6.0244   H         1 RES1   0.0000
   127 H48       2.5041    2.5753   -5.9514   H         1 RES1   0.0000
   128 H49       1.7899    4.8672   -6.4404   H         1 RES1   0.0000
   129 H50      -0.0317    5.9154   -5.1375   H         1 RES1   0.0000
   130 H51      -0.9533    4.7316   -3.1757   H         1 RES1   0.0000
   131 H52      -0.1848    2.4478   -2.6607   H         1 RES1   0.0000
   132 H53       3.8548   -4.2715   -0.1618   H         1 RES1   0.0000
   133 H54       5.1649   -6.3206   -0.4242   H         1 RES1   0.0000
   134 H55       4.2074   -8.5070    0.2419   H         1 RES1   0.0000
   135 H56       1.8577   -8.6507    0.9617   H         1 RES1   0.0000
   136 H57       0.5297   -6.6118    1.2108   H         1 RES1   0.0000
@<TRIPOS>BOND
     1     1     5    1
     2     1    12    1
     3     1    21    1
     4     1    50    1
     5     1    57    1
     6     1    66    1
     7     1    95    1
     8     1   102    1
     9     1   111    1
    10     2     3    1
    11     2    28    1
    12     2    29    1
    13     2    30    1
    14     3     4    1
    15     3    22    1
    16     4     5    2
    17     4     6    1
    18     6     7    1
    19     6    21    2
    20     7     8    2
    21     7    31    1
    22     8     9    1
    23     8    32    1
    24     9    10    2
    25     9    33    1
    26    10    11    1
    27    10    21    1
    28    11    12    2
    29    11    13    1
    30    13    14    1
    31    13    15    1
    32    14    34    1
    33    14    35    1
    34    14    36    1
    35    15    16    1
    36    15    20    2
    37    16    17    2
    38    16    37    1
    39    17    18    1
    40    17    38    1
    41    18    19    2
    42    18    39    1
    43    19    20    1
    44    19    40    1
    45    20    41    1
    46    22    23    1
    47    22    27    2
    48    23    24    2
    49    23    42    1
    50    24    25    1
    51    24    43    1
    52    25    26    2
    53    25    44    1
    54    26    27    1
    55    26    45    1
    56    27    46    1
    57    47    48    1
    58    47    73    1
    59    47    74    1
    60    47    75    1
    61    48    49    1
    62    48    67    1
    63    49    50    2
    64    49    51    1
    65    51    52    1
    66    51    66    2
    67    52    53    2
    68    52    76    1
    69    53    54    1
    70    53    77    1
    71    54    55    2
    72    54    78    1
    73    55    56    1
    74    55    66    1
    75    56    57    2
    76    56    58    1
    77    58    59    1
    78    58    60    1
    79    59    79    1
    80    59    80    1
    81    59    81    1
    82    60    61    1
    83    60    65    2
    84    61    62    2
    85    61    82    1
    86    62    63    1
    87    62    83    1
    88    63    64    2
    89    63    84    1
    90    64    65    1
    91    64    85    1
    92    65    86    1
    93    67    68    1
    94    67    72    2
    95    68    69    2
    96    68    87    1
    97    69    70    1
    98    69    88    1
    99    70    71    2
   100    70    89    1
   101    71    72    1
   102    71    90    1
   103    72    91    1
   104    92    93    1
   105    92   118    1
   106    92   119    1
   107    92   120    1
   108    93    94    1
   109    93   112    1
   110    94    95    2
   111    94    96    1
   112    96    97    1
   113    96   111    2
   114    97    98    2
   115    97   121    1
   116    98    99    1
   117    98   122    1
   118    99   100    2
   119    99   123    1
   120   100   101    1
   121   100   111    1
   122   101   102    2
   123   101   103    1
   124   103   104    1
   125   103   105    1
   126   104   124    1
   127   104   125    1
   128   104   126    1
   129   105   106    1
   130   105   110    2
   131   106   107    2
   132   106   127    1
   133   107   108    1
   134   107   128    1
   135   108   109    2
   136   108   129    1
   137   109   110    1
   138   109   130    1
   139   110   131    1
   140   112   113    1
   141   112   117    2
   142   113   114    2
   143   113   132    1
   144   114   115    1
   145   114   133    1
   146   115   116    2
   147   115   134    1
   148   116   117    1
   149   116   135    1
   150   117   136    1
@<TRIPOS>SUBSTRUCTURE
     1 RES1      136 GROUP             0 ****  ****    0  
