@<TRIPOS>MOLECULE
cn9_YICLED_0_nunpairedes_0_charge_3 Charge: 3 Unpaired_Electrons: 5 XTB_Unpaired_Electrons: 0 XTB_Charge: 3
   358   363     1     0     0
SMALL
NoCharges
****
Generated from Architector

@<TRIPOS>ATOM
     1 Sm1      -0.2076    0.0973    0.2719   Sm        1 RES1   0.0000
     2 C1       -3.1678   -7.7295    6.2917   C.3       1 RES1   0.0000
     3 C2       -2.9140   -6.4680    7.1043   C.3       1 RES1   0.0000
     4 C3       -3.7419   -5.3041    6.5732   C.3       1 RES1   0.0000
     5 C4       -3.5293   -4.0131    7.3594   C.3       1 RES1   0.0000
     6 C5       -4.2967   -2.8457    6.7382   C.3       1 RES1   0.0000
     7 C6       -3.7769   -2.4977    5.3350   C.3       1 RES1   0.0000
     8 C7       -4.7995   -2.8082    4.2509   C.3       1 RES1   0.0000
     9 C8       -4.1998   -2.7787    2.8457   C.3       1 RES1   0.0000
    10 N1       -3.6368   -1.4916    2.4531   N.am      1 RES1   0.0000
    11 C9       -4.5159   -0.3038    2.4019   C.3       1 RES1   0.0000
    12 C10      -6.0158   -0.5092    2.1569   C.3       1 RES1   0.0000
    13 C11      -6.5420    0.4000    1.0434   C.3       1 RES1   0.0000
    14 C12      -6.0532   -0.0235   -0.3427   C.3       1 RES1   0.0000
    15 C13      -6.9702    0.5420   -1.4230   C.3       1 RES1   0.0000
    16 C14      -6.5726    0.1788   -2.8543   C.3       1 RES1   0.0000
    17 C15      -5.4712    1.0857   -3.3975   C.3       1 RES1   0.0000
    18 C16      -5.0499    0.7294   -4.8179   C.3       1 RES1   0.0000
    19 C17      -2.3637   -1.2856    2.1488   C.2       1 RES1   0.0000
    20 O1       -1.9548   -0.1980    1.6860   O.2       1 RES1   0.0000
    21 C18      -1.2706   -2.3472    2.4366   C.3       1 RES1   0.0000
    22 C19      -1.1611   -3.3683    1.3037   C.3       1 RES1   0.0000
    23 O2       -0.0305   -1.6375    2.4947   O.3       1 RES1   0.0000
    24 C20       0.7149   -1.7469    3.7315   C.3       1 RES1   0.0000
    25 C21       1.2664   -3.1724    3.8822   C.3       1 RES1   0.0000
    26 C22       1.6541   -0.5055    3.7064   C.2       1 RES1   0.0000
    27 O3        1.4929    0.2742    2.7521   O.2       1 RES1   0.0000
    28 N2        2.4780   -0.2509    4.7331   N.am      1 RES1   0.0000
    29 C23       2.8807   -1.2075    5.7578   C.3       1 RES1   0.0000
    30 C24       4.0245   -2.1418    5.3160   C.3       1 RES1   0.0000
    31 C25       5.4446   -1.5495    5.3926   C.3       1 RES1   0.0000
    32 C26       6.1356   -1.5115    4.0284   C.3       1 RES1   0.0000
    33 C27       7.6216   -1.1617    4.1149   C.3       1 RES1   0.0000
    34 C28       8.3687   -1.3620    2.7943   C.3       1 RES1   0.0000
    35 C29       7.8908   -0.4863    1.6347   C.3       1 RES1   0.0000
    36 C30       8.0764    1.0045    1.8916   C.3       1 RES1   0.0000
    37 C31       3.0802    1.0747    4.9103   C.3       1 RES1   0.0000
    38 C32       2.2977    1.9943    5.8750   C.3       1 RES1   0.0000
    39 C33       2.4832    1.9017    7.3925   C.3       1 RES1   0.0000
    40 C34       1.5772    2.9126    8.1261   C.3       1 RES1   0.0000
    41 C35       1.7907    4.4025    7.8009   C.3       1 RES1   0.0000
    42 C36       0.9446    4.9896    6.6569   C.3       1 RES1   0.0000
    43 C37      -0.5613    4.9538    6.9159   C.3       1 RES1   0.0000
    44 C38      -1.3553    5.7340    5.8761   C.3       1 RES1   0.0000
    45 H1       -2.6095   -8.5664    6.6962   H         1 RES1   0.0000
    46 H2       -2.8737   -7.5886    5.2529   H         1 RES1   0.0000
    47 H3       -4.2231   -7.9852    6.3107   H         1 RES1   0.0000
    48 H4       -1.8529   -6.2084    7.0615   H         1 RES1   0.0000
    49 H5       -3.1691   -6.6487    8.1493   H         1 RES1   0.0000
    50 H6       -4.7996   -5.5704    6.6163   H         1 RES1   0.0000
    51 H7       -3.4842   -5.1431    5.5223   H         1 RES1   0.0000
    52 H8       -2.4612   -3.7739    7.3979   H         1 RES1   0.0000
    53 H9       -3.8621   -4.1576    8.3891   H         1 RES1   0.0000
    54 H10      -4.2269   -1.9879    7.4105   H         1 RES1   0.0000
    55 H11      -5.3513   -3.1147    6.6824   H         1 RES1   0.0000
    56 H12      -2.8530   -3.0555    5.1629   H         1 RES1   0.0000
    57 H13      -3.5275   -1.4448    5.2645   H         1 RES1   0.0000
    58 H14      -5.6092   -2.0842    4.3187   H         1 RES1   0.0000
    59 H15      -5.2158   -3.8043    4.4143   H         1 RES1   0.0000
    60 H16      -4.9747   -3.0417    2.1199   H         1 RES1   0.0000
    61 H17      -3.4237   -3.5339    2.7837   H         1 RES1   0.0000
    62 H18      -4.1185    0.3330    1.6044   H         1 RES1   0.0000
    63 H19      -4.3726    0.2232    3.3550   H         1 RES1   0.0000
    64 H20      -6.5743   -0.2931    3.0703   H         1 RES1   0.0000
    65 H21      -6.2517   -1.5329    1.8697   H         1 RES1   0.0000
    66 H22      -6.2760    1.4393    1.2425   H         1 RES1   0.0000
    67 H23      -7.6321    0.3415    1.0580   H         1 RES1   0.0000
    68 H24      -6.0834   -1.1130   -0.3957   H         1 RES1   0.0000
    69 H25      -5.0200    0.2912   -0.5089   H         1 RES1   0.0000
    70 H26      -7.0090    1.6275   -1.3361   H         1 RES1   0.0000
    71 H27      -7.9756    0.1659   -1.2352   H         1 RES1   0.0000
    72 H28      -7.4468    0.2803   -3.5014   H         1 RES1   0.0000
    73 H29      -6.2507   -0.8640   -2.8948   H         1 RES1   0.0000
    74 H30      -4.6073    1.0573   -2.7240   H         1 RES1   0.0000
    75 H31      -5.8457    2.1088   -3.3986   H         1 RES1   0.0000
    76 H32      -4.6175   -0.2647   -4.8640   H         1 RES1   0.0000
    77 H33      -4.3089    1.4324   -5.1896   H         1 RES1   0.0000
    78 H34      -5.9117    0.7544   -5.4790   H         1 RES1   0.0000
    79 H35      -1.4815   -2.8127    3.4060   H         1 RES1   0.0000
    80 H36      -0.8240   -2.8343    0.4048   H         1 RES1   0.0000
    81 H37      -2.1137   -3.8427    1.1020   H         1 RES1   0.0000
    82 H38      -0.4459   -4.1541    1.5470   H         1 RES1   0.0000
    83 H39       0.0235   -1.5447    4.5667   H         1 RES1   0.0000
    84 H40       1.9487   -3.4371    3.0816   H         1 RES1   0.0000
    85 H41       0.4407   -3.8777    3.8597   H         1 RES1   0.0000
    86 H42       1.7542   -3.3081    4.8397   H         1 RES1   0.0000
    87 H43       2.0079   -1.7770    6.0826   H         1 RES1   0.0000
    88 H44       3.2295   -0.6278    6.6135   H         1 RES1   0.0000
    89 H45       3.8320   -2.4768    4.2965   H         1 RES1   0.0000
    90 H46       3.9879   -3.0195    5.9580   H         1 RES1   0.0000
    91 H47       6.0501   -2.1512    6.0708   H         1 RES1   0.0000
    92 H48       5.4298   -0.5450    5.8184   H         1 RES1   0.0000
    93 H49       5.6171   -0.7999    3.3784   H         1 RES1   0.0000
    94 H50       6.0585   -2.5023    3.5715   H         1 RES1   0.0000
    95 H51       8.0826   -1.8161    4.8614   H         1 RES1   0.0000
    96 H52       7.7536   -0.1320    4.4443   H         1 RES1   0.0000
    97 H53       8.2826   -2.4081    2.4955   H         1 RES1   0.0000
    98 H54       9.4250   -1.1482    2.9641   H         1 RES1   0.0000
    99 H55       6.8397   -0.6981    1.4217   H         1 RES1   0.0000
   100 H56       8.4587   -0.7608    0.7437   H         1 RES1   0.0000
   101 H57       7.4132    1.3583    2.6776   H         1 RES1   0.0000
   102 H58       7.8793    1.5795    0.9880   H         1 RES1   0.0000
   103 H59       9.0993    1.2042    2.1999   H         1 RES1   0.0000
   104 H60       3.1054    1.5619    3.9315   H         1 RES1   0.0000
   105 H61       4.1098    0.9510    5.2521   H         1 RES1   0.0000
   106 H62       1.2308    1.8699    5.6668   H         1 RES1   0.0000
   107 H63       2.5796    3.0157    5.6120   H         1 RES1   0.0000
   108 H64       3.5251    2.0981    7.6522   H         1 RES1   0.0000
   109 H65       2.2250    0.9113    7.7761   H         1 RES1   0.0000
   110 H66       0.5335    2.6500    7.9473   H         1 RES1   0.0000
   111 H67       1.7503    2.7774    9.1949   H         1 RES1   0.0000
   112 H68       2.8491    4.5742    7.5915   H         1 RES1   0.0000
   113 H69       1.5515    4.9766    8.7038   H         1 RES1   0.0000
   114 H70       1.1656    4.4784    5.7151   H         1 RES1   0.0000
   115 H71       1.2481    6.0331    6.5248   H         1 RES1   0.0000
   116 H72      -0.7578    5.3739    7.9040   H         1 RES1   0.0000
   117 H73      -0.9089    3.9178    6.9184   H         1 RES1   0.0000
   118 H74      -1.1007    6.7892    5.9033   H         1 RES1   0.0000
   119 H75      -2.4206    5.6373    6.0687   H         1 RES1   0.0000
   120 H76      -1.1568    5.3695    4.8670   H         1 RES1   0.0000
   121 C39      -6.6834   -5.9047   -9.6127   C.3       1 RES1   0.0000
   122 C40      -5.1593   -5.9136   -9.6524   C.3       1 RES1   0.0000
   123 C41      -4.5260   -5.4106   -8.3530   C.3       1 RES1   0.0000
   124 C42      -4.8192   -3.9311   -8.1101   C.3       1 RES1   0.0000
   125 C43      -4.1803   -3.3440   -6.8459   C.3       1 RES1   0.0000
   126 C44      -4.7466   -3.9506   -5.5601   C.3       1 RES1   0.0000
   127 C45      -4.6703   -3.0408   -4.3290   C.3       1 RES1   0.0000
   128 C46      -3.2191   -2.7803   -3.9177   C.3       1 RES1   0.0000
   129 N3       -2.9996   -2.2866   -2.5615   N.am      1 RES1   0.0000
   130 C47      -3.7576   -2.9574   -1.4969   C.3       1 RES1   0.0000
   131 C48      -3.8217   -4.4901   -1.4813   C.3       1 RES1   0.0000
   132 C49      -2.5008   -5.2407   -1.6635   C.3       1 RES1   0.0000
   133 C50      -2.6467   -6.6935   -1.1877   C.3       1 RES1   0.0000
   134 C51      -2.5614   -6.8607    0.3369   C.3       1 RES1   0.0000
   135 C52      -1.2737   -7.5261    0.8315   C.3       1 RES1   0.0000
   136 C53       0.0410   -6.8925    0.3377   C.3       1 RES1   0.0000
   137 C54       0.8539   -7.8654   -0.5124   C.3       1 RES1   0.0000
   138 C55      -2.1810   -1.3029   -2.1913   C.2       1 RES1   0.0000
   139 O4       -1.8637   -1.1498   -0.9902   O.2       1 RES1   0.0000
   140 C56      -1.7062   -0.1844   -3.1532   C.3       1 RES1   0.0000
   141 C57      -1.1853   -0.5130   -4.5586   C.3       1 RES1   0.0000
   142 O5       -0.6934    0.5179   -2.4279   O.3       1 RES1   0.0000
   143 C58      -0.5148    1.8978   -2.7675   C.3       1 RES1   0.0000
   144 C59       0.9823    2.0906   -3.0571   C.3       1 RES1   0.0000
   145 C60      -1.1038    2.6782   -1.5575   C.2       1 RES1   0.0000
   146 O6       -1.4872    1.9962   -0.5854   O.2       1 RES1   0.0000
   147 N4       -1.2719    3.9949   -1.6097   N.am      1 RES1   0.0000
   148 C61      -0.6444    4.8000   -2.6622   C.3       1 RES1   0.0000
   149 C62      -0.6454    6.3148   -2.4631   C.3       1 RES1   0.0000
   150 C63       0.3224    6.7552   -1.3586   C.3       1 RES1   0.0000
   151 C64       1.7657    6.9232   -1.8611   C.3       1 RES1   0.0000
   152 C65       2.7686    6.2220   -0.9460   C.3       1 RES1   0.0000
   153 C66       4.2304    6.4583   -1.3378   C.3       1 RES1   0.0000
   154 C67       4.6248    5.9365   -2.7212   C.3       1 RES1   0.0000
   155 C68       4.5783    4.4155   -2.8275   C.3       1 RES1   0.0000
   156 C69      -2.1183    4.5769   -0.5668   C.3       1 RES1   0.0000
   157 C70      -3.5861    4.1274   -0.6765   C.3       1 RES1   0.0000
   158 C71      -4.5625    5.1800   -1.2115   C.3       1 RES1   0.0000
   159 C72      -4.3206    5.6759   -2.6404   C.3       1 RES1   0.0000
   160 C73      -4.1503    4.5795   -3.6890   C.3       1 RES1   0.0000
   161 C74      -3.6612    5.1283   -5.0284   C.3       1 RES1   0.0000
   162 C75      -3.4136    4.0105   -6.0382   C.3       1 RES1   0.0000
   163 C76      -2.8511    4.5302   -7.3535   C.3       1 RES1   0.0000
   164 H77      -7.0871   -6.3767  -10.5043   H         1 RES1   0.0000
   165 H78      -7.0453   -6.4528   -8.7451   H         1 RES1   0.0000
   166 H79      -7.0741   -4.8910   -9.5702   H         1 RES1   0.0000
   167 H80      -4.8215   -6.9353   -9.8333   H         1 RES1   0.0000
   168 H81      -4.8162   -5.3007  -10.4881   H         1 RES1   0.0000
   169 H82      -4.9082   -6.0074   -7.5230   H         1 RES1   0.0000
   170 H83      -3.4450   -5.5600   -8.4029   H         1 RES1   0.0000
   171 H84      -4.4582   -3.3629   -8.9701   H         1 RES1   0.0000
   172 H85      -5.8997   -3.7883   -8.0542   H         1 RES1   0.0000
   173 H86      -3.0965   -3.4806   -6.8895   H         1 RES1   0.0000
   174 H87      -4.3801   -2.2689   -6.8525   H         1 RES1   0.0000
   175 H88      -5.8004   -4.1749   -5.7196   H         1 RES1   0.0000
   176 H89      -4.2425   -4.8932   -5.3477   H         1 RES1   0.0000
   177 H90      -5.1832   -2.1008   -4.5434   H         1 RES1   0.0000
   178 H91      -5.2228   -3.5348   -3.5330   H         1 RES1   0.0000
   179 H92      -2.6730   -3.7225   -4.0034   H         1 RES1   0.0000
   180 H93      -2.8020   -2.0810   -4.6272   H         1 RES1   0.0000
   181 H94      -3.3384   -2.6029   -0.5527   H         1 RES1   0.0000
   182 H95      -4.7792   -2.5711   -1.5749   H         1 RES1   0.0000
   183 H96      -4.2446   -4.7524   -0.5090   H         1 RES1   0.0000
   184 H97      -4.5182   -4.8718   -2.2299   H         1 RES1   0.0000
   185 H98      -2.2310   -5.2441   -2.7218   H         1 RES1   0.0000
   186 H99      -1.6974   -4.7363   -1.1234   H         1 RES1   0.0000
   187 H100     -3.6099   -7.0604   -1.5479   H         1 RES1   0.0000
   188 H101     -1.8778   -7.3032   -1.6589   H         1 RES1   0.0000
   189 H102     -2.6807   -5.8898    0.8230   H         1 RES1   0.0000
   190 H103     -3.3891   -7.4846    0.6735   H         1 RES1   0.0000
   191 H104     -1.2941   -7.5260    1.9232   H         1 RES1   0.0000
   192 H105     -1.2862   -8.5708    0.5210   H         1 RES1   0.0000
   193 H106     -0.1652   -5.9950   -0.2458   H         1 RES1   0.0000
   194 H107      0.6531   -6.5919    1.1917   H         1 RES1   0.0000
   195 H108      0.2556   -8.2629   -1.3298   H         1 RES1   0.0000
   196 H109      1.7300   -7.3773   -0.9354   H         1 RES1   0.0000
   197 H110      1.1892   -8.7007    0.0983   H         1 RES1   0.0000
   198 H111     -2.5976    0.4545   -3.2499   H         1 RES1   0.0000
   199 H112     -1.9638   -0.4509   -5.3153   H         1 RES1   0.0000
   200 H113     -0.7101   -1.4867   -4.5975   H         1 RES1   0.0000
   201 H114     -0.4408    0.2339   -4.8350   H         1 RES1   0.0000
   202 H115     -1.1024    2.1583   -3.6615   H         1 RES1   0.0000
   203 H116      1.5168    2.3083   -2.1374   H         1 RES1   0.0000
   204 H117      1.3778    1.1550   -3.4583   H         1 RES1   0.0000
   205 H118      1.1708    2.8612   -3.8010   H         1 RES1   0.0000
   206 H119      0.4019    4.4953   -2.7104   H         1 RES1   0.0000
   207 H120     -1.1246    4.5592   -3.6132   H         1 RES1   0.0000
   208 H121     -0.3413    6.7626   -3.4099   H         1 RES1   0.0000
   209 H122     -1.6468    6.6912   -2.2634   H         1 RES1   0.0000
   210 H123     -0.0252    7.6935   -0.9222   H         1 RES1   0.0000
   211 H124      0.2977    6.0043   -0.5648   H         1 RES1   0.0000
   212 H125      1.8497    6.5198   -2.8694   H         1 RES1   0.0000
   213 H126      2.0229    7.9825   -1.9101   H         1 RES1   0.0000
   214 H127      2.6194    6.6092    0.0687   H         1 RES1   0.0000
   215 H128      2.5502    5.1461   -0.9316   H         1 RES1   0.0000
   216 H129      4.4310    7.5279   -1.3048   H         1 RES1   0.0000
   217 H130      4.8797    5.9811   -0.5976   H         1 RES1   0.0000
   218 H131      3.9831    6.3760   -3.4858   H         1 RES1   0.0000
   219 H132      5.6438    6.2679   -2.9318   H         1 RES1   0.0000
   220 H133      3.5710    4.0360   -2.6578   H         1 RES1   0.0000
   221 H134      4.9010    4.0976   -3.8162   H         1 RES1   0.0000
   222 H135      5.2451    3.9687   -2.0922   H         1 RES1   0.0000
   223 H136     -1.7175    4.2307    0.3870   H         1 RES1   0.0000
   224 H137     -2.0452    5.6560   -0.5928   H         1 RES1   0.0000
   225 H138     -3.6336    3.2280   -1.2892   H         1 RES1   0.0000
   226 H139     -3.9354    3.8339    0.3151   H         1 RES1   0.0000
   227 H140     -5.5621    4.7452   -1.1522   H         1 RES1   0.0000
   228 H141     -4.5503    6.0440   -0.5422   H         1 RES1   0.0000
   229 H142     -5.1694    6.2994   -2.9233   H         1 RES1   0.0000
   230 H143     -3.4462    6.3234   -2.6653   H         1 RES1   0.0000
   231 H144     -3.4344    3.8322   -3.3368   H         1 RES1   0.0000
   232 H145     -5.1032    4.0736   -3.8391   H         1 RES1   0.0000
   233 H146     -4.4028    5.8175   -5.4311   H         1 RES1   0.0000
   234 H147     -2.7366    5.6925   -4.8754   H         1 RES1   0.0000
   235 H148     -2.7180    3.2822   -5.6014   H         1 RES1   0.0000
   236 H149     -4.3559    3.4953   -6.2305   H         1 RES1   0.0000
   237 H150     -1.8931    5.0193   -7.1924   H         1 RES1   0.0000
   238 H151     -2.7125    3.7106   -8.0531   H         1 RES1   0.0000
   239 H152     -3.5335    5.2479   -7.7998   H         1 RES1   0.0000
   240 C77       3.2980    0.4946   -6.3209   C.3       1 RES1   0.0000
   241 C78       4.3108    1.3548   -5.5737   C.3       1 RES1   0.0000
   242 C79       5.0257    0.5939   -4.4577   C.3       1 RES1   0.0000
   243 C80       6.0355   -0.4262   -4.9779   C.3       1 RES1   0.0000
   244 C81       6.8045   -1.1317   -3.8596   C.3       1 RES1   0.0000
   245 C82       5.9182   -1.7553   -2.7803   C.3       1 RES1   0.0000
   246 C83       4.9753   -2.8215   -3.3363   C.3       1 RES1   0.0000
   247 C84       3.9157   -3.2771   -2.3243   C.3       1 RES1   0.0000
   248 N5        2.6535   -2.5464   -2.3767   N.am      1 RES1   0.0000
   249 C85       1.8350   -2.7836   -3.5613   C.3       1 RES1   0.0000
   250 C86       0.6461   -3.7288   -3.3624   C.3       1 RES1   0.0000
   251 C87       0.9853   -5.2202   -3.2910   C.3       1 RES1   0.0000
   252 C88       1.4582   -5.8520   -4.6031   C.3       1 RES1   0.0000
   253 C89       0.3440   -6.1970   -5.5957   C.3       1 RES1   0.0000
   254 C90      -0.2207   -5.0549   -6.4444   C.3       1 RES1   0.0000
   255 C91       0.8129   -4.3284   -7.3025   C.3       1 RES1   0.0000
   256 C92       0.1501   -3.3408   -8.2575   C.3       1 RES1   0.0000
   257 C93       2.1580   -1.7763   -1.4191   C.2       1 RES1   0.0000
   258 O7        0.9642   -1.4086   -1.3849   O.2       1 RES1   0.0000
   259 C94       3.0550   -1.2742   -0.2817   C.3       1 RES1   0.0000
   260 C95       2.9144   -2.2623    0.8780   C.3       1 RES1   0.0000
   261 O8        2.4536   -0.0281    0.0829   O.3       1 RES1   0.0000
   262 C96       3.2839    1.1063    0.3708   C.3       1 RES1   0.0000
   263 C97       4.3271    0.7901    1.4328   C.3       1 RES1   0.0000
   264 C98       2.2206    2.1615    0.7392   C.2       1 RES1   0.0000
   265 O9        1.0608    1.9325    0.3277   O.2       1 RES1   0.0000
   266 N6        2.4544    3.2737    1.4252   N.am      1 RES1   0.0000
   267 C99       1.2637    4.0555    1.8007   C.3       1 RES1   0.0000
   268 C100      0.5075    3.4313    2.9913   C.3       1 RES1   0.0000
   269 C101     -0.8241    2.7502    2.6306   C.3       1 RES1   0.0000
   270 C102     -1.7700    2.5429    3.8282   C.3       1 RES1   0.0000
   271 C103     -1.3813    1.3310    4.6780   C.3       1 RES1   0.0000
   272 C104     -2.2905    1.0603    5.8761   C.3       1 RES1   0.0000
   273 C105     -1.8934   -0.2162    6.6354   C.3       1 RES1   0.0000
   274 C106     -1.0484    0.0400    7.8764   C.3       1 RES1   0.0000
   275 C107      3.7184    3.9632    1.6242   C.3       1 RES1   0.0000
   276 C108      4.0281    4.2656    3.1040   C.3       1 RES1   0.0000
   277 C109      5.4139    3.8023    3.5667   C.3       1 RES1   0.0000
   278 C110      5.8607    4.5386    4.8412   C.3       1 RES1   0.0000
   279 C111      5.9224    3.6553    6.0895   C.3       1 RES1   0.0000
   280 C112      7.0149    2.5871    6.0455   C.3       1 RES1   0.0000
   281 C113      7.0503    1.7872    7.3470   C.3       1 RES1   0.0000
   282 C114      8.2003    0.7920    7.4030   C.3       1 RES1   0.0000
   283 H153      2.7698    1.0875   -7.0629   H         1 RES1   0.0000
   284 H154      2.5632    0.0780   -5.6309   H         1 RES1   0.0000
   285 H155      3.7870   -0.3268   -6.8372   H         1 RES1   0.0000
   286 H156      3.7895    2.2131   -5.1422   H         1 RES1   0.0000
   287 H157      5.0484    1.7399   -6.2772   H         1 RES1   0.0000
   288 H158      4.2707    0.0973   -3.8414   H         1 RES1   0.0000
   289 H159      5.5551    1.3087   -3.8239   H         1 RES1   0.0000
   290 H160      6.7560    0.0906   -5.6114   H         1 RES1   0.0000
   291 H161      5.5363   -1.1659   -5.6040   H         1 RES1   0.0000
   292 H162      7.4672   -0.4126   -3.3768   H         1 RES1   0.0000
   293 H163      7.4238   -1.9127   -4.2989   H         1 RES1   0.0000
   294 H164      5.3421   -0.9669   -2.2909   H         1 RES1   0.0000
   295 H165      6.5591   -2.2125   -2.0236   H         1 RES1   0.0000
   296 H166      5.5670   -3.6934   -3.6160   H         1 RES1   0.0000
   297 H167      4.4962   -2.4588   -4.2438   H         1 RES1   0.0000
   298 H168      4.3391   -3.2369   -1.3218   H         1 RES1   0.0000
   299 H169      3.6572   -4.3161   -2.5405   H         1 RES1   0.0000
   300 H170      2.4962   -3.1750   -4.3328   H         1 RES1   0.0000
   301 H171      1.4612   -1.8052   -3.8749   H         1 RES1   0.0000
   302 H172     -0.0168   -3.5680   -4.2117   H         1 RES1   0.0000
   303 H173      0.1157   -3.4243   -2.4571   H         1 RES1   0.0000
   304 H174      0.0916   -5.7523   -2.9607   H         1 RES1   0.0000
   305 H175      1.7369   -5.3777   -2.5162   H         1 RES1   0.0000
   306 H176      1.9582   -6.7865   -4.3470   H         1 RES1   0.0000
   307 H177      2.2006   -5.2237   -5.0906   H         1 RES1   0.0000
   308 H178     -0.4810   -6.6600   -5.0498   H         1 RES1   0.0000
   309 H179      0.7318   -6.9467   -6.2862   H         1 RES1   0.0000
   310 H180     -0.7439   -4.3251   -5.8211   H         1 RES1   0.0000
   311 H181     -0.9681   -5.4883   -7.1126   H         1 RES1   0.0000
   312 H182      1.3815   -5.0596   -7.8776   H         1 RES1   0.0000
   313 H183      1.5176   -3.7852   -6.6679   H         1 RES1   0.0000
   314 H184     -0.5473   -3.8538   -8.9141   H         1 RES1   0.0000
   315 H185      0.8967   -2.8481   -8.8750   H         1 RES1   0.0000
   316 H186     -0.3999   -2.5784   -7.7073   H         1 RES1   0.0000
   317 H187      4.0875   -1.1338   -0.6085   H         1 RES1   0.0000
   318 H188      3.0405   -3.2924    0.5546   H         1 RES1   0.0000
   319 H189      1.8951   -2.1358    1.2553   H         1 RES1   0.0000
   320 H190      3.6336   -2.0520    1.6609   H         1 RES1   0.0000
   321 H191      3.7836    1.4310   -0.5575   H         1 RES1   0.0000
   322 H192      4.9985    1.6266    1.5926   H         1 RES1   0.0000
   323 H193      4.9315   -0.0561    1.1131   H         1 RES1   0.0000
   324 H194      3.8296    0.5460    2.3638   H         1 RES1   0.0000
   325 H195      0.6075    4.1180    0.9283   H         1 RES1   0.0000
   326 H196      1.5962    5.0621    2.0509   H         1 RES1   0.0000
   327 H197      0.3055    4.2251    3.7171   H         1 RES1   0.0000
   328 H198      1.1555    2.6903    3.4579   H         1 RES1   0.0000
   329 H199     -0.6216    1.7703    2.1558   H         1 RES1   0.0000
   330 H200     -1.3449    3.3750    1.9038   H         1 RES1   0.0000
   331 H201     -2.7828    2.3923    3.4443   H         1 RES1   0.0000
   332 H202     -1.7840    3.4510    4.4328   H         1 RES1   0.0000
   333 H203     -0.3613    1.4689    5.0428   H         1 RES1   0.0000
   334 H204     -1.3769    0.4580    4.0137   H         1 RES1   0.0000
   335 H205     -3.3288    0.9833    5.5434   H         1 RES1   0.0000
   336 H206     -2.2438    1.8973    6.5721   H         1 RES1   0.0000
   337 H207     -1.3703   -0.9074    5.9603   H         1 RES1   0.0000
   338 H208     -2.7867   -0.7257    6.9864   H         1 RES1   0.0000
   339 H209     -0.1702    0.6368    7.6518   H         1 RES1   0.0000
   340 H210     -0.7337   -0.9067    8.3122   H         1 RES1   0.0000
   341 H211     -1.6583    0.5602    8.6104   H         1 RES1   0.0000
   342 H212      3.6389    4.9148    1.0876   H         1 RES1   0.0000
   343 H213      4.5257    3.4138    1.1446   H         1 RES1   0.0000
   344 H214      3.2597    3.8268    3.7404   H         1 RES1   0.0000
   345 H215      3.9714    5.3458    3.2491   H         1 RES1   0.0000
   346 H216      5.4134    2.7294    3.7514   H         1 RES1   0.0000
   347 H217      6.1344    4.0058    2.7735   H         1 RES1   0.0000
   348 H218      6.8432    4.9858    4.6841   H         1 RES1   0.0000
   349 H219      5.1693    5.3570    5.0516   H         1 RES1   0.0000
   350 H220      4.9507    3.1774    6.2400   H         1 RES1   0.0000
   351 H221      6.1114    4.2959    6.9538   H         1 RES1   0.0000
   352 H222      6.8462    1.9100    5.2018   H         1 RES1   0.0000
   353 H223      7.9823    3.0713    5.8854   H         1 RES1   0.0000
   354 H224      6.0961    1.2651    7.4705   H         1 RES1   0.0000
   355 H225      7.1486    2.4828    8.1792   H         1 RES1   0.0000
   356 H226      8.1011    0.0387    6.6275   H         1 RES1   0.0000
   357 H227      8.2087    0.2948    8.3677   H         1 RES1   0.0000
   358 H228      9.1515    1.3010    7.2745   H         1 RES1   0.0000
@<TRIPOS>BOND
     1     1    20    1
     2     1    23    1
     3     1    27    1
     4     1   139    1
     5     1   142    1
     6     1   146    1
     7     1   258    1
     8     1   261    1
     9     1   265    1
    10     2     3    1
    11     2    45    1
    12     2    46    1
    13     2    47    1
    14     3     4    1
    15     3    48    1
    16     3    49    1
    17     4     5    1
    18     4    50    1
    19     4    51    1
    20     5     6    1
    21     5    52    1
    22     5    53    1
    23     6     7    1
    24     6    54    1
    25     6    55    1
    26     7     8    1
    27     7    56    1
    28     7    57    1
    29     8     9    1
    30     8    58    1
    31     8    59    1
    32     9    10    1
    33     9    60    1
    34     9    61    1
    35    10    11    1
    36    10    19    1
    37    11    12    1
    38    11    62    1
    39    11    63    1
    40    12    13    1
    41    12    64    1
    42    12    65    1
    43    13    14    1
    44    13    66    1
    45    13    67    1
    46    14    15    1
    47    14    68    1
    48    14    69    1
    49    15    16    1
    50    15    70    1
    51    15    71    1
    52    16    17    1
    53    16    72    1
    54    16    73    1
    55    17    18    1
    56    17    74    1
    57    17    75    1
    58    18    76    1
    59    18    77    1
    60    18    78    1
    61    19    20    2
    62    19    21    1
    63    21    22    1
    64    21    23    1
    65    21    79    1
    66    22    80    1
    67    22    81    1
    68    22    82    1
    69    23    24    1
    70    24    25    1
    71    24    26    1
    72    24    83    1
    73    25    84    1
    74    25    85    1
    75    25    86    1
    76    26    27    2
    77    26    28    1
    78    28    29    1
    79    28    37    1
    80    29    30    1
    81    29    87    1
    82    29    88    1
    83    30    31    1
    84    30    89    1
    85    30    90    1
    86    31    32    1
    87    31    91    1
    88    31    92    1
    89    32    33    1
    90    32    93    1
    91    32    94    1
    92    33    34    1
    93    33    95    1
    94    33    96    1
    95    34    35    1
    96    34    97    1
    97    34    98    1
    98    35    36    1
    99    35    99    1
   100    35   100    1
   101    36   101    1
   102    36   102    1
   103    36   103    1
   104    37    38    1
   105    37   104    1
   106    37   105    1
   107    38    39    1
   108    38   106    1
   109    38   107    1
   110    39    40    1
   111    39   108    1
   112    39   109    1
   113    40    41    1
   114    40   110    1
   115    40   111    1
   116    41    42    1
   117    41   112    1
   118    41   113    1
   119    42    43    1
   120    42   114    1
   121    42   115    1
   122    43    44    1
   123    43   116    1
   124    43   117    1
   125    44   118    1
   126    44   119    1
   127    44   120    1
   128   121   122    1
   129   121   164    1
   130   121   165    1
   131   121   166    1
   132   122   123    1
   133   122   167    1
   134   122   168    1
   135   123   124    1
   136   123   169    1
   137   123   170    1
   138   124   125    1
   139   124   171    1
   140   124   172    1
   141   125   126    1
   142   125   173    1
   143   125   174    1
   144   126   127    1
   145   126   175    1
   146   126   176    1
   147   127   128    1
   148   127   177    1
   149   127   178    1
   150   128   129    1
   151   128   179    1
   152   128   180    1
   153   129   130    1
   154   129   138    1
   155   130   131    1
   156   130   181    1
   157   130   182    1
   158   131   132    1
   159   131   183    1
   160   131   184    1
   161   132   133    1
   162   132   185    1
   163   132   186    1
   164   133   134    1
   165   133   187    1
   166   133   188    1
   167   134   135    1
   168   134   189    1
   169   134   190    1
   170   135   136    1
   171   135   191    1
   172   135   192    1
   173   136   137    1
   174   136   193    1
   175   136   194    1
   176   137   195    1
   177   137   196    1
   178   137   197    1
   179   138   139    2
   180   138   140    1
   181   140   141    1
   182   140   142    1
   183   140   198    1
   184   141   199    1
   185   141   200    1
   186   141   201    1
   187   142   143    1
   188   143   144    1
   189   143   145    1
   190   143   202    1
   191   144   203    1
   192   144   204    1
   193   144   205    1
   194   145   146    2
   195   145   147    1
   196   147   148    1
   197   147   156    1
   198   148   149    1
   199   148   206    1
   200   148   207    1
   201   149   150    1
   202   149   208    1
   203   149   209    1
   204   150   151    1
   205   150   210    1
   206   150   211    1
   207   151   152    1
   208   151   212    1
   209   151   213    1
   210   152   153    1
   211   152   214    1
   212   152   215    1
   213   153   154    1
   214   153   216    1
   215   153   217    1
   216   154   155    1
   217   154   218    1
   218   154   219    1
   219   155   220    1
   220   155   221    1
   221   155   222    1
   222   156   157    1
   223   156   223    1
   224   156   224    1
   225   157   158    1
   226   157   225    1
   227   157   226    1
   228   158   159    1
   229   158   227    1
   230   158   228    1
   231   159   160    1
   232   159   229    1
   233   159   230    1
   234   160   161    1
   235   160   231    1
   236   160   232    1
   237   161   162    1
   238   161   233    1
   239   161   234    1
   240   162   163    1
   241   162   235    1
   242   162   236    1
   243   163   237    1
   244   163   238    1
   245   163   239    1
   246   240   241    1
   247   240   283    1
   248   240   284    1
   249   240   285    1
   250   241   242    1
   251   241   286    1
   252   241   287    1
   253   242   243    1
   254   242   288    1
   255   242   289    1
   256   243   244    1
   257   243   290    1
   258   243   291    1
   259   244   245    1
   260   244   292    1
   261   244   293    1
   262   245   246    1
   263   245   294    1
   264   245   295    1
   265   246   247    1
   266   246   296    1
   267   246   297    1
   268   247   248    1
   269   247   298    1
   270   247   299    1
   271   248   249    1
   272   248   257    1
   273   249   250    1
   274   249   300    1
   275   249   301    1
   276   250   251    1
   277   250   302    1
   278   250   303    1
   279   251   252    1
   280   251   304    1
   281   251   305    1
   282   252   253    1
   283   252   306    1
   284   252   307    1
   285   253   254    1
   286   253   308    1
   287   253   309    1
   288   254   255    1
   289   254   310    1
   290   254   311    1
   291   255   256    1
   292   255   312    1
   293   255   313    1
   294   256   314    1
   295   256   315    1
   296   256   316    1
   297   257   258    2
   298   257   259    1
   299   259   260    1
   300   259   261    1
   301   259   317    1
   302   260   318    1
   303   260   319    1
   304   260   320    1
   305   261   262    1
   306   262   263    1
   307   262   264    1
   308   262   321    1
   309   263   322    1
   310   263   323    1
   311   263   324    1
   312   264   265    2
   313   264   266    1
   314   266   267    1
   315   266   275    1
   316   267   268    1
   317   267   325    1
   318   267   326    1
   319   268   269    1
   320   268   327    1
   321   268   328    1
   322   269   270    1
   323   269   329    1
   324   269   330    1
   325   270   271    1
   326   270   331    1
   327   270   332    1
   328   271   272    1
   329   271   333    1
   330   271   334    1
   331   272   273    1
   332   272   335    1
   333   272   336    1
   334   273   274    1
   335   273   337    1
   336   273   338    1
   337   274   339    1
   338   274   340    1
   339   274   341    1
   340   275   276    1
   341   275   342    1
   342   275   343    1
   343   276   277    1
   344   276   344    1
   345   276   345    1
   346   277   278    1
   347   277   346    1
   348   277   347    1
   349   278   279    1
   350   278   348    1
   351   278   349    1
   352   279   280    1
   353   279   350    1
   354   279   351    1
   355   280   281    1
   356   280   352    1
   357   280   353    1
   358   281   282    1
   359   281   354    1
   360   281   355    1
   361   282   356    1
   362   282   357    1
   363   282   358    1
@<TRIPOS>SUBSTRUCTURE
     1 RES1      358 GROUP             0 ****  ****    0  
