@<TRIPOS>MOLECULE
am_c3_9H2O_c0_0_nunpairedes_0_charge_3 Charge: 3 Unpaired_Electrons: 5 XTB_Unpaired_Electrons: 0 XTB_Charge: 3
   190   207     1     0     0
SMALL
NoCharges
****
Generated from Architector

@<TRIPOS>ATOM
     1 Sm1      -0.1016    0.1208   -0.0745   Sm        1 RES1   0.0000
     2 C1        4.4507   -7.6349    2.4386   C.3       1 RES1   0.0000
     3 C2        4.6781   -6.7968    3.7000   C.3       1 RES1   0.0000
     4 C3        3.6451   -7.0074    4.8203   C.3       1 RES1   0.0000
     5 C4        2.1699   -6.7847    4.4545   C.3       1 RES1   0.0000
     6 C5        1.5436   -5.4228    4.7535   C.3       1 RES1   0.0000
     7 C6        0.0862   -5.4690    4.2807   C.3       1 RES1   0.0000
     8 C7       -0.5793   -4.1066    4.0112   C.3       1 RES1   0.0000
     9 C8       -1.3580   -4.1549    2.6928   C.3       1 RES1   0.0000
    10 N1       -2.3293   -3.0859    2.4732   N.am      1 RES1   0.0000
    11 C9       -1.9779   -2.0705    1.6645   C.2       1 RES1   0.0000
    12 O1       -0.7812   -1.7730    1.4552   O.2       1 RES1   0.0000
    13 C10      -3.0216   -1.3876    0.8383   C.ar      1 RES1   0.0000
    14 C11      -4.3319   -1.8734    0.6747   C.ar      1 RES1   0.0000
    15 C12      -5.2019   -1.1587   -0.1111   C.ar      1 RES1   0.0000
    16 C13      -4.7403   -0.0247   -0.7978   C.ar      1 RES1   0.0000
    17 C14      -5.6064    0.7951   -1.5724   C.ar      1 RES1   0.0000
    18 C15      -5.0954    1.6847   -2.4580   C.ar      1 RES1   0.0000
    19 C16      -3.6860    1.8761   -2.5638   C.ar      1 RES1   0.0000
    20 C17      -3.1182    2.6947   -3.5530   C.ar      1 RES1   0.0000
    21 C18      -1.7632    2.9211   -3.5357   C.ar      1 RES1   0.0000
    22 C19      -0.9973    2.3441   -2.5224   C.ar      1 RES1   0.0000
    23 N2       -1.4913    1.5269   -1.6070   N.ar      1 RES1   0.0000
    24 C20      -2.8136    1.2537   -1.6410   C.ar      1 RES1   0.0000
    25 C21      -3.3541    0.2565   -0.7462   C.ar      1 RES1   0.0000
    26 N3       -2.5406   -0.3888    0.1026   N.ar      1 RES1   0.0000
    27 C22      -3.5603   -3.1074    3.1796   C.ar      1 RES1   0.0000
    28 C23      -4.2686   -4.2821    3.3985   C.ar      1 RES1   0.0000
    29 C24      -5.4696   -4.2585    4.0791   C.ar      1 RES1   0.0000
    30 C25      -6.0292   -3.0703    4.5363   C.ar      1 RES1   0.0000
    31 C26      -7.3811   -3.0749    5.1680   C.3       1 RES1   0.0000
    32 C27      -5.2974   -1.9007    4.3375   C.ar      1 RES1   0.0000
    33 C28      -4.0790   -1.9159    3.6879   C.ar      1 RES1   0.0000
    34 H1        5.0128   -7.2236    1.5987   H         1 RES1   0.0000
    35 H2        3.3960   -7.6581    2.1698   H         1 RES1   0.0000
    36 H3        4.7708   -8.6625    2.5877   H         1 RES1   0.0000
    37 H4        4.7382   -5.7455    3.4189   H         1 RES1   0.0000
    38 H5        5.6567   -7.0534    4.1119   H         1 RES1   0.0000
    39 H6        3.9190   -6.3594    5.6569   H         1 RES1   0.0000
    40 H7        3.7537   -8.0448    5.1379   H         1 RES1   0.0000
    41 H8        1.5598   -7.5235    4.9774   H         1 RES1   0.0000
    42 H9        2.0319   -6.9612    3.3893   H         1 RES1   0.0000
    43 H10       2.0750   -4.6123    4.2544   H         1 RES1   0.0000
    44 H11       1.5800   -5.2316    5.8218   H         1 RES1   0.0000
    45 H12      -0.4897   -6.0017    5.0379   H         1 RES1   0.0000
    46 H13       0.0665   -6.0634    3.3590   H         1 RES1   0.0000
    47 H14       0.1679   -3.3145    3.9522   H         1 RES1   0.0000
    48 H15      -1.2747   -3.8673    4.8154   H         1 RES1   0.0000
    49 H16      -1.8962   -5.1037    2.6412   H         1 RES1   0.0000
    50 H17      -0.6756   -4.1120    1.8403   H         1 RES1   0.0000
    51 H18      -4.6493   -2.7847    1.1515   H         1 RES1   0.0000
    52 H19      -6.2246   -1.4742   -0.2392   H         1 RES1   0.0000
    53 H20      -6.6673    0.6834   -1.4353   H         1 RES1   0.0000
    54 H21      -5.7414    2.2865   -3.0787   H         1 RES1   0.0000
    55 H22      -3.7561    3.1155   -4.3139   H         1 RES1   0.0000
    56 H23      -1.2802    3.5242   -4.2844   H         1 RES1   0.0000
    57 H24       0.0691    2.5385   -2.4682   H         1 RES1   0.0000
    58 H25      -3.9096   -5.2139    2.9975   H         1 RES1   0.0000
    59 H26      -5.9935   -5.1859    4.2329   H         1 RES1   0.0000
    60 H27      -7.7463   -4.0899    5.2903   H         1 RES1   0.0000
    61 H28      -8.0987   -2.5358    4.5501   H         1 RES1   0.0000
    62 H29      -7.3812   -2.5961    6.1438   H         1 RES1   0.0000
    63 H30      -5.6898   -0.9608    4.6897   H         1 RES1   0.0000
    64 H31      -3.5174   -1.0035    3.5613   H         1 RES1   0.0000
    65 C29      -8.8097   -0.0214   -2.3460   C.3       1 RES1   0.0000
    66 C30      -8.2351    0.2313   -3.7423   C.3       1 RES1   0.0000
    67 C31      -7.8782   -1.0814   -4.4496   C.3       1 RES1   0.0000
    68 C32      -6.4898   -1.6247   -4.0722   C.3       1 RES1   0.0000
    69 C33      -5.3467   -1.0252   -4.9043   C.3       1 RES1   0.0000
    70 C34      -4.1777   -1.9850   -5.1848   C.3       1 RES1   0.0000
    71 C35      -2.9303   -1.8484   -4.3002   C.3       1 RES1   0.0000
    72 C36      -2.9801   -2.6854   -3.0198   C.3       1 RES1   0.0000
    73 N4       -1.6635   -3.2132   -2.6523   N.am      1 RES1   0.0000
    74 C37      -0.8112   -2.4220   -1.9814   C.2       1 RES1   0.0000
    75 O2       -0.9561   -1.1817   -1.9231   O.2       1 RES1   0.0000
    76 C38       0.2357   -3.0372   -1.0994   C.ar      1 RES1   0.0000
    77 C39       0.2746   -4.4028   -0.7605   C.ar      1 RES1   0.0000
    78 C40       1.2242   -4.8434    0.1252   C.ar      1 RES1   0.0000
    79 C41       2.0315   -3.9084    0.7922   C.ar      1 RES1   0.0000
    80 C42       2.9698   -4.2917    1.7854   C.ar      1 RES1   0.0000
    81 C43       3.4899   -3.3770    2.6377   C.ar      1 RES1   0.0000
    82 C44       3.0985   -2.0093    2.5553   C.ar      1 RES1   0.0000
    83 C45       3.4345   -1.0777    3.5504   C.ar      1 RES1   0.0000
    84 C46       3.0350    0.2308    3.4102   C.ar      1 RES1   0.0000
    85 C47       2.3082    0.5860    2.2718   C.ar      1 RES1   0.0000
    86 N5        1.9223   -0.2764    1.3463   N.ar      1 RES1   0.0000
    87 C48       2.3004   -1.5679    1.4742   C.ar      1 RES1   0.0000
    88 C49       1.7793   -2.5397    0.5427   C.ar      1 RES1   0.0000
    89 N6        0.9652   -2.1332   -0.4466   N.ar      1 RES1   0.0000
    90 C50      -1.2186   -4.4186   -3.2656   C.ar      1 RES1   0.0000
    91 C51      -1.9920   -5.5711   -3.2840   C.ar      1 RES1   0.0000
    92 C52      -1.5096   -6.7275   -3.8657   C.ar      1 RES1   0.0000
    93 C53      -0.2379   -6.7869   -4.4254   C.ar      1 RES1   0.0000
    94 C54       0.3292   -8.0715   -4.9275   C.3       1 RES1   0.0000
    95 C55       0.5087   -5.6113   -4.4472   C.ar      1 RES1   0.0000
    96 C56       0.0337   -4.4490   -3.8769   C.ar      1 RES1   0.0000
    97 H32      -8.7639    0.8724   -1.7228   H         1 RES1   0.0000
    98 H33      -8.2766   -0.8345   -1.8535   H         1 RES1   0.0000
    99 H34      -9.8549   -0.3135   -2.4099   H         1 RES1   0.0000
   100 H35      -7.3417    0.8551   -3.6831   H         1 RES1   0.0000
   101 H36      -8.9741    0.7820   -4.3253   H         1 RES1   0.0000
   102 H37      -7.9238   -0.9395   -5.5312   H         1 RES1   0.0000
   103 H38      -8.6290   -1.8264   -4.1804   H         1 RES1   0.0000
   104 H39      -6.4929   -2.7040   -4.2306   H         1 RES1   0.0000
   105 H40      -6.3105   -1.4556   -3.0072   H         1 RES1   0.0000
   106 H41      -4.9712   -0.1067   -4.4468   H         1 RES1   0.0000
   107 H42      -5.7613   -0.7444   -5.8722   H         1 RES1   0.0000
   108 H43      -3.8492   -1.8103   -6.2092   H         1 RES1   0.0000
   109 H44      -4.5483   -3.0138   -5.1446   H         1 RES1   0.0000
   110 H45      -2.7271   -0.8044   -4.0494   H         1 RES1   0.0000
   111 H46      -2.0850   -2.2220   -4.8803   H         1 RES1   0.0000
   112 H47      -3.6372   -3.5401   -3.1812   H         1 RES1   0.0000
   113 H48      -3.3661   -2.1184   -2.1670   H         1 RES1   0.0000
   114 H49      -0.4530   -5.0869   -1.1649   H         1 RES1   0.0000
   115 H50       1.3062   -5.8888    0.3856   H         1 RES1   0.0000
   116 H51       3.2231   -5.3347    1.8625   H         1 RES1   0.0000
   117 H52       4.1872   -3.6663    3.4097   H         1 RES1   0.0000
   118 H53       3.9808   -1.4117    4.4189   H         1 RES1   0.0000
   119 H54       3.2558    0.9767    4.1570   H         1 RES1   0.0000
   120 H55       2.0167    1.6212    2.1210   H         1 RES1   0.0000
   121 H56      -2.9594   -5.5772   -2.8125   H         1 RES1   0.0000
   122 H57      -2.1320   -7.6049   -3.8673   H         1 RES1   0.0000
   123 H58      -0.4156   -8.8610   -4.9403   H         1 RES1   0.0000
   124 H59       1.1482   -8.3968   -4.2840   H         1 RES1   0.0000
   125 H60       0.7337   -7.9640   -5.9308   H         1 RES1   0.0000
   126 H61       1.4781   -5.6088   -4.9165   H         1 RES1   0.0000
   127 H62       0.6211   -3.5457   -3.9094   H         1 RES1   0.0000
   128 C57      -4.5976    7.2360   -1.5269   C.3       1 RES1   0.0000
   129 C58      -4.1289    5.7959   -1.6794   C.3       1 RES1   0.0000
   130 C59      -4.9420    4.7990   -0.8523   C.3       1 RES1   0.0000
   131 C60      -4.7318    4.9452    0.6548   C.3       1 RES1   0.0000
   132 C61      -5.2429    3.7277    1.4245   C.3       1 RES1   0.0000
   133 C62      -4.3423    2.4988    1.2395   C.3       1 RES1   0.0000
   134 C63      -3.8251    1.8801    2.5360   C.3       1 RES1   0.0000
   135 C64      -2.9467    2.7880    3.3861   C.3       1 RES1   0.0000
   136 N7       -1.8276    3.4102    2.6671   N.am      1 RES1   0.0000
   137 C65      -1.0630    2.7307    1.8056   C.2       1 RES1   0.0000
   138 O3       -1.1585    1.4973    1.6215   O.2       1 RES1   0.0000
   139 C66      -0.0051    3.4446    0.9955   C.ar      1 RES1   0.0000
   140 C67       0.2539    4.8261    0.9713   C.ar      1 RES1   0.0000
   141 C68       1.3940    5.2799    0.3534   C.ar      1 RES1   0.0000
   142 C69       2.2747    4.3660   -0.2495   C.ar      1 RES1   0.0000
   143 C70       3.5655    4.7343   -0.7207   C.ar      1 RES1   0.0000
   144 C71       4.3797    3.8078   -1.2800   C.ar      1 RES1   0.0000
   145 C72       3.9352    2.4668   -1.4831   C.ar      1 RES1   0.0000
   146 C73       4.7386    1.5075   -2.1221   C.ar      1 RES1   0.0000
   147 C74       4.2028    0.2720   -2.4053   C.ar      1 RES1   0.0000
   148 C75       2.8805    0.0084   -2.0357   C.ar      1 RES1   0.0000
   149 N8        2.1242    0.8510   -1.3511   N.ar      1 RES1   0.0000
   150 C76       2.6421    2.0701   -1.0685   C.ar      1 RES1   0.0000
   151 C77       1.8341    3.0226   -0.3448   C.ar      1 RES1   0.0000
   152 N9        0.7218    2.5906    0.2725   N.ar      1 RES1   0.0000
   153 C78      -1.3950    4.6093    3.3203   C.ar      1 RES1   0.0000
   154 C79      -2.2007    5.7390    3.3599   C.ar      1 RES1   0.0000
   155 C80      -1.8479    6.8112    4.1568   C.ar      1 RES1   0.0000
   156 C81      -0.7025    6.7660    4.9430   C.ar      1 RES1   0.0000
   157 C82      -0.3608    7.8594    5.8921   C.3       1 RES1   0.0000
   158 C83       0.1145    5.6400    4.8695   C.ar      1 RES1   0.0000
   159 C84      -0.2215    4.5724    4.0653   C.ar      1 RES1   0.0000
   160 H63      -3.9826    7.8865   -2.1413   H         1 RES1   0.0000
   161 H64      -4.5235    7.5695   -0.4964   H         1 RES1   0.0000
   162 H65      -5.6297    7.3353   -1.8493   H         1 RES1   0.0000
   163 H66      -3.0735    5.7202   -1.3945   H         1 RES1   0.0000
   164 H67      -4.2044    5.5138   -2.7331   H         1 RES1   0.0000
   165 H68      -4.6435    3.7884   -1.1444   H         1 RES1   0.0000
   166 H69      -6.0029    4.9121   -1.0853   H         1 RES1   0.0000
   167 H70      -5.2501    5.8349    1.0117   H         1 RES1   0.0000
   168 H71      -3.6615    5.0647    0.8467   H         1 RES1   0.0000
   169 H72      -6.2488    3.4910    1.0751   H         1 RES1   0.0000
   170 H73      -5.3175    3.9680    2.4853   H         1 RES1   0.0000
   171 H74      -3.4856    2.7402    0.6020   H         1 RES1   0.0000
   172 H75      -4.9084    1.7192    0.7342   H         1 RES1   0.0000
   173 H76      -3.2479    0.9915    2.2818   H         1 RES1   0.0000
   174 H77      -4.6729    1.5824    3.1534   H         1 RES1   0.0000
   175 H78      -2.5599    2.2090    4.2345   H         1 RES1   0.0000
   176 H79      -3.5410    3.6075    3.7962   H         1 RES1   0.0000
   177 H80      -0.4070    5.5206    1.4636   H         1 RES1   0.0000
   178 H81       1.6388    6.3315    0.3662   H         1 RES1   0.0000
   179 H82       3.8894    5.7542   -0.5794   H         1 RES1   0.0000
   180 H83       5.3775    4.0719   -1.5950   H         1 RES1   0.0000
   181 H84       5.7436    1.7717   -2.4140   H         1 RES1   0.0000
   182 H85       4.7750   -0.4816   -2.9203   H         1 RES1   0.0000
   183 H86       2.4137   -0.9230   -2.3391   H         1 RES1   0.0000
   184 H87      -3.0997    5.7776    2.7701   H         1 RES1   0.0000
   185 H88      -2.4929    7.6748    4.1911   H         1 RES1   0.0000
   186 H89      -1.1775    8.5650    5.9984   H         1 RES1   0.0000
   187 H90       0.5246    8.4045    5.5681   H         1 RES1   0.0000
   188 H91      -0.1397    7.4312    6.8668   H         1 RES1   0.0000
   189 H92       0.9989    5.5922    5.4852   H         1 RES1   0.0000
   190 H93       0.3926    3.6858    4.0350   H         1 RES1   0.0000
@<TRIPOS>BOND
     1     1    12    1
     2     1    23    1
     3     1    26    1
     4     1    75    1
     5     1    86    1
     6     1    89    1
     7     1   138    1
     8     1   149    1
     9     1   152    1
    10     2     3    1
    11     2    34    1
    12     2    35    1
    13     2    36    1
    14     3     4    1
    15     3    37    1
    16     3    38    1
    17     4     5    1
    18     4    39    1
    19     4    40    1
    20     5     6    1
    21     5    41    1
    22     5    42    1
    23     6     7    1
    24     6    43    1
    25     6    44    1
    26     7     8    1
    27     7    45    1
    28     7    46    1
    29     8     9    1
    30     8    47    1
    31     8    48    1
    32     9    10    1
    33     9    49    1
    34     9    50    1
    35    10    11    1
    36    10    27    1
    37    11    12    2
    38    11    13    1
    39    13    14    1
    40    13    26    2
    41    14    15    2
    42    14    51    1
    43    15    16    1
    44    15    52    1
    45    16    17    1
    46    16    25    2
    47    17    18    2
    48    17    53    1
    49    18    19    1
    50    18    54    1
    51    19    20    1
    52    19    24    2
    53    20    21    2
    54    20    55    1
    55    21    22    1
    56    21    56    1
    57    22    23    2
    58    22    57    1
    59    23    24    1
    60    24    25    1
    61    25    26    1
    62    27    28    1
    63    27    33    2
    64    28    29    2
    65    28    58    1
    66    29    30    1
    67    29    59    1
    68    30    31    1
    69    30    32    2
    70    31    60    1
    71    31    61    1
    72    31    62    1
    73    32    33    1
    74    32    63    1
    75    33    64    1
    76    65    66    1
    77    65    97    1
    78    65    98    1
    79    65    99    1
    80    66    67    1
    81    66   100    1
    82    66   101    1
    83    67    68    1
    84    67   102    1
    85    67   103    1
    86    68    69    1
    87    68   104    1
    88    68   105    1
    89    69    70    1
    90    69   106    1
    91    69   107    1
    92    70    71    1
    93    70   108    1
    94    70   109    1
    95    71    72    1
    96    71   110    1
    97    71   111    1
    98    72    73    1
    99    72   112    1
   100    72   113    1
   101    73    74    1
   102    73    90    1
   103    74    75    2
   104    74    76    1
   105    76    77    1
   106    76    89    2
   107    77    78    2
   108    77   114    1
   109    78    79    1
   110    78   115    1
   111    79    80    1
   112    79    88    2
   113    80    81    2
   114    80   116    1
   115    81    82    1
   116    81   117    1
   117    82    83    1
   118    82    87    2
   119    83    84    2
   120    83   118    1
   121    84    85    1
   122    84   119    1
   123    85    86    2
   124    85   120    1
   125    86    87    1
   126    87    88    1
   127    88    89    1
   128    90    91    1
   129    90    96    2
   130    91    92    2
   131    91   121    1
   132    92    93    1
   133    92   122    1
   134    93    94    1
   135    93    95    2
   136    94   123    1
   137    94   124    1
   138    94   125    1
   139    95    96    1
   140    95   126    1
   141    96   127    1
   142   128   129    1
   143   128   160    1
   144   128   161    1
   145   128   162    1
   146   129   130    1
   147   129   163    1
   148   129   164    1
   149   130   131    1
   150   130   165    1
   151   130   166    1
   152   131   132    1
   153   131   167    1
   154   131   168    1
   155   132   133    1
   156   132   169    1
   157   132   170    1
   158   133   134    1
   159   133   171    1
   160   133   172    1
   161   134   135    1
   162   134   173    1
   163   134   174    1
   164   135   136    1
   165   135   175    1
   166   135   176    1
   167   136   137    1
   168   136   153    1
   169   137   138    2
   170   137   139    1
   171   139   140    1
   172   139   152    2
   173   140   141    2
   174   140   177    1
   175   141   142    1
   176   141   178    1
   177   142   143    1
   178   142   151    2
   179   143   144    2
   180   143   179    1
   181   144   145    1
   182   144   180    1
   183   145   146    1
   184   145   150    2
   185   146   147    2
   186   146   181    1
   187   147   148    1
   188   147   182    1
   189   148   149    2
   190   148   183    1
   191   149   150    1
   192   150   151    1
   193   151   152    1
   194   153   154    1
   195   153   159    2
   196   154   155    2
   197   154   184    1
   198   155   156    1
   199   155   185    1
   200   156   157    1
   201   156   158    2
   202   157   186    1
   203   157   187    1
   204   157   188    1
   205   158   159    1
   206   158   189    1
   207   159   190    1
@<TRIPOS>SUBSTRUCTURE
     1 RES1      190 GROUP             0 ****  ****    0  
