@<TRIPOS>MOLECULE
am_c3_9H2O_c0_0_nunpairedes_0_charge_3 Charge: 3 Unpaired_Electrons: 5 XTB_Unpaired_Electrons: 0 XTB_Charge: 3
   172   186     1     0     0
SMALL
NoCharges
****
Generated from Architector

@<TRIPOS>ATOM
     1 Sm1      -0.0478   -0.0351    0.0171   Sm        1 RES1   0.0000
     2 C1       -4.7775    3.5872    3.2186   C.3       1 RES1   0.0000
     3 C2       -4.0656    2.2412    3.2866   C.3       1 RES1   0.0000
     4 N1       -2.7181    2.3075    2.7335   N.am      1 RES1   0.0000
     5 C3       -2.3086    1.5517    1.7064   C.2       1 RES1   0.0000
     6 O1       -1.0998    1.3537    1.4806   O.2       1 RES1   0.0000
     7 C4       -3.2604    0.9763    0.6847   C.ar      1 RES1   0.0000
     8 C5       -4.4875    1.5172    0.2977   C.ar      1 RES1   0.0000
     9 C6       -5.1140    0.9780   -0.8150   C.ar      1 RES1   0.0000
    10 C7       -4.5145   -0.0522   -1.5251   C.ar      1 RES1   0.0000
    11 C8       -3.2937   -0.5524   -1.0698   C.ar      1 RES1   0.0000
    12 C9       -2.3870   -1.5280   -1.7806   C.2       1 RES1   0.0000
    13 O2       -1.1795   -1.4718   -1.4649   O.2       1 RES1   0.0000
    14 N2       -2.8194   -2.3476   -2.7565   N.am      1 RES1   0.0000
    15 C10      -4.2025   -2.8115   -2.8421   C.3       1 RES1   0.0000
    16 C11      -4.9162   -2.3613   -4.1156   C.3       1 RES1   0.0000
    17 C12      -1.9060   -2.8327   -3.7447   C.ar      1 RES1   0.0000
    18 C13      -0.7539   -2.1021   -4.0386   C.ar      1 RES1   0.0000
    19 C14       0.0783   -2.4589   -5.0782   C.ar      1 RES1   0.0000
    20 C15      -0.2164   -3.5482   -5.8892   C.ar      1 RES1   0.0000
    21 C16       0.6424   -3.8762   -7.0637   C.3       1 RES1   0.0000
    22 C17      -1.3474   -4.2971   -5.5766   C.ar      1 RES1   0.0000
    23 C18      -2.1766   -3.9593   -4.5222   C.ar      1 RES1   0.0000
    24 N3       -2.7012   -0.0269    0.0053   N.ar      1 RES1   0.0000
    25 C19      -1.7741    3.1609    3.3842   C.ar      1 RES1   0.0000
    26 C20      -1.8872    3.4799    4.7330   C.ar      1 RES1   0.0000
    27 C21      -1.0263    4.3949    5.3114   C.ar      1 RES1   0.0000
    28 C22      -0.0136    5.0033    4.5815   C.ar      1 RES1   0.0000
    29 C23       0.9050    6.0157    5.1866   C.3       1 RES1   0.0000
    30 C24       0.1124    4.6521    3.2394   C.ar      1 RES1   0.0000
    31 C25      -0.7585    3.7655    2.6432   C.ar      1 RES1   0.0000
    32 H1       -5.7902    3.4803    3.5955   H         1 RES1   0.0000
    33 H2       -4.8140    3.9717    2.2024   H         1 RES1   0.0000
    34 H3       -4.2635    4.3289    3.8242   H         1 RES1   0.0000
    35 H4       -4.6152    1.4602    2.7592   H         1 RES1   0.0000
    36 H5       -3.9851    1.9223    4.3292   H         1 RES1   0.0000
    37 H6       -4.9272    2.3604    0.8035   H         1 RES1   0.0000
    38 H7       -6.0679    1.3676   -1.1411   H         1 RES1   0.0000
    39 H8       -4.9766   -0.4020   -2.4316   H         1 RES1   0.0000
    40 H9       -4.7265   -2.4800   -1.9449   H         1 RES1   0.0000
    41 H10      -4.1889   -3.9054   -2.8075   H         1 RES1   0.0000
    42 H11      -4.8725   -1.2830   -4.2516   H         1 RES1   0.0000
    43 H12      -5.9570   -2.6692   -4.0588   H         1 RES1   0.0000
    44 H13      -4.4741   -2.8188   -4.9968   H         1 RES1   0.0000
    45 H14      -0.5060   -1.2331   -3.4536   H         1 RES1   0.0000
    46 H15       0.9578   -1.8622   -5.2804   H         1 RES1   0.0000
    47 H16       1.5241   -3.2395   -7.0957   H         1 RES1   0.0000
    48 H17       0.0851   -3.7296   -7.9887   H         1 RES1   0.0000
    49 H18       0.9485   -4.9196   -7.0386   H         1 RES1   0.0000
    50 H19      -1.5932   -5.1602   -6.1768   H         1 RES1   0.0000
    51 H20      -3.0297   -4.5914   -4.3433   H         1 RES1   0.0000
    52 H21      -2.6469    3.0377    5.3549   H         1 RES1   0.0000
    53 H22      -1.1539    4.6482    6.3513   H         1 RES1   0.0000
    54 H23       0.5777    6.3094    6.1798   H         1 RES1   0.0000
    55 H24       0.9466    6.9070    4.5622   H         1 RES1   0.0000
    56 H25       1.9194    5.6212    5.2550   H         1 RES1   0.0000
    57 H26       0.8874    5.1088    2.6377   H         1 RES1   0.0000
    58 H27      -0.6505    3.5549    1.5896   H         1 RES1   0.0000
    59 C26       5.2209    2.2834    3.4146   C.3       1 RES1   0.0000
    60 C27       3.6983    2.3891    3.4251   C.3       1 RES1   0.0000
    61 N4        3.0791    1.2162    2.8310   N.am      1 RES1   0.0000
    62 C28       2.3086    1.2199    1.7420   C.2       1 RES1   0.0000
    63 O3        1.6101    0.2275    1.4610   O.2       1 RES1   0.0000
    64 C29       2.2820    2.3395    0.7315   C.ar      1 RES1   0.0000
    65 C30       3.3218    3.2084    0.3978   C.ar      1 RES1   0.0000
    66 C31       3.1566    4.0232   -0.7135   C.ar      1 RES1   0.0000
    67 C32       1.9906    3.9577   -1.4655   C.ar      1 RES1   0.0000
    68 C33       0.9886    3.0776   -1.0576   C.ar      1 RES1   0.0000
    69 C34      -0.2938    2.7028   -1.7678   C.2       1 RES1   0.0000
    70 O4       -0.7519    1.5759   -1.4727   O.2       1 RES1   0.0000
    71 N5       -0.8990    3.4636   -2.6908   N.am      1 RES1   0.0000
    72 C35      -0.6703    4.8969   -2.8332   C.3       1 RES1   0.0000
    73 C36       0.0013    5.2403   -4.1601   C.3       1 RES1   0.0000
    74 C37      -1.8451    2.8535   -3.5832   C.ar      1 RES1   0.0000
    75 C38      -1.6543    1.5255   -3.9640   C.ar      1 RES1   0.0000
    76 C39      -2.4981    0.9109   -4.8638   C.ar      1 RES1   0.0000
    77 C40      -3.5492    1.6072   -5.4451   C.ar      1 RES1   0.0000
    78 C41      -4.4176    0.9475   -6.4602   C.3       1 RES1   0.0000
    79 C42      -3.7330    2.9364   -5.0765   C.ar      1 RES1   0.0000
    80 C43      -2.9070    3.5545   -4.1539   C.ar      1 RES1   0.0000
    81 N6        1.1645    2.2921    0.0073   N.ar      1 RES1   0.0000
    82 C44       3.2780   -0.0478    3.4787   C.ar      1 RES1   0.0000
    83 C45       3.2554   -0.1857    4.8613   C.ar      1 RES1   0.0000
    84 C46       3.5199   -1.4162    5.4329   C.ar      1 RES1   0.0000
    85 C47       3.7977   -2.5340    4.6547   C.ar      1 RES1   0.0000
    86 C48       4.1298   -3.8417    5.2889   C.3       1 RES1   0.0000
    87 C49       3.7936   -2.3885    3.2723   C.ar      1 RES1   0.0000
    88 C50       3.5445   -1.1638    2.6894   C.ar      1 RES1   0.0000
    89 H28       5.6552    3.1595    3.8892   H         1 RES1   0.0000
    90 H29       5.6146    2.1994    2.4036   H         1 RES1   0.0000
    91 H30       5.5387    1.4011    3.9653   H         1 RES1   0.0000
    92 H31       3.3441    3.2738    2.8937   H         1 RES1   0.0000
    93 H32       3.3491    2.4702    4.4588   H         1 RES1   0.0000
    94 H33       4.2537    3.2307    0.9413   H         1 RES1   0.0000
    95 H34       3.9400    4.7112   -0.9978   H         1 RES1   0.0000
    96 H35       1.9139    4.5532   -2.3584   H         1 RES1   0.0000
    97 H36      -0.0843    5.2386   -1.9794   H         1 RES1   0.0000
    98 H37      -1.6374    5.4062   -2.7759   H         1 RES1   0.0000
    99 H38       0.9951    4.8029   -4.2361   H         1 RES1   0.0000
   100 H39       0.0890    6.3198   -4.2530   H         1 RES1   0.0000
   101 H40      -0.5934    4.8695   -4.9926   H         1 RES1   0.0000
   102 H41      -0.8286    0.9640   -3.5643   H         1 RES1   0.0000
   103 H42      -2.3137   -0.1154   -5.1500   H         1 RES1   0.0000
   104 H43      -4.1678   -0.1056   -6.5563   H         1 RES1   0.0000
   105 H44      -4.2719    1.4226   -7.4272   H         1 RES1   0.0000
   106 H45      -5.4675    1.0525   -6.2022   H         1 RES1   0.0000
   107 H46      -4.5277    3.5063   -5.5348   H         1 RES1   0.0000
   108 H47      -3.1068    4.5870   -3.9168   H         1 RES1   0.0000
   109 H48       3.0467    0.6550    5.5045   H         1 RES1   0.0000
   110 H49       3.5311   -1.5106    6.5069   H         1 RES1   0.0000
   111 H50       5.0012   -3.7270    5.9296   H         1 RES1   0.0000
   112 H51       4.3565   -4.5865    4.5312   H         1 RES1   0.0000
   113 H52       3.3123   -4.1912    5.9168   H         1 RES1   0.0000
   114 H53       4.0290   -3.2328    2.6385   H         1 RES1   0.0000
   115 H54       3.5669   -1.0732    1.6137   H         1 RES1   0.0000
   116 C51      -2.0652   -2.1524    4.4820   C.3       1 RES1   0.0000
   117 C52      -2.3261   -2.7974    3.1291   C.3       1 RES1   0.0000
   118 N7       -1.1249   -3.4365    2.5821   N.am      1 RES1   0.0000
   119 C53      -0.4608   -2.7320    1.6590   C.2       1 RES1   0.0000
   120 O5       -0.7917   -1.5496    1.4353   O.2       1 RES1   0.0000
   121 C54       0.5318   -3.3273    0.6940   C.ar      1 RES1   0.0000
   122 C55       0.6212   -4.6748    0.3334   C.ar      1 RES1   0.0000
   123 C56       1.2983   -4.9784   -0.8378   C.ar      1 RES1   0.0000
   124 C57       1.8960   -3.9735   -1.5925   C.ar      1 RES1   0.0000
   125 C58       1.8654   -2.6668   -1.1027   C.ar      1 RES1   0.0000
   126 C59       2.3364   -1.3821   -1.7587   C.2       1 RES1   0.0000
   127 O6        1.7887   -0.3405   -1.3360   O.2       1 RES1   0.0000
   128 N8        3.2198   -1.3234   -2.7674   N.am      1 RES1   0.0000
   129 C60       4.1815   -2.3799   -3.0526   C.3       1 RES1   0.0000
   130 C61       3.9116   -3.0407   -4.4009   C.3       1 RES1   0.0000
   131 C62       3.2401   -0.1616   -3.6103   C.ar      1 RES1   0.0000
   132 C63       4.3818    0.2762   -4.2805   C.ar      1 RES1   0.0000
   133 C64       4.3096    1.3446   -5.1590   C.ar      1 RES1   0.0000
   134 C65       3.1211    2.0301   -5.3818   C.ar      1 RES1   0.0000
   135 C66       3.0223    3.1625   -6.3475   C.3       1 RES1   0.0000
   136 C67       1.9908    1.5935   -4.7018   C.ar      1 RES1   0.0000
   137 C68       2.0439    0.5116   -3.8504   C.ar      1 RES1   0.0000
   138 N9        1.1668   -2.3809    0.0019   N.ar      1 RES1   0.0000
   139 C69      -0.6402   -4.5921    3.2426   C.ar      1 RES1   0.0000
   140 C70      -1.5245   -5.5509    3.7302   C.ar      1 RES1   0.0000
   141 C71      -1.0511   -6.6154    4.4648   C.ar      1 RES1   0.0000
   142 C72       0.3079   -6.7719    4.7233   C.ar      1 RES1   0.0000
   143 C73       0.7866   -7.9040    5.5686   C.3       1 RES1   0.0000
   144 C74       1.1831   -5.8188    4.2112   C.ar      1 RES1   0.0000
   145 C75       0.7218   -4.7315    3.4933   C.ar      1 RES1   0.0000
   146 H55      -2.9750   -1.6927    4.8571   H         1 RES1   0.0000
   147 H56      -1.2957   -1.3914    4.3895   H         1 RES1   0.0000
   148 H57      -1.7339   -2.8929    5.2034   H         1 RES1   0.0000
   149 H58      -2.6478   -2.0373    2.4102   H         1 RES1   0.0000
   150 H59      -3.1064   -3.5538    3.2057   H         1 RES1   0.0000
   151 H60       0.1371   -5.4530    0.9067   H         1 RES1   0.0000
   152 H61       1.3357   -6.0015   -1.1851   H         1 RES1   0.0000
   153 H62       2.3315   -4.2331   -2.5424   H         1 RES1   0.0000
   154 H63       4.1554   -3.1015   -2.2347   H         1 RES1   0.0000
   155 H64       5.1818   -1.9382   -3.0566   H         1 RES1   0.0000
   156 H65       2.9283   -3.5066   -4.4262   H         1 RES1   0.0000
   157 H66       4.6639   -3.8009   -4.5959   H         1 RES1   0.0000
   158 H67       3.9510   -2.3021   -5.1993   H         1 RES1   0.0000
   159 H68       5.3360   -0.2089   -4.1545   H         1 RES1   0.0000
   160 H69       5.1939    1.6450   -5.6993   H         1 RES1   0.0000
   161 H70       3.2822    2.8230   -7.3475   H         1 RES1   0.0000
   162 H71       3.7028    3.9715   -6.0923   H         1 RES1   0.0000
   163 H72       2.0058    3.5449   -6.3713   H         1 RES1   0.0000
   164 H73       1.0418    2.0817   -4.8757   H         1 RES1   0.0000
   165 H74       1.1347    0.1730   -3.3794   H         1 RES1   0.0000
   166 H75      -2.5832   -5.4736    3.5505   H         1 RES1   0.0000
   167 H76      -1.7502   -7.3304    4.8657   H         1 RES1   0.0000
   168 H77       0.3550   -8.8480    5.2400   H         1 RES1   0.0000
   169 H78       0.4687   -7.7540    6.6010   H         1 RES1   0.0000
   170 H79       1.8710   -7.9825    5.5543   H         1 RES1   0.0000
   171 H80       2.2402   -5.9032    4.4085   H         1 RES1   0.0000
   172 H81       1.4121   -3.9734    3.1547   H         1 RES1   0.0000
@<TRIPOS>BOND
     1     1     6    1
     2     1    13    1
     3     1    24    1
     4     1    63    1
     5     1    70    1
     6     1    81    1
     7     1   120    1
     8     1   127    1
     9     1   138    1
    10     2     3    1
    11     2    32    1
    12     2    33    1
    13     2    34    1
    14     3     4    1
    15     3    35    1
    16     3    36    1
    17     4     5    1
    18     4    25    1
    19     5     6    2
    20     5     7    1
    21     7     8    1
    22     7    24    2
    23     8     9    2
    24     8    37    1
    25     9    10    1
    26     9    38    1
    27    10    11    2
    28    10    39    1
    29    11    12    1
    30    11    24    1
    31    12    13    2
    32    12    14    1
    33    14    15    1
    34    14    17    1
    35    15    16    1
    36    15    40    1
    37    15    41    1
    38    16    42    1
    39    16    43    1
    40    16    44    1
    41    17    18    1
    42    17    23    2
    43    18    19    2
    44    18    45    1
    45    19    20    1
    46    19    46    1
    47    20    21    1
    48    20    22    2
    49    21    47    1
    50    21    48    1
    51    21    49    1
    52    22    23    1
    53    22    50    1
    54    23    51    1
    55    25    26    1
    56    25    31    2
    57    26    27    2
    58    26    52    1
    59    27    28    1
    60    27    53    1
    61    28    29    1
    62    28    30    2
    63    29    54    1
    64    29    55    1
    65    29    56    1
    66    30    31    1
    67    30    57    1
    68    31    58    1
    69    59    60    1
    70    59    89    1
    71    59    90    1
    72    59    91    1
    73    60    61    1
    74    60    92    1
    75    60    93    1
    76    61    62    1
    77    61    82    1
    78    62    63    2
    79    62    64    1
    80    64    65    1
    81    64    81    2
    82    65    66    2
    83    65    94    1
    84    66    67    1
    85    66    95    1
    86    67    68    2
    87    67    96    1
    88    68    69    1
    89    68    81    1
    90    69    70    2
    91    69    71    1
    92    71    72    1
    93    71    74    1
    94    72    73    1
    95    72    97    1
    96    72    98    1
    97    73    99    1
    98    73   100    1
    99    73   101    1
   100    74    75    1
   101    74    80    2
   102    75    76    2
   103    75   102    1
   104    76    77    1
   105    76   103    1
   106    77    78    1
   107    77    79    2
   108    78   104    1
   109    78   105    1
   110    78   106    1
   111    79    80    1
   112    79   107    1
   113    80   108    1
   114    82    83    1
   115    82    88    2
   116    83    84    2
   117    83   109    1
   118    84    85    1
   119    84   110    1
   120    85    86    1
   121    85    87    2
   122    86   111    1
   123    86   112    1
   124    86   113    1
   125    87    88    1
   126    87   114    1
   127    88   115    1
   128   116   117    1
   129   116   146    1
   130   116   147    1
   131   116   148    1
   132   117   118    1
   133   117   149    1
   134   117   150    1
   135   118   119    1
   136   118   139    1
   137   119   120    2
   138   119   121    1
   139   121   122    1
   140   121   138    2
   141   122   123    2
   142   122   151    1
   143   123   124    1
   144   123   152    1
   145   124   125    2
   146   124   153    1
   147   125   126    1
   148   125   138    1
   149   126   127    2
   150   126   128    1
   151   128   129    1
   152   128   131    1
   153   129   130    1
   154   129   154    1
   155   129   155    1
   156   130   156    1
   157   130   157    1
   158   130   158    1
   159   131   132    1
   160   131   137    2
   161   132   133    2
   162   132   159    1
   163   133   134    1
   164   133   160    1
   165   134   135    1
   166   134   136    2
   167   135   161    1
   168   135   162    1
   169   135   163    1
   170   136   137    1
   171   136   164    1
   172   137   165    1
   173   139   140    1
   174   139   145    2
   175   140   141    2
   176   140   166    1
   177   141   142    1
   178   141   167    1
   179   142   143    1
   180   142   144    2
   181   143   168    1
   182   143   169    1
   183   143   170    1
   184   144   145    1
   185   144   171    1
   186   145   172    1
@<TRIPOS>SUBSTRUCTURE
     1 RES1      172 GROUP             0 ****  ****    0  
