@<TRIPOS>MOLECULE
am_c3_9H2O_c0_0_nunpairedes_0_charge_3 Charge: 3 Unpaired_Electrons: 5 XTB_Unpaired_Electrons: 0 XTB_Charge: 3
   244   249     1     0     0
SMALL
NoCharges
****
Generated from Architector

@<TRIPOS>ATOM
     1 Sm1      -0.2095    0.3114    0.1628   Sm        1 RES1   0.0000
     2 C1        0.8759   -9.0745   -0.9509   C.3       1 RES1   0.0000
     3 C2        0.8380   -7.6928   -0.3042   C.3       1 RES1   0.0000
     4 C3        0.0390   -6.6485   -1.1045   C.3       1 RES1   0.0000
     5 C4       -1.3820   -7.1240   -1.4451   C.3       1 RES1   0.0000
     6 C5       -2.4894   -6.0751   -1.3200   C.3       1 RES1   0.0000
     7 C6       -2.5958   -5.0007   -2.3969   C.3       1 RES1   0.0000
     8 C7       -1.4429   -4.0013   -2.4084   C.3       1 RES1   0.0000
     9 C8       -1.7320   -2.8102   -3.3224   C.3       1 RES1   0.0000
    10 N1       -2.7215   -1.8586   -2.8028   N.am      1 RES1   0.0000
    11 C9       -4.0125   -1.8139   -3.4757   C.3       1 RES1   0.0000
    12 C10      -3.8855   -1.4411   -4.9646   C.3       1 RES1   0.0000
    13 C11      -2.9933   -0.2039   -5.1939   C.3       1 RES1   0.0000
    14 C12      -1.7606   -0.5035   -6.0674   C.3       1 RES1   0.0000
    15 C13      -0.4956    0.2143   -5.5928   C.3       1 RES1   0.0000
    16 C14       0.7303   -0.2745   -6.3665   C.3       1 RES1   0.0000
    17 C15       2.0165    0.5232   -6.1197   C.3       1 RES1   0.0000
    18 C16       3.2462   -0.3482   -6.3567   C.3       1 RES1   0.0000
    19 C17      -2.3790   -1.0799   -1.7958   C.2       1 RES1   0.0000
    20 O1       -1.2390   -1.1366   -1.2727   O.2       1 RES1   0.0000
    21 C18      -3.3733   -0.0675   -1.2050   C.3       1 RES1   0.0000
    22 O2       -2.6615    0.6554   -0.2012   O.3       1 RES1   0.0000
    23 C19      -2.9602    2.0479   -0.0672   C.3       1 RES1   0.0000
    24 C20      -2.8052    2.3761    1.4117   C.3       1 RES1   0.0000
    25 O3       -1.5143    1.9099    1.8160   O.3       1 RES1   0.0000
    26 C21      -1.3311    1.8701    3.2357   C.3       1 RES1   0.0000
    27 C22      -1.0233    0.4329    3.6751   C.2       1 RES1   0.0000
    28 O4       -0.6573   -0.3420    2.7586   O.2       1 RES1   0.0000
    29 N2       -1.0682    0.1284    4.9684   N.am      1 RES1   0.0000
    30 C23      -1.6405    1.0183    5.9761   C.3       1 RES1   0.0000
    31 C24      -3.1723    0.9868    6.0628   C.3       1 RES1   0.0000
    32 C25      -3.7740   -0.3377    6.5393   C.3       1 RES1   0.0000
    33 C26      -5.2645   -0.2262    6.8756   C.3       1 RES1   0.0000
    34 C27      -6.1994    0.0211    5.6883   C.3       1 RES1   0.0000
    35 C28      -6.2663    1.4614    5.1780   C.3       1 RES1   0.0000
    36 C29      -7.3199    1.6295    4.0860   C.3       1 RES1   0.0000
    37 C30      -7.2799    3.0309    3.4809   C.3       1 RES1   0.0000
    38 C31      -0.6392   -1.1946    5.4368   C.3       1 RES1   0.0000
    39 C32       0.2040   -1.1856    6.7269   C.3       1 RES1   0.0000
    40 C33       0.8520   -2.5528    7.0545   C.3       1 RES1   0.0000
    41 C34       2.3472   -2.4616    7.4099   C.3       1 RES1   0.0000
    42 C35       3.1863   -3.6465    6.8927   C.3       1 RES1   0.0000
    43 C36       4.4199   -3.1123    6.1520   C.3       1 RES1   0.0000
    44 C37       5.0643   -4.0634    5.1419   C.3       1 RES1   0.0000
    45 C38       5.8793   -3.3421    4.0653   C.3       1 RES1   0.0000
    46 H1        1.5066   -9.7373   -0.3633   H         1 RES1   0.0000
    47 H2        1.2778   -9.0138   -1.9596   H         1 RES1   0.0000
    48 H3       -0.1129   -9.5207   -0.9951   H         1 RES1   0.0000
    49 H4        1.8665   -7.3336   -0.1890   H         1 RES1   0.0000
    50 H5        0.4077   -7.7831    0.6982   H         1 RES1   0.0000
    51 H6        0.5799   -6.4179   -2.0250   H         1 RES1   0.0000
    52 H7       -0.0206   -5.7334   -0.5046   H         1 RES1   0.0000
    53 H8       -1.6264   -7.9098   -0.7302   H         1 RES1   0.0000
    54 H9       -1.4004   -7.5700   -2.4408   H         1 RES1   0.0000
    55 H10      -2.3854   -5.5766   -0.3569   H         1 RES1   0.0000
    56 H11      -3.4405   -6.6118   -1.3114   H         1 RES1   0.0000
    57 H12      -3.5321   -4.4741   -2.2120   H         1 RES1   0.0000
    58 H13      -2.6695   -5.4679   -3.3786   H         1 RES1   0.0000
    59 H14      -0.5540   -4.4936   -2.7964   H         1 RES1   0.0000
    60 H15      -1.2084   -3.6456   -1.4064   H         1 RES1   0.0000
    61 H16      -2.1112   -3.1967   -4.2645   H         1 RES1   0.0000
    62 H17      -0.8105   -2.2541   -3.5110   H         1 RES1   0.0000
    63 H18      -4.6566   -1.0912   -2.9771   H         1 RES1   0.0000
    64 H19      -4.4776   -2.7988   -3.3766   H         1 RES1   0.0000
    65 H20      -4.8931   -1.2672   -5.3423   H         1 RES1   0.0000
    66 H21      -3.4982   -2.2886   -5.5320   H         1 RES1   0.0000
    67 H22      -2.6470    0.1692   -4.2244   H         1 RES1   0.0000
    68 H23      -3.5820    0.5929   -5.6472   H         1 RES1   0.0000
    69 H24      -1.9488   -0.2187   -7.1016   H         1 RES1   0.0000
    70 H25      -1.5503   -1.5759   -6.0742   H         1 RES1   0.0000
    71 H26      -0.3440   -0.0028   -4.5248   H         1 RES1   0.0000
    72 H27      -0.6023    1.2948   -5.7062   H         1 RES1   0.0000
    73 H28       0.5021   -0.2564   -7.4309   H         1 RES1   0.0000
    74 H29       0.9123   -1.3183   -6.1000   H         1 RES1   0.0000
    75 H30       2.0264    0.9222   -5.1002   H         1 RES1   0.0000
    76 H31       2.0501    1.3803   -6.7930   H         1 RES1   0.0000
    77 H32       3.2728   -0.6622   -7.3946   H         1 RES1   0.0000
    78 H33       3.2207   -1.2412   -5.7355   H         1 RES1   0.0000
    79 H34       4.1540    0.2035   -6.1395   H         1 RES1   0.0000
    80 H35      -4.2115   -0.6048   -0.7383   H         1 RES1   0.0000
    81 H36      -3.7432    0.6102   -1.9795   H         1 RES1   0.0000
    82 H37      -3.9776    2.2758   -0.3897   H         1 RES1   0.0000
    83 H38      -2.2349    2.6460   -0.6309   H         1 RES1   0.0000
    84 H39      -3.5846    1.8540    1.9729   H         1 RES1   0.0000
    85 H40      -2.8738    3.4584    1.5786   H         1 RES1   0.0000
    86 H41      -2.2004    2.2863    3.7423   H         1 RES1   0.0000
    87 H42      -0.4352    2.4707    3.4568   H         1 RES1   0.0000
    88 H43      -1.3096    2.0424    5.7910   H         1 RES1   0.0000
    89 H44      -1.2494    0.7092    6.9438   H         1 RES1   0.0000
    90 H45      -3.6000    1.2440    5.0957   H         1 RES1   0.0000
    91 H46      -3.4674    1.7714    6.7653   H         1 RES1   0.0000
    92 H47      -3.6600   -1.1127    5.7782   H         1 RES1   0.0000
    93 H48      -3.2461   -0.6630    7.4390   H         1 RES1   0.0000
    94 H49      -5.4070    0.5718    7.6020   H         1 RES1   0.0000
    95 H50      -5.5620   -1.1652    7.3500   H         1 RES1   0.0000
    96 H51      -7.2077   -0.2491    6.0058   H         1 RES1   0.0000
    97 H52      -5.9191   -0.6471    4.8701   H         1 RES1   0.0000
    98 H53      -5.3118    1.7790    4.7576   H         1 RES1   0.0000
    99 H54      -6.4981    2.1388    5.9998   H         1 RES1   0.0000
   100 H55      -8.3132    1.4474    4.4957   H         1 RES1   0.0000
   101 H56      -7.1454    0.8877    3.3004   H         1 RES1   0.0000
   102 H57      -7.4313    3.7845    4.2534   H         1 RES1   0.0000
   103 H58      -8.0606    3.1432    2.7307   H         1 RES1   0.0000
   104 H59      -6.3183    3.2232    2.9978   H         1 RES1   0.0000
   105 H60      -0.0342   -1.6017    4.6267   H         1 RES1   0.0000
   106 H61      -1.5290   -1.8170    5.5747   H         1 RES1   0.0000
   107 H62      -0.4047   -0.9087    7.5830   H         1 RES1   0.0000
   108 H63       0.9829   -0.4334    6.6267   H         1 RES1   0.0000
   109 H64       0.7404   -3.2239    6.2059   H         1 RES1   0.0000
   110 H65       0.3275   -3.0252    7.8842   H         1 RES1   0.0000
   111 H66       2.4665   -2.3663    8.4855   H         1 RES1   0.0000
   112 H67       2.7498   -1.5512    6.9632   H         1 RES1   0.0000
   113 H68       2.5806   -4.2621    6.2197   H         1 RES1   0.0000
   114 H69       3.4807   -4.2926    7.7166   H         1 RES1   0.0000
   115 H70       5.1609   -2.8114    6.8881   H         1 RES1   0.0000
   116 H71       4.1090   -2.2089    5.6205   H         1 RES1   0.0000
   117 H72       4.2849   -4.6594    4.6629   H         1 RES1   0.0000
   118 H73       5.7089   -4.7584    5.6705   H         1 RES1   0.0000
   119 H74       5.3992   -2.4270    3.7176   H         1 RES1   0.0000
   120 H75       6.0142   -3.9893    3.2058   H         1 RES1   0.0000
   121 H76       6.8647   -3.0621    4.4166   H         1 RES1   0.0000
   122 C39       0.5401    4.1121    7.7019   C.3       1 RES1   0.0000
   123 C40       1.0187    2.6763    7.8796   C.3       1 RES1   0.0000
   124 C41       2.5139    2.4983    7.6094   C.3       1 RES1   0.0000
   125 C42       3.0085    3.0861    6.2870   C.3       1 RES1   0.0000
   126 C43       2.6709    2.2931    5.0170   C.3       1 RES1   0.0000
   127 C44       3.7198    1.2002    4.7983   C.3       1 RES1   0.0000
   128 C45       3.5004    0.2736    3.5970   C.3       1 RES1   0.0000
   129 C46       2.2033   -0.5257    3.7427   C.3       1 RES1   0.0000
   130 N3        2.0927   -1.6225    2.7844   N.am      1 RES1   0.0000
   131 C47       2.2949   -3.0003    3.2085   C.3       1 RES1   0.0000
   132 C48       1.0449   -3.8592    3.5056   C.3       1 RES1   0.0000
   133 C49       0.0090   -4.3006    2.4564   C.3       1 RES1   0.0000
   134 C50      -1.0857   -3.2837    2.0648   C.3       1 RES1   0.0000
   135 C51      -2.4726   -3.9552    2.0388   C.3       1 RES1   0.0000
   136 C52      -3.5400   -3.2653    1.1735   C.3       1 RES1   0.0000
   137 C53      -4.4910   -2.3306    1.9242   C.3       1 RES1   0.0000
   138 C54      -3.8034   -1.1169    2.5397   C.3       1 RES1   0.0000
   139 C55       1.8925   -1.2937    1.5274   C.2       1 RES1   0.0000
   140 O5        1.7048   -0.1074    1.1561   O.2       1 RES1   0.0000
   141 C56       1.9104   -2.3748    0.4552   C.3       1 RES1   0.0000
   142 O6        1.4336   -1.8017   -0.7514   O.3       1 RES1   0.0000
   143 C57       2.4468   -1.6253   -1.7396   C.3       1 RES1   0.0000
   144 C58       2.0095   -0.4766   -2.6405   C.3       1 RES1   0.0000
   145 O7        1.5431    0.6278   -1.8784   O.3       1 RES1   0.0000
   146 C59       2.5278    1.6164   -1.5931   C.3       1 RES1   0.0000
   147 C60       1.7636    2.7956   -0.9835   C.2       1 RES1   0.0000
   148 O8        0.7438    2.5224   -0.3017   O.2       1 RES1   0.0000
   149 N4        2.1971    4.0226   -1.2140   N.am      1 RES1   0.0000
   150 C61       3.3821    4.3438   -2.0121   C.3       1 RES1   0.0000
   151 C62       3.1629    4.3563   -3.5312   C.3       1 RES1   0.0000
   152 C63       4.4483    4.7932   -4.2510   C.3       1 RES1   0.0000
   153 C64       5.6154    3.8031   -4.1716   C.3       1 RES1   0.0000
   154 C65       5.3862    2.5020   -4.9434   C.3       1 RES1   0.0000
   155 C66       6.6101    1.5829   -4.9163   C.3       1 RES1   0.0000
   156 C67       6.8918    0.9685   -3.5469   C.3       1 RES1   0.0000
   157 C68       8.0875    0.0269   -3.6061   C.3       1 RES1   0.0000
   158 C69       1.5377    5.1599   -0.5767   C.3       1 RES1   0.0000
   159 C70       2.4078    5.8405    0.4887   C.3       1 RES1   0.0000
   160 C71       3.0010    4.8865    1.5313   C.3       1 RES1   0.0000
   161 C72       4.3486    5.3735    2.0750   C.3       1 RES1   0.0000
   162 C73       5.4712    5.2147    1.0532   C.3       1 RES1   0.0000
   163 C74       6.8074    5.6853    1.6174   C.3       1 RES1   0.0000
   164 C75       7.9380    5.6239    0.5924   C.3       1 RES1   0.0000
   165 C76       8.2810    4.2066    0.1542   C.3       1 RES1   0.0000
   166 H77      -0.4713    4.2374    8.0792   H         1 RES1   0.0000
   167 H78       0.5452    4.4070    6.6556   H         1 RES1   0.0000
   168 H79       1.1828    4.7963    8.2462   H         1 RES1   0.0000
   169 H80       0.4539    2.0193    7.2219   H         1 RES1   0.0000
   170 H81       0.8121    2.3562    8.9010   H         1 RES1   0.0000
   171 H82       2.7697    1.4384    7.6615   H         1 RES1   0.0000
   172 H83       3.0577    2.9947    8.4100   H         1 RES1   0.0000
   173 H84       4.0929    3.1554    6.3406   H         1 RES1   0.0000
   174 H85       2.6297    4.0962    6.1818   H         1 RES1   0.0000
   175 H86       2.6901    2.9658    4.1575   H         1 RES1   0.0000
   176 H87       1.6662    1.8723    5.0884   H         1 RES1   0.0000
   177 H88       3.7908    0.6126    5.7168   H         1 RES1   0.0000
   178 H89       4.6760    1.7051    4.6507   H         1 RES1   0.0000
   179 H90       4.3495   -0.4147    3.5335   H         1 RES1   0.0000
   180 H91       3.4663    0.8637    2.6797   H         1 RES1   0.0000
   181 H92       1.3786    0.1605    3.5636   H         1 RES1   0.0000
   182 H93       2.1429   -0.9183    4.7547   H         1 RES1   0.0000
   183 H94       2.8375   -2.9325    4.1507   H         1 RES1   0.0000
   184 H95       2.9395   -3.5046    2.4854   H         1 RES1   0.0000
   185 H96       0.4960   -3.4108    4.3319   H         1 RES1   0.0000
   186 H97       1.4751   -4.7763    3.9087   H         1 RES1   0.0000
   187 H98      -0.4961   -5.1498    2.9229   H         1 RES1   0.0000
   188 H99       0.5048   -4.7157    1.5778   H         1 RES1   0.0000
   189 H100     -0.8703   -2.8264    1.0821   H         1 RES1   0.0000
   190 H101     -1.1000   -2.4787    2.7946   H         1 RES1   0.0000
   191 H102     -2.8425   -4.0496    3.0606   H         1 RES1   0.0000
   192 H103     -2.3446   -4.9729    1.6702   H         1 RES1   0.0000
   193 H104     -4.1585   -4.0390    0.7148   H         1 RES1   0.0000
   194 H105     -3.0575   -2.7098    0.3597   H         1 RES1   0.0000
   195 H106     -5.0139   -2.8940    2.6991   H         1 RES1   0.0000
   196 H107     -5.2566   -1.9853    1.2245   H         1 RES1   0.0000
   197 H108     -3.2837   -1.3954    3.4510   H         1 RES1   0.0000
   198 H109     -4.5401   -0.3528    2.7820   H         1 RES1   0.0000
   199 H110     -3.0651   -0.6969    1.8492   H         1 RES1   0.0000
   200 H111      1.2369   -3.1893    0.7149   H         1 RES1   0.0000
   201 H112      2.9239   -2.7822    0.3528   H         1 RES1   0.0000
   202 H113      2.5486   -2.5457   -2.3257   H         1 RES1   0.0000
   203 H114      3.3968   -1.3839   -1.2561   H         1 RES1   0.0000
   204 H115      1.1542   -0.7996   -3.2328   H         1 RES1   0.0000
   205 H116      2.8203   -0.1789   -3.3096   H         1 RES1   0.0000
   206 H117      3.0558    1.8969   -2.5068   H         1 RES1   0.0000
   207 H118      3.2442    1.2449   -0.8482   H         1 RES1   0.0000
   208 H119      4.1923    3.6670   -1.7410   H         1 RES1   0.0000
   209 H120      3.6911    5.3509   -1.7336   H         1 RES1   0.0000
   210 H121      2.3762    5.0777   -3.7587   H         1 RES1   0.0000
   211 H122      2.8389    3.3877   -3.9176   H         1 RES1   0.0000
   212 H123      4.7711    5.7473   -3.8275   H         1 RES1   0.0000
   213 H124      4.2110    4.9649   -5.3017   H         1 RES1   0.0000
   214 H125      5.8386    3.5790   -3.1270   H         1 RES1   0.0000
   215 H126      6.4971    4.2895   -4.5923   H         1 RES1   0.0000
   216 H127      5.1555    2.7392   -5.9845   H         1 RES1   0.0000
   217 H128      4.5281    1.9624   -4.5282   H         1 RES1   0.0000
   218 H129      7.4865    2.1480   -5.2336   H         1 RES1   0.0000
   219 H130      6.4704    0.7676   -5.6299   H         1 RES1   0.0000
   220 H131      6.0096    0.4177   -3.2004   H         1 RES1   0.0000
   221 H132      7.0975    1.7578   -2.8221   H         1 RES1   0.0000
   222 H133      7.9041   -0.7907   -4.2986   H         1 RES1   0.0000
   223 H134      8.3047   -0.3930   -2.6270   H         1 RES1   0.0000
   224 H135      8.9654    0.5658   -3.9479   H         1 RES1   0.0000
   225 H136      0.6049    4.7999   -0.1457   H         1 RES1   0.0000
   226 H137      1.3008    5.8804   -1.3607   H         1 RES1   0.0000
   227 H138      1.8033    6.6047    0.9785   H         1 RES1   0.0000
   228 H139      3.2222    6.3653   -0.0045   H         1 RES1   0.0000
   229 H140      3.1734    3.9020    1.0852   H         1 RES1   0.0000
   230 H141      2.2950    4.7525    2.3536   H         1 RES1   0.0000
   231 H142      4.6057    4.7853    2.9572   H         1 RES1   0.0000
   232 H143      4.2845    6.4139    2.3928   H         1 RES1   0.0000
   233 H144      5.2548    5.7893    0.1510   H         1 RES1   0.0000
   234 H145      5.5448    4.1634    0.7653   H         1 RES1   0.0000
   235 H146      7.0653    5.0750    2.4847   H         1 RES1   0.0000
   236 H147      6.6952    6.7163    1.9580   H         1 RES1   0.0000
   237 H148      8.8265    6.0776    1.0308   H         1 RES1   0.0000
   238 H149      7.6580    6.2165   -0.2808   H         1 RES1   0.0000
   239 H150      8.5037    3.5823    1.0153   H         1 RES1   0.0000
   240 H151      9.1528    4.2195   -0.4915   H         1 RES1   0.0000
   241 H152      7.4606    3.7572   -0.4000   H         1 RES1   0.0000
   242 O9       -1.0207    1.4524   -2.2707   O.3       1 RES1   0.0000
   243 H153     -0.5728    1.0070   -3.0087   H         1 RES1   0.0000
   244 H154     -1.1342    2.3682   -2.5520   H         1 RES1   0.0000
@<TRIPOS>BOND
     1     1    20    1
     2     1    22    1
     3     1    25    1
     4     1    28    1
     5     1   140    1
     6     1   142    1
     7     1   145    1
     8     1   148    1
     9     1   242    1
    10     2     3    1
    11     2    46    1
    12     2    47    1
    13     2    48    1
    14     3     4    1
    15     3    49    1
    16     3    50    1
    17     4     5    1
    18     4    51    1
    19     4    52    1
    20     5     6    1
    21     5    53    1
    22     5    54    1
    23     6     7    1
    24     6    55    1
    25     6    56    1
    26     7     8    1
    27     7    57    1
    28     7    58    1
    29     8     9    1
    30     8    59    1
    31     8    60    1
    32     9    10    1
    33     9    61    1
    34     9    62    1
    35    10    11    1
    36    10    19    1
    37    11    12    1
    38    11    63    1
    39    11    64    1
    40    12    13    1
    41    12    65    1
    42    12    66    1
    43    13    14    1
    44    13    67    1
    45    13    68    1
    46    14    15    1
    47    14    69    1
    48    14    70    1
    49    15    16    1
    50    15    71    1
    51    15    72    1
    52    16    17    1
    53    16    73    1
    54    16    74    1
    55    17    18    1
    56    17    75    1
    57    17    76    1
    58    18    77    1
    59    18    78    1
    60    18    79    1
    61    19    20    2
    62    19    21    1
    63    21    22    1
    64    21    80    1
    65    21    81    1
    66    22    23    1
    67    23    24    1
    68    23    82    1
    69    23    83    1
    70    24    25    1
    71    24    84    1
    72    24    85    1
    73    25    26    1
    74    26    27    1
    75    26    86    1
    76    26    87    1
    77    27    28    2
    78    27    29    1
    79    29    30    1
    80    29    38    1
    81    30    31    1
    82    30    88    1
    83    30    89    1
    84    31    32    1
    85    31    90    1
    86    31    91    1
    87    32    33    1
    88    32    92    1
    89    32    93    1
    90    33    34    1
    91    33    94    1
    92    33    95    1
    93    34    35    1
    94    34    96    1
    95    34    97    1
    96    35    36    1
    97    35    98    1
    98    35    99    1
    99    36    37    1
   100    36   100    1
   101    36   101    1
   102    37   102    1
   103    37   103    1
   104    37   104    1
   105    38    39    1
   106    38   105    1
   107    38   106    1
   108    39    40    1
   109    39   107    1
   110    39   108    1
   111    40    41    1
   112    40   109    1
   113    40   110    1
   114    41    42    1
   115    41   111    1
   116    41   112    1
   117    42    43    1
   118    42   113    1
   119    42   114    1
   120    43    44    1
   121    43   115    1
   122    43   116    1
   123    44    45    1
   124    44   117    1
   125    44   118    1
   126    45   119    1
   127    45   120    1
   128    45   121    1
   129   122   123    1
   130   122   166    1
   131   122   167    1
   132   122   168    1
   133   123   124    1
   134   123   169    1
   135   123   170    1
   136   124   125    1
   137   124   171    1
   138   124   172    1
   139   125   126    1
   140   125   173    1
   141   125   174    1
   142   126   127    1
   143   126   175    1
   144   126   176    1
   145   127   128    1
   146   127   177    1
   147   127   178    1
   148   128   129    1
   149   128   179    1
   150   128   180    1
   151   129   130    1
   152   129   181    1
   153   129   182    1
   154   130   131    1
   155   130   139    1
   156   131   132    1
   157   131   183    1
   158   131   184    1
   159   132   133    1
   160   132   185    1
   161   132   186    1
   162   133   134    1
   163   133   187    1
   164   133   188    1
   165   134   135    1
   166   134   189    1
   167   134   190    1
   168   135   136    1
   169   135   191    1
   170   135   192    1
   171   136   137    1
   172   136   193    1
   173   136   194    1
   174   137   138    1
   175   137   195    1
   176   137   196    1
   177   138   197    1
   178   138   198    1
   179   138   199    1
   180   139   140    2
   181   139   141    1
   182   141   142    1
   183   141   200    1
   184   141   201    1
   185   142   143    1
   186   143   144    1
   187   143   202    1
   188   143   203    1
   189   144   145    1
   190   144   204    1
   191   144   205    1
   192   145   146    1
   193   146   147    1
   194   146   206    1
   195   146   207    1
   196   147   148    2
   197   147   149    1
   198   149   150    1
   199   149   158    1
   200   150   151    1
   201   150   208    1
   202   150   209    1
   203   151   152    1
   204   151   210    1
   205   151   211    1
   206   152   153    1
   207   152   212    1
   208   152   213    1
   209   153   154    1
   210   153   214    1
   211   153   215    1
   212   154   155    1
   213   154   216    1
   214   154   217    1
   215   155   156    1
   216   155   218    1
   217   155   219    1
   218   156   157    1
   219   156   220    1
   220   156   221    1
   221   157   222    1
   222   157   223    1
   223   157   224    1
   224   158   159    1
   225   158   225    1
   226   158   226    1
   227   159   160    1
   228   159   227    1
   229   159   228    1
   230   160   161    1
   231   160   229    1
   232   160   230    1
   233   161   162    1
   234   161   231    1
   235   161   232    1
   236   162   163    1
   237   162   233    1
   238   162   234    1
   239   163   164    1
   240   163   235    1
   241   163   236    1
   242   164   165    1
   243   164   237    1
   244   164   238    1
   245   165   239    1
   246   165   240    1
   247   165   241    1
   248   242   243    1
   249   242   244    1
@<TRIPOS>SUBSTRUCTURE
     1 RES1      244 GROUP             0 ****  ****    0  
