@<TRIPOS>MOLECULE
tricapped_trigonal_prismatic_0_nunpairedes_0_charge_3 Charge: 3 Unpaired_Electrons: 5 XTB_Unpaired_Electrons: 0 XTB_Charge: 3
   277   282     1     0     0
SMALL
NoCharges
****
Generated from Architector

@<TRIPOS>ATOM
     1 Sm1      -0.0692   -0.1057   -0.1423   Sm        1 RES1   0.0000
     2 C1       -2.6765    1.7975   -9.2513   C.3       1 RES1   0.0000
     3 C2       -1.4030    0.9520   -9.2111   C.3       1 RES1   0.0000
     4 C3       -0.1182    1.7759   -9.0333   C.3       1 RES1   0.0000
     5 C4        1.0672    0.8712   -8.6643   C.3       1 RES1   0.0000
     6 C5        2.3927    1.5979   -8.4067   C.3       1 RES1   0.0000
     7 C6        2.4287    2.5301   -7.1792   C.3       1 RES1   0.0000
     8 C7        2.8901    1.8520   -5.8771   C.3       1 RES1   0.0000
     9 C8        2.8261    2.7739   -4.6352   C.3       1 RES1   0.0000
    10 N1        3.0679    2.0696   -3.3720   N.am      1 RES1   0.0000
    11 C9        4.2759    1.2580   -3.3222   C.3       1 RES1   0.0000
    12 C10       2.1611    1.9814   -2.3417   C.2       1 RES1   0.0000
    13 O1        1.7577    0.9025   -1.9091   O.2       1 RES1   0.0000
    14 C11       1.8398    3.1968   -1.4750   C.3       1 RES1   0.0000
    15 C12       0.3389    3.3985   -1.1756   C.3       1 RES1   0.0000
    16 C13      -0.1016    3.6357    0.2716   C.3       1 RES1   0.0000
    17 O2       -0.8131    2.4842    0.7490   O.3       1 RES1   0.0000
    18 C14      -1.3653    2.7116    2.0605   C.3       1 RES1   0.0000
    19 C15      -2.4600    3.7978    2.1490   C.3       1 RES1   0.0000
    20 C16      -3.8093    3.2760    2.6544   C.3       1 RES1   0.0000
    21 C17      -3.7676    2.6568    4.0580   C.3       1 RES1   0.0000
    22 C18      -4.5801    1.3629    4.1807   C.3       1 RES1   0.0000
    23 C19      -6.0884    1.5545    4.0390   C.3       1 RES1   0.0000
    24 C20       2.5535    2.6905   -0.1932   C.2       1 RES1   0.0000
    25 O3        1.9959    1.8103    0.4822   O.2       1 RES1   0.0000
    26 N2        3.7571    3.1930    0.0718   N.am      1 RES1   0.0000
    27 C21       4.4922    4.0723   -0.8229   C.3       1 RES1   0.0000
    28 C22       4.3918    2.9792    1.3693   C.3       1 RES1   0.0000
    29 C23       4.4454    4.2774    2.1907   C.3       1 RES1   0.0000
    30 C24       3.1077    4.5866    2.8789   C.3       1 RES1   0.0000
    31 C25       2.7905    6.0816    2.9205   C.3       1 RES1   0.0000
    32 C26       2.2429    6.5866    1.5886   C.3       1 RES1   0.0000
    33 C27       1.8744    8.0659    1.6435   C.3       1 RES1   0.0000
    34 C28       1.1273    8.5566    0.4007   C.3       1 RES1   0.0000
    35 C29       1.9644    8.5390   -0.8734   C.3       1 RES1   0.0000
    36 H1       -3.5425    1.1478   -9.3651   H         1 RES1   0.0000
    37 H2       -2.6571    2.4849  -10.0935   H         1 RES1   0.0000
    38 H3       -2.8067    2.3831   -8.3388   H         1 RES1   0.0000
    39 H4       -1.3369    0.3756  -10.1379   H         1 RES1   0.0000
    40 H5       -1.4777    0.2307   -8.3881   H         1 RES1   0.0000
    41 H6       -0.2830    2.5431   -8.2695   H         1 RES1   0.0000
    42 H7        0.0999    2.3047   -9.9630   H         1 RES1   0.0000
    43 H8        1.2065    0.1622   -9.4862   H         1 RES1   0.0000
    44 H9        0.8225    0.2763   -7.7833   H         1 RES1   0.0000
    45 H10       2.6302    2.1802   -9.2955   H         1 RES1   0.0000
    46 H11       3.1705    0.8380   -8.3189   H         1 RES1   0.0000
    47 H12       1.4495    2.9937   -7.0685   H         1 RES1   0.0000
    48 H13       3.1198    3.3380   -7.4065   H         1 RES1   0.0000
    49 H14       3.9227    1.5448   -6.0424   H         1 RES1   0.0000
    50 H15       2.2928    0.9571   -5.6926   H         1 RES1   0.0000
    51 H16       1.8353    3.2092   -4.5565   H         1 RES1   0.0000
    52 H17       3.5548    3.5799   -4.7463   H         1 RES1   0.0000
    53 H18       5.1046    1.8989   -3.6318   H         1 RES1   0.0000
    54 H19       4.2768    0.3752   -3.9638   H         1 RES1   0.0000
    55 H20       4.4507    0.9478   -2.2953   H         1 RES1   0.0000
    56 H21       2.2854    4.1128   -1.8498   H         1 RES1   0.0000
    57 H22      -0.1992    2.4934   -1.4625   H         1 RES1   0.0000
    58 H23      -0.0129    4.2311   -1.7838   H         1 RES1   0.0000
    59 H24      -0.7703    4.5001    0.3162   H         1 RES1   0.0000
    60 H25       0.7388    3.8353    0.9420   H         1 RES1   0.0000
    61 H26      -0.5338    2.9698    2.7276   H         1 RES1   0.0000
    62 H27      -1.7669    1.7401    2.3589   H         1 RES1   0.0000
    63 H28      -2.6371    4.2420    1.1672   H         1 RES1   0.0000
    64 H29      -2.1304    4.5899    2.8207   H         1 RES1   0.0000
    65 H30      -4.1889    2.5455    1.9406   H         1 RES1   0.0000
    66 H31      -4.5126    4.1072    2.6610   H         1 RES1   0.0000
    67 H32      -4.1367    3.3765    4.7895   H         1 RES1   0.0000
    68 H33      -2.7339    2.4323    4.3233   H         1 RES1   0.0000
    69 H34      -4.3868    0.9349    5.1674   H         1 RES1   0.0000
    70 H35      -4.2340    0.6410    3.4298   H         1 RES1   0.0000
    71 H36      -6.4598    2.2426    4.7961   H         1 RES1   0.0000
    72 H37      -6.5945    0.5980    4.1695   H         1 RES1   0.0000
    73 H38      -6.3507    1.9502    3.0593   H         1 RES1   0.0000
    74 H39       5.5347    4.0953   -0.5130   H         1 RES1   0.0000
    75 H40       4.1070    5.0905   -0.7995   H         1 RES1   0.0000
    76 H41       4.4576    3.7063   -1.8434   H         1 RES1   0.0000
    77 H42       5.4101    2.6180    1.2043   H         1 RES1   0.0000
    78 H43       3.8304    2.2104    1.9063   H         1 RES1   0.0000
    79 H44       4.7515    5.1087    1.5513   H         1 RES1   0.0000
    80 H45       5.2231    4.1810    2.9508   H         1 RES1   0.0000
    81 H46       3.1445    4.1980    3.8970   H         1 RES1   0.0000
    82 H47       2.2949    4.0611    2.3644   H         1 RES1   0.0000
    83 H48       3.6945    6.6313    3.1840   H         1 RES1   0.0000
    84 H49       2.0540    6.2675    3.7041   H         1 RES1   0.0000
    85 H50       1.3517    6.0098    1.3264   H         1 RES1   0.0000
    86 H51       2.9820    6.4347    0.8008   H         1 RES1   0.0000
    87 H52       2.7816    8.6553    1.7854   H         1 RES1   0.0000
    88 H53       1.2348    8.2374    2.5115   H         1 RES1   0.0000
    89 H54       0.8056    9.5834    0.5841   H         1 RES1   0.0000
    90 H55       0.2254    7.9518    0.2547   H         1 RES1   0.0000
    91 H56       2.8734    9.1190   -0.7381   H         1 RES1   0.0000
    92 H57       1.3987    8.9860   -1.6868   H         1 RES1   0.0000
    93 H58       2.2355    7.5243   -1.1613   H         1 RES1   0.0000
    94 C30      -5.4133   -4.5971    7.0506   C.3       1 RES1   0.0000
    95 C31      -4.6777   -5.3601    8.1496   C.3       1 RES1   0.0000
    96 C32      -3.3526   -4.7062    8.5494   C.3       1 RES1   0.0000
    97 C33      -2.3056   -4.7480    7.4386   C.3       1 RES1   0.0000
    98 C34      -1.0146   -4.0241    7.8200   C.3       1 RES1   0.0000
    99 C35      -0.0469   -3.8926    6.6370   C.3       1 RES1   0.0000
   100 C36       0.0781   -2.4776    6.0729   C.3       1 RES1   0.0000
   101 C37      -1.2386   -1.8686    5.5513   C.3       1 RES1   0.0000
   102 N3       -0.9552   -0.9364    4.4599   N.am      1 RES1   0.0000
   103 C38      -0.5118    0.3624    4.9393   C.3       1 RES1   0.0000
   104 C39      -0.9221   -1.2044    3.1543   C.2       1 RES1   0.0000
   105 O4       -0.5507   -0.3593    2.3107   O.2       1 RES1   0.0000
   106 C40      -1.3775   -2.6029    2.7130   C.3       1 RES1   0.0000
   107 C41      -2.8063   -2.5815    2.1249   C.3       1 RES1   0.0000
   108 C42      -2.8944   -2.0798    0.6798   C.3       1 RES1   0.0000
   109 O5       -2.6088   -0.6883    0.5234   O.3       1 RES1   0.0000
   110 C43      -3.8066    0.0944    0.3898   C.3       1 RES1   0.0000
   111 C44      -4.2167    0.2070   -1.0857   C.3       1 RES1   0.0000
   112 C45      -3.7946    1.5487   -1.6813   C.3       1 RES1   0.0000
   113 C46      -4.8056    2.6519   -1.3754   C.3       1 RES1   0.0000
   114 C47      -4.3763    4.0201   -1.9003   C.3       1 RES1   0.0000
   115 C48      -4.5680    4.1428   -3.4071   C.3       1 RES1   0.0000
   116 C49      -0.3747   -3.1452    1.7014   C.2       1 RES1   0.0000
   117 O6        0.0781   -2.4102    0.8028   O.2       1 RES1   0.0000
   118 N4        0.0445   -4.4017    1.8673   N.am      1 RES1   0.0000
   119 C50      -0.6356   -5.3906    2.6878   C.3       1 RES1   0.0000
   120 C51       1.2325   -4.8272    1.1271   C.3       1 RES1   0.0000
   121 C52       1.0317   -4.8437   -0.3963   C.3       1 RES1   0.0000
   122 C53       0.9083   -6.2596   -0.9477   C.3       1 RES1   0.0000
   123 C54       0.9241   -6.2912   -2.4749   C.3       1 RES1   0.0000
   124 C55       2.3193   -6.0493   -3.0539   C.3       1 RES1   0.0000
   125 C56       2.3651   -6.1590   -4.5809   C.3       1 RES1   0.0000
   126 C57       1.8553   -4.8942   -5.2713   C.3       1 RES1   0.0000
   127 C58       1.8838   -5.0176   -6.7888   C.3       1 RES1   0.0000
   128 H59      -6.3940   -5.0354    6.8783   H         1 RES1   0.0000
   129 H60      -4.8625   -4.6302    6.1105   H         1 RES1   0.0000
   130 H61      -5.5485   -3.5556    7.3415   H         1 RES1   0.0000
   131 H62      -4.4970   -6.3872    7.8255   H         1 RES1   0.0000
   132 H63      -5.3213   -5.4039    9.0299   H         1 RES1   0.0000
   133 H64      -2.9604   -5.2152    9.4299   H         1 RES1   0.0000
   134 H65      -3.5437   -3.6680    8.8294   H         1 RES1   0.0000
   135 H66      -2.7329   -4.2922    6.5436   H         1 RES1   0.0000
   136 H67      -2.0790   -5.7902    7.2028   H         1 RES1   0.0000
   137 H68      -0.5331   -4.5805    8.6224   H         1 RES1   0.0000
   138 H69      -1.2505   -3.0338    8.2084   H         1 RES1   0.0000
   139 H70      -0.3662   -4.5641    5.8378   H         1 RES1   0.0000
   140 H71       0.9521   -4.2070    6.9386   H         1 RES1   0.0000
   141 H72       0.7814   -2.5030    5.2350   H         1 RES1   0.0000
   142 H73       0.4984   -1.8300    6.8431   H         1 RES1   0.0000
   143 H74      -1.7273   -1.3028    6.3471   H         1 RES1   0.0000
   144 H75      -1.9326   -2.6493    5.2426   H         1 RES1   0.0000
   145 H76       0.1908    0.2344    5.7622   H         1 RES1   0.0000
   146 H77      -1.3752    0.9310    5.2871   H         1 RES1   0.0000
   147 H78      -0.0188    0.9062    4.1389   H         1 RES1   0.0000
   148 H79      -1.3709   -3.2613    3.5758   H         1 RES1   0.0000
   149 H80      -3.4548   -2.0094    2.7897   H         1 RES1   0.0000
   150 H81      -3.1871   -3.6037    2.1028   H         1 RES1   0.0000
   151 H82      -3.8981   -2.2890    0.3004   H         1 RES1   0.0000
   152 H83      -2.1847   -2.6352    0.0631   H         1 RES1   0.0000
   153 H84      -3.5736    1.0800    0.8049   H         1 RES1   0.0000
   154 H85      -4.5974   -0.3541    1.0005   H         1 RES1   0.0000
   155 H86      -5.2925    0.0729   -1.2141   H         1 RES1   0.0000
   156 H87      -3.7095   -0.5984   -1.6238   H         1 RES1   0.0000
   157 H88      -3.7070    1.4365   -2.7612   H         1 RES1   0.0000
   158 H89      -2.8006    1.8003   -1.2877   H         1 RES1   0.0000
   159 H90      -4.9762    2.7053   -0.3019   H         1 RES1   0.0000
   160 H91      -5.7620    2.3914   -1.8287   H         1 RES1   0.0000
   161 H92      -3.3331    4.2044   -1.6323   H         1 RES1   0.0000
   162 H93      -4.9760    4.7927   -1.4210   H         1 RES1   0.0000
   163 H94      -4.1242    3.3012   -3.9353   H         1 RES1   0.0000
   164 H95      -4.1173    5.0592   -3.7798   H         1 RES1   0.0000
   165 H96      -5.6291    4.1640   -3.6412   H         1 RES1   0.0000
   166 H97      -1.7164   -5.3270    2.5728   H         1 RES1   0.0000
   167 H98      -0.3855   -5.2965    3.7478   H         1 RES1   0.0000
   168 H99      -0.3267   -6.3799    2.3564   H         1 RES1   0.0000
   169 H100      1.5250   -5.8192    1.4776   H         1 RES1   0.0000
   170 H101      2.0443   -4.1403    1.3847   H         1 RES1   0.0000
   171 H102      1.8882   -4.3512   -0.8537   H         1 RES1   0.0000
   172 H103      0.1426   -4.2631   -0.6515   H         1 RES1   0.0000
   173 H104     -0.0133   -6.7142   -0.5842   H         1 RES1   0.0000
   174 H105      1.7389   -6.8578   -0.5716   H         1 RES1   0.0000
   175 H106      0.2261   -5.5458   -2.8644   H         1 RES1   0.0000
   176 H107      0.5841   -7.2729   -2.8060   H         1 RES1   0.0000
   177 H108      3.0029   -6.7882   -2.6340   H         1 RES1   0.0000
   178 H109      2.6869   -5.0568   -2.7747   H         1 RES1   0.0000
   179 H110      1.7732   -7.0161   -4.9052   H         1 RES1   0.0000
   180 H111      3.3950   -6.3349   -4.9021   H         1 RES1   0.0000
   181 H112      2.4922   -4.0552   -4.9696   H         1 RES1   0.0000
   182 H113      0.8325   -4.6827   -4.9433   H         1 RES1   0.0000
   183 H114      2.8911   -5.2388   -7.1304   H         1 RES1   0.0000
   184 H115      1.5549   -4.0944   -7.2629   H         1 RES1   0.0000
   185 H116      1.2301   -5.8221   -7.1115   H         1 RES1   0.0000
   186 C59      -9.0358   -1.9832   -4.0236   C.3       1 RES1   0.0000
   187 C60      -8.1100   -1.1133   -4.8626   C.3       1 RES1   0.0000
   188 C61      -7.0213   -0.4772   -4.0006   C.3       1 RES1   0.0000
   189 C62      -6.3679    0.7260   -4.6746   C.3       1 RES1   0.0000
   190 C63      -5.5081    0.4164   -5.9024   C.3       1 RES1   0.0000
   191 C64      -4.1254   -0.1916   -5.6116   C.3       1 RES1   0.0000
   192 C65      -4.0368   -1.7113   -5.7532   C.3       1 RES1   0.0000
   193 C66      -2.6514   -2.2280   -5.3350   C.3       1 RES1   0.0000
   194 N5       -2.4691   -2.2743   -3.8872   N.am      1 RES1   0.0000
   195 C67      -3.4158   -3.1654   -3.2379   C.3       1 RES1   0.0000
   196 C68      -1.5054   -1.7337   -3.1403   C.2       1 RES1   0.0000
   197 O7       -1.5183   -1.7774   -1.8991   O.2       1 RES1   0.0000
   198 C69      -0.2706   -1.0869   -3.7958   C.3       1 RES1   0.0000
   199 C70       0.9215   -2.0298   -3.3831   C.3       1 RES1   0.0000
   200 C71       2.1357   -1.6691   -2.5311   C.3       1 RES1   0.0000
   201 O8        1.8576   -1.4754   -1.1392   O.3       1 RES1   0.0000
   202 C72       3.0737   -1.5813   -0.3857   C.3       1 RES1   0.0000
   203 C73       2.8551   -1.2778    1.0991   C.3       1 RES1   0.0000
   204 C74       4.0445   -1.7674    1.9592   C.3       1 RES1   0.0000
   205 C75       4.9414   -0.6485    2.4994   C.3       1 RES1   0.0000
   206 C76       4.5394   -0.1102    3.8759   C.3       1 RES1   0.0000
   207 C77       3.0772    0.3037    4.0098   C.3       1 RES1   0.0000
   208 C78      -0.4851    0.3924   -3.4324   C.2       1 RES1   0.0000
   209 O9       -0.7306    0.6971   -2.2416   O.2       1 RES1   0.0000
   210 N6       -0.6254    1.2997   -4.4073   N.am      1 RES1   0.0000
   211 C79      -0.5364    1.0489   -5.8238   C.3       1 RES1   0.0000
   212 C80      -1.2296    2.6160   -4.1291   C.3       1 RES1   0.0000
   213 C81      -0.8228    3.7612   -5.0682   C.3       1 RES1   0.0000
   214 C82      -0.8435    5.1415   -4.3890   C.3       1 RES1   0.0000
   215 C83       0.5543    5.6578   -4.0242   C.3       1 RES1   0.0000
   216 C84       1.4685    6.0770   -5.1797   C.3       1 RES1   0.0000
   217 C85       2.8030    6.5884   -4.6227   C.3       1 RES1   0.0000
   218 C86       3.8453    6.9482   -5.6924   C.3       1 RES1   0.0000
   219 C87       4.7570    5.8108   -6.1538   C.3       1 RES1   0.0000
   220 H117     -9.8118   -2.4317   -4.6381   H         1 RES1   0.0000
   221 H118     -9.5198   -1.3782   -3.2601   H         1 RES1   0.0000
   222 H119     -8.4751   -2.7754   -3.5293   H         1 RES1   0.0000
   223 H120     -8.6941   -0.3233   -5.3371   H         1 RES1   0.0000
   224 H121     -7.6632   -1.7120   -5.6566   H         1 RES1   0.0000
   225 H122     -6.2688   -1.2222   -3.7302   H         1 RES1   0.0000
   226 H123     -7.4875   -0.1372   -3.0723   H         1 RES1   0.0000
   227 H124     -5.7590    1.2613   -3.9446   H         1 RES1   0.0000
   228 H125     -7.1692    1.4006   -4.9854   H         1 RES1   0.0000
   229 H126     -5.3591    1.3598   -6.4316   H         1 RES1   0.0000
   230 H127     -6.0633   -0.2344   -6.5737   H         1 RES1   0.0000
   231 H128     -3.7982    0.0921   -4.6070   H         1 RES1   0.0000
   232 H129     -3.4203    0.2414   -6.3269   H         1 RES1   0.0000
   233 H130     -4.1786   -1.9678   -6.8033   H         1 RES1   0.0000
   234 H131     -4.8230   -2.2081   -5.1886   H         1 RES1   0.0000
   235 H132     -1.9050   -1.5895   -5.8001   H         1 RES1   0.0000
   236 H133     -2.5147   -3.2441   -5.7174   H         1 RES1   0.0000
   237 H134     -3.6167   -3.9951   -3.9126   H         1 RES1   0.0000
   238 H135     -4.3456   -2.6616   -2.9811   H         1 RES1   0.0000
   239 H136     -2.9807   -3.5487   -2.3206   H         1 RES1   0.0000
   240 H137     -0.3185   -1.1854   -4.8732   H         1 RES1   0.0000
   241 H138      1.3543   -2.3650   -4.3280   H         1 RES1   0.0000
   242 H139      0.4838   -2.9108   -2.9117   H         1 RES1   0.0000
   243 H140      2.6387   -0.7933   -2.9453   H         1 RES1   0.0000
   244 H141      2.8215   -2.5286   -2.6267   H         1 RES1   0.0000
   245 H142      3.8332   -0.8882   -0.7799   H         1 RES1   0.0000
   246 H143      3.4580   -2.6067   -0.5046   H         1 RES1   0.0000
   247 H144      1.9464   -1.7839    1.4287   H         1 RES1   0.0000
   248 H145      2.7122   -0.1989    1.2268   H         1 RES1   0.0000
   249 H146      4.6642   -2.4259    1.3485   H         1 RES1   0.0000
   250 H147      3.6860   -2.3624    2.8014   H         1 RES1   0.0000
   251 H148      4.9685    0.1617    1.7698   H         1 RES1   0.0000
   252 H149      5.9550   -1.0413    2.5954   H         1 RES1   0.0000
   253 H150      5.1784    0.7450    4.1039   H         1 RES1   0.0000
   254 H151      4.7560   -0.8721    4.6254   H         1 RES1   0.0000
   255 H152      2.7827    1.0023    3.2303   H         1 RES1   0.0000
   256 H153      2.9212    0.7832    4.9730   H         1 RES1   0.0000
   257 H154      2.4141   -0.5559    3.9462   H         1 RES1   0.0000
   258 H155     -0.0868    0.0936   -6.0508   H         1 RES1   0.0000
   259 H156      0.0696    1.8151   -6.2915   H         1 RES1   0.0000
   260 H157     -1.5277    1.1025   -6.2742   H         1 RES1   0.0000
   261 H158     -0.9844    2.8830   -3.1128   H         1 RES1   0.0000
   262 H159     -2.3131    2.4873   -4.1970   H         1 RES1   0.0000
   263 H160     -1.4970    3.7802   -5.9231   H         1 RES1   0.0000
   264 H161      0.1828    3.5987   -5.4475   H         1 RES1   0.0000
   265 H162     -1.4489    5.0984   -3.4808   H         1 RES1   0.0000
   266 H163     -1.3318    5.8654   -5.0405   H         1 RES1   0.0000
   267 H164      1.0858    4.8995   -3.4441   H         1 RES1   0.0000
   268 H165      0.4264    6.5293   -3.3819   H         1 RES1   0.0000
   269 H166      0.9980    6.8766   -5.7494   H         1 RES1   0.0000
   270 H167      1.6531    5.2515   -5.8683   H         1 RES1   0.0000
   271 H168      3.2187    5.8424   -3.9379   H         1 RES1   0.0000
   272 H169      2.5943    7.4853   -4.0353   H         1 RES1   0.0000
   273 H170      4.4865    7.7381   -5.2948   H         1 RES1   0.0000
   274 H171      3.3214    7.3678   -6.5515   H         1 RES1   0.0000
   275 H172      5.4069    5.4709   -5.3493   H         1 RES1   0.0000
   276 H173      5.3941    6.1814   -6.9512   H         1 RES1   0.0000
   277 H174      4.2081    4.9530   -6.5382   H         1 RES1   0.0000
@<TRIPOS>BOND
     1     1    13    1
     2     1    17    1
     3     1    25    1
     4     1   105    1
     5     1   109    1
     6     1   117    1
     7     1   197    1
     8     1   201    1
     9     1   209    1
    10     2     3    1
    11     2    36    1
    12     2    37    1
    13     2    38    1
    14     3     4    1
    15     3    39    1
    16     3    40    1
    17     4     5    1
    18     4    41    1
    19     4    42    1
    20     5     6    1
    21     5    43    1
    22     5    44    1
    23     6     7    1
    24     6    45    1
    25     6    46    1
    26     7     8    1
    27     7    47    1
    28     7    48    1
    29     8     9    1
    30     8    49    1
    31     8    50    1
    32     9    10    1
    33     9    51    1
    34     9    52    1
    35    10    11    1
    36    10    12    1
    37    11    53    1
    38    11    54    1
    39    11    55    1
    40    12    13    2
    41    12    14    1
    42    14    15    1
    43    14    24    1
    44    14    56    1
    45    15    16    1
    46    15    57    1
    47    15    58    1
    48    16    17    1
    49    16    59    1
    50    16    60    1
    51    17    18    1
    52    18    19    1
    53    18    61    1
    54    18    62    1
    55    19    20    1
    56    19    63    1
    57    19    64    1
    58    20    21    1
    59    20    65    1
    60    20    66    1
    61    21    22    1
    62    21    67    1
    63    21    68    1
    64    22    23    1
    65    22    69    1
    66    22    70    1
    67    23    71    1
    68    23    72    1
    69    23    73    1
    70    24    25    2
    71    24    26    1
    72    26    27    1
    73    26    28    1
    74    27    74    1
    75    27    75    1
    76    27    76    1
    77    28    29    1
    78    28    77    1
    79    28    78    1
    80    29    30    1
    81    29    79    1
    82    29    80    1
    83    30    31    1
    84    30    81    1
    85    30    82    1
    86    31    32    1
    87    31    83    1
    88    31    84    1
    89    32    33    1
    90    32    85    1
    91    32    86    1
    92    33    34    1
    93    33    87    1
    94    33    88    1
    95    34    35    1
    96    34    89    1
    97    34    90    1
    98    35    91    1
    99    35    92    1
   100    35    93    1
   101    94    95    1
   102    94   128    1
   103    94   129    1
   104    94   130    1
   105    95    96    1
   106    95   131    1
   107    95   132    1
   108    96    97    1
   109    96   133    1
   110    96   134    1
   111    97    98    1
   112    97   135    1
   113    97   136    1
   114    98    99    1
   115    98   137    1
   116    98   138    1
   117    99   100    1
   118    99   139    1
   119    99   140    1
   120   100   101    1
   121   100   141    1
   122   100   142    1
   123   101   102    1
   124   101   143    1
   125   101   144    1
   126   102   103    1
   127   102   104    1
   128   103   145    1
   129   103   146    1
   130   103   147    1
   131   104   105    2
   132   104   106    1
   133   106   107    1
   134   106   116    1
   135   106   148    1
   136   107   108    1
   137   107   149    1
   138   107   150    1
   139   108   109    1
   140   108   151    1
   141   108   152    1
   142   109   110    1
   143   110   111    1
   144   110   153    1
   145   110   154    1
   146   111   112    1
   147   111   155    1
   148   111   156    1
   149   112   113    1
   150   112   157    1
   151   112   158    1
   152   113   114    1
   153   113   159    1
   154   113   160    1
   155   114   115    1
   156   114   161    1
   157   114   162    1
   158   115   163    1
   159   115   164    1
   160   115   165    1
   161   116   117    2
   162   116   118    1
   163   118   119    1
   164   118   120    1
   165   119   166    1
   166   119   167    1
   167   119   168    1
   168   120   121    1
   169   120   169    1
   170   120   170    1
   171   121   122    1
   172   121   171    1
   173   121   172    1
   174   122   123    1
   175   122   173    1
   176   122   174    1
   177   123   124    1
   178   123   175    1
   179   123   176    1
   180   124   125    1
   181   124   177    1
   182   124   178    1
   183   125   126    1
   184   125   179    1
   185   125   180    1
   186   126   127    1
   187   126   181    1
   188   126   182    1
   189   127   183    1
   190   127   184    1
   191   127   185    1
   192   186   187    1
   193   186   220    1
   194   186   221    1
   195   186   222    1
   196   187   188    1
   197   187   223    1
   198   187   224    1
   199   188   189    1
   200   188   225    1
   201   188   226    1
   202   189   190    1
   203   189   227    1
   204   189   228    1
   205   190   191    1
   206   190   229    1
   207   190   230    1
   208   191   192    1
   209   191   231    1
   210   191   232    1
   211   192   193    1
   212   192   233    1
   213   192   234    1
   214   193   194    1
   215   193   235    1
   216   193   236    1
   217   194   195    1
   218   194   196    1
   219   195   237    1
   220   195   238    1
   221   195   239    1
   222   196   197    2
   223   196   198    1
   224   198   199    1
   225   198   208    1
   226   198   240    1
   227   199   200    1
   228   199   241    1
   229   199   242    1
   230   200   201    1
   231   200   243    1
   232   200   244    1
   233   201   202    1
   234   202   203    1
   235   202   245    1
   236   202   246    1
   237   203   204    1
   238   203   247    1
   239   203   248    1
   240   204   205    1
   241   204   249    1
   242   204   250    1
   243   205   206    1
   244   205   251    1
   245   205   252    1
   246   206   207    1
   247   206   253    1
   248   206   254    1
   249   207   255    1
   250   207   256    1
   251   207   257    1
   252   208   209    2
   253   208   210    1
   254   210   211    1
   255   210   212    1
   256   211   258    1
   257   211   259    1
   258   211   260    1
   259   212   213    1
   260   212   261    1
   261   212   262    1
   262   213   214    1
   263   213   263    1
   264   213   264    1
   265   214   215    1
   266   214   265    1
   267   214   266    1
   268   215   216    1
   269   215   267    1
   270   215   268    1
   271   216   217    1
   272   216   269    1
   273   216   270    1
   274   217   218    1
   275   217   271    1
   276   217   272    1
   277   218   219    1
   278   218   273    1
   279   218   274    1
   280   219   275    1
   281   219   276    1
   282   219   277    1
@<TRIPOS>SUBSTRUCTURE
     1 RES1      277 GROUP             0 ****  ****    0  
