@<TRIPOS>MOLECULE
am_c3_9H2O_c0_0_nunpairedes_0_charge_3 Charge: 3 Unpaired_Electrons: 5 XTB_Unpaired_Electrons: 0 XTB_Charge: 3
    64    69     1     0     0
SMALL
NoCharges
****
Generated from Architector

@<TRIPOS>ATOM
     1 Sm1       0.1971   -0.1499   -0.0716   Sm        1 RES1   0.0000
     2 C1       -1.6151   -2.7682   -0.5983   C.3       1 RES1   0.0000
     3 O1       -1.5302   -1.4417   -1.1434   O.3       1 RES1   0.0000
     4 C2       -1.8195   -1.4959   -2.5562   C.3       1 RES1   0.0000
     5 C3       -2.1157   -0.1292   -3.1797   C.3       1 RES1   0.0000
     6 N1       -1.1789    0.9933   -2.9773   N.am      1 RES1   0.0000
     7 C4       -1.8274    2.3034   -2.9444   C.3       1 RES1   0.0000
     8 C5       -1.8873    2.7856   -1.4712   C.3       1 RES1   0.0000
     9 O2       -2.0270    1.6699   -0.5835   O.3       1 RES1   0.0000
    10 C6       -3.4073    1.3163   -0.3589   C.3       1 RES1   0.0000
    11 C7        0.0847    0.8169   -2.6005   C.2       1 RES1   0.0000
    12 O3        0.5345   -0.3005   -2.2900   O.2       1 RES1   0.0000
    13 C8        1.0506    2.0050   -2.4130   C.3       1 RES1   0.0000
    14 O4        1.1108    2.1880   -0.9802   O.3       1 RES1   0.0000
    15 C9        2.4089    2.2835   -0.3643   C.3       1 RES1   0.0000
    16 C10       2.6052    0.9096    0.2848   C.2       1 RES1   0.0000
    17 O5        2.4300   -0.0520   -0.4857   O.2       1 RES1   0.0000
    18 N2        2.8486    0.6911    1.5799   N.am      1 RES1   0.0000
    19 C11       3.1601   -0.6816    1.9863   C.3       1 RES1   0.0000
    20 C12       2.0631   -1.4048    2.7731   C.3       1 RES1   0.0000
    21 O6        0.7820   -1.3588    2.1189   O.3       1 RES1   0.0000
    22 C13      -0.1760   -2.0339    2.9537   C.3       1 RES1   0.0000
    23 C14       2.6476    1.6771    2.6223   C.3       1 RES1   0.0000
    24 C15       1.1441    1.7945    2.9580   C.3       1 RES1   0.0000
    25 O7        0.3143    1.9406    1.7982   O.3       1 RES1   0.0000
    26 C16      -0.2592    3.2541    1.6467   C.3       1 RES1   0.0000
    27 H1       -2.6593   -3.0863   -0.5322   H         1 RES1   0.0000
    28 H2       -1.1725   -2.7458    0.3999   H         1 RES1   0.0000
    29 H3       -1.0692   -3.4864   -1.2165   H         1 RES1   0.0000
    30 H4       -2.7321   -2.0874   -2.6963   H         1 RES1   0.0000
    31 H5       -1.0091   -2.0102   -3.0824   H         1 RES1   0.0000
    32 H6       -3.0877    0.2059   -2.8109   H         1 RES1   0.0000
    33 H7       -2.2018   -0.2920   -4.2615   H         1 RES1   0.0000
    34 H8       -2.8367    2.1991   -3.3486   H         1 RES1   0.0000
    35 H9       -1.3092    3.0319   -3.5693   H         1 RES1   0.0000
    36 H10      -2.7175    3.4880   -1.3512   H         1 RES1   0.0000
    37 H11      -0.9633    3.2914   -1.1828   H         1 RES1   0.0000
    38 H12      -4.0416    1.6626   -1.1731   H         1 RES1   0.0000
    39 H13      -3.7716    1.7788    0.5637   H         1 RES1   0.0000
    40 H14      -3.4682    0.2297   -0.2979   H         1 RES1   0.0000
    41 H15       0.7434    2.9408   -2.8964   H         1 RES1   0.0000
    42 H16       2.0142    1.6825   -2.8351   H         1 RES1   0.0000
    43 H17       2.3936    3.1377    0.3171   H         1 RES1   0.0000
    44 H18       3.2042    2.4429   -1.1060   H         1 RES1   0.0000
    45 H19       4.0595   -0.6561    2.6102   H         1 RES1   0.0000
    46 H20       3.3979   -1.2424    1.0773   H         1 RES1   0.0000
    47 H21       1.9583   -0.9850    3.7801   H         1 RES1   0.0000
    48 H22       2.3770   -2.4521    2.8752   H         1 RES1   0.0000
    49 H23       0.1981   -3.0106    3.2626   H         1 RES1   0.0000
    50 H24      -1.0902   -2.1746    2.3833   H         1 RES1   0.0000
    51 H25      -0.3972   -1.4472    3.8492   H         1 RES1   0.0000
    52 H26       3.0614    2.6423    2.3267   H         1 RES1   0.0000
    53 H27       3.1782    1.3480    3.5185   H         1 RES1   0.0000
    54 H28       1.0324    2.6483    3.6272   H         1 RES1   0.0000
    55 H29       0.8043    0.8927    3.4788   H         1 RES1   0.0000
    56 H30      -0.3844    3.7423    2.6128   H         1 RES1   0.0000
    57 H31      -1.2426    3.1386    1.1924   H         1 RES1   0.0000
    58 H32       0.3602    3.8954    1.0168   H         1 RES1   0.0000
    59 O8        1.3153   -2.4175   -0.5710   O.3       1 RES1   0.0000
    60 H33       1.6797   -2.3211   -1.4686   H         1 RES1   0.0000
    61 H34       1.9080   -3.0555   -0.1409   H         1 RES1   0.0000
    62 O9       -1.6787    0.0370    1.6655   O.3       1 RES1   0.0000
    63 H35      -1.7345    0.8561    2.1787   H         1 RES1   0.0000
    64 H36      -2.5243   -0.4060    1.8236   H         1 RES1   0.0000
@<TRIPOS>BOND
     1     1     3    1
     2     1     9    1
     3     1    12    1
     4     1    14    1
     5     1    17    1
     6     1    21    1
     7     1    25    1
     8     1    59    1
     9     1    62    1
    10     2     3    1
    11     2    27    1
    12     2    28    1
    13     2    29    1
    14     3     4    1
    15     4     5    1
    16     4    30    1
    17     4    31    1
    18     5     6    1
    19     5    32    1
    20     5    33    1
    21     6     7    1
    22     6    11    1
    23     7     8    1
    24     7    34    1
    25     7    35    1
    26     8     9    1
    27     8    36    1
    28     8    37    1
    29     9    10    1
    30    10    38    1
    31    10    39    1
    32    10    40    1
    33    11    12    2
    34    11    13    1
    35    13    14    1
    36    13    41    1
    37    13    42    1
    38    14    15    1
    39    15    16    1
    40    15    43    1
    41    15    44    1
    42    16    17    2
    43    16    18    1
    44    18    19    1
    45    18    23    1
    46    19    20    1
    47    19    45    1
    48    19    46    1
    49    20    21    1
    50    20    47    1
    51    20    48    1
    52    21    22    1
    53    22    49    1
    54    22    50    1
    55    22    51    1
    56    23    24    1
    57    23    52    1
    58    23    53    1
    59    24    25    1
    60    24    54    1
    61    24    55    1
    62    25    26    1
    63    26    56    1
    64    26    57    1
    65    26    58    1
    66    59    60    1
    67    59    61    1
    68    62    63    1
    69    62    64    1
@<TRIPOS>SUBSTRUCTURE
     1 RES1       64 GROUP             0 ****  ****    0  
