@<TRIPOS>MOLECULE
cn9_YICLED_0_nunpairedes_0_charge_3 Charge: 3 Unpaired_Electrons: 5 XTB_Unpaired_Electrons: 0 XTB_Charge: 3
   214   219     1     0     0
SMALL
NoCharges
****
Generated from Architector

@<TRIPOS>ATOM
     1 Sm1      -0.1268   -0.0908    0.0467   Sm        1 RES1   0.0000
     2 C1       -0.8132   -8.3626    5.6947   C.3       1 RES1   0.0000
     3 C2       -1.4788   -8.7059    4.3660   C.3       1 RES1   0.0000
     4 C3       -2.9319   -8.2373    4.2898   C.3       1 RES1   0.0000
     5 C4       -3.1356   -6.7222    4.3479   C.3       1 RES1   0.0000
     6 C5       -2.5509   -5.9684    3.1455   C.3       1 RES1   0.0000
     7 C6       -1.1930   -5.3171    3.4177   C.3       1 RES1   0.0000
     8 C7       -0.6691   -4.6495    2.1495   C.3       1 RES1   0.0000
     9 C8        0.8242   -4.3225    2.1715   C.3       1 RES1   0.0000
    10 N1        1.1497   -3.1301    2.9557   N.am      1 RES1   0.0000
    11 C9        1.8239   -3.2653    4.2407   C.3       1 RES1   0.0000
    12 C10       0.9234   -2.9407    5.4488   C.3       1 RES1   0.0000
    13 C11       0.7919   -4.1318    6.3968   C.3       1 RES1   0.0000
    14 C12      -0.1940   -3.8517    7.5292   C.3       1 RES1   0.0000
    15 C13      -0.4222   -5.0875    8.3979   C.3       1 RES1   0.0000
    16 C14       0.8400   -5.7055    9.0014   C.3       1 RES1   0.0000
    17 C15       1.5721   -4.8283   10.0233   C.3       1 RES1   0.0000
    18 C16       2.6208   -3.8791    9.4479   C.3       1 RES1   0.0000
    19 C17       0.7732   -1.9642    2.4501   C.2       1 RES1   0.0000
    20 O1        0.2184   -1.8768    1.3377   O.2       1 RES1   0.0000
    21 C18       1.0749   -0.6887    3.2507   C.3       1 RES1   0.0000
    22 O2        0.7188    0.4880    2.5228   O.3       1 RES1   0.0000
    23 C19      -0.2495    1.3117    3.1694   C.3       1 RES1   0.0000
    24 C20      -1.6657    0.9216    2.7066   C.2       1 RES1   0.0000
    25 O3       -1.7509    0.1749    1.7174   O.2       1 RES1   0.0000
    26 N2       -2.7227    1.3822    3.3551   N.am      1 RES1   0.0000
    27 C21      -2.7223    2.2977    4.4775   C.3       1 RES1   0.0000
    28 C22      -4.0463    0.9709    2.9231   C.3       1 RES1   0.0000
    29 H1        0.1927   -8.7768    5.7374   H         1 RES1   0.0000
    30 H2       -0.7435   -7.2854    5.8390   H         1 RES1   0.0000
    31 H3       -1.3903   -8.7764    6.5187   H         1 RES1   0.0000
    32 H4       -0.9060   -8.2824    3.5366   H         1 RES1   0.0000
    33 H5       -1.4653   -9.7908    4.2418   H         1 RES1   0.0000
    34 H6       -3.3722   -8.6126    3.3630   H         1 RES1   0.0000
    35 H7       -3.4843   -8.6910    5.1147   H         1 RES1   0.0000
    36 H8       -4.2111   -6.5455    4.3791   H         1 RES1   0.0000
    37 H9       -2.7183   -6.3279    5.2734   H         1 RES1   0.0000
    38 H10      -2.4450   -6.6649    2.3110   H         1 RES1   0.0000
    39 H11      -3.2424   -5.1830    2.8300   H         1 RES1   0.0000
    40 H12      -1.3015   -4.5871    4.2211   H         1 RES1   0.0000
    41 H13      -0.4816   -6.0772    3.7400   H         1 RES1   0.0000
    42 H14      -0.8332   -5.3358    1.3165   H         1 RES1   0.0000
    43 H15      -1.2305   -3.7384    1.9304   H         1 RES1   0.0000
    44 H16       1.3843   -5.1616    2.5847   H         1 RES1   0.0000
    45 H17       1.1491   -4.1379    1.1427   H         1 RES1   0.0000
    46 H18       2.1607   -4.2983    4.3199   H         1 RES1   0.0000
    47 H19       2.7184   -2.6313    4.2318   H         1 RES1   0.0000
    48 H20       1.3237   -2.0941    6.0090   H         1 RES1   0.0000
    49 H21      -0.0714   -2.6669    5.0905   H         1 RES1   0.0000
    50 H22       0.4515   -5.0097    5.8443   H         1 RES1   0.0000
    51 H23       1.7721   -4.3548    6.8162   H         1 RES1   0.0000
    52 H24       0.1665   -3.0279    8.1451   H         1 RES1   0.0000
    53 H25      -1.1536   -3.5463    7.1004   H         1 RES1   0.0000
    54 H26      -1.1039   -4.8221    9.2070   H         1 RES1   0.0000
    55 H27      -0.9192   -5.8504    7.7930   H         1 RES1   0.0000
    56 H28       0.5271   -6.6221    9.5048   H         1 RES1   0.0000
    57 H29       1.5287   -6.0061    8.2102   H         1 RES1   0.0000
    58 H30       0.8397   -4.2559   10.5950   H         1 RES1   0.0000
    59 H31       2.0835   -5.4915   10.7228   H         1 RES1   0.0000
    60 H32       2.1764   -3.0619    8.8846   H         1 RES1   0.0000
    61 H33       3.1956   -3.4417   10.2607   H         1 RES1   0.0000
    62 H34       3.3122   -4.4156    8.8002   H         1 RES1   0.0000
    63 H35       0.5375   -0.7331    4.1992   H         1 RES1   0.0000
    64 H36       2.1554   -0.6417    3.4629   H         1 RES1   0.0000
    65 H37      -0.1441    1.2424    4.2568   H         1 RES1   0.0000
    66 H38      -0.0379    2.3398    2.8503   H         1 RES1   0.0000
    67 H39      -1.7393    2.7200    4.6608   H         1 RES1   0.0000
    68 H40      -3.4165    3.1148    4.2717   H         1 RES1   0.0000
    69 H41      -3.0687    1.7896    5.3805   H         1 RES1   0.0000
    70 H42      -3.9449    0.3422    2.0424   H         1 RES1   0.0000
    71 H43      -4.5431    0.4101    3.7137   H         1 RES1   0.0000
    72 H44      -4.6542    1.8421    2.6810   H         1 RES1   0.0000
    73 C23       1.4825   -7.3951   -3.1327   C.3       1 RES1   0.0000
    74 C24       0.1458   -6.7456   -2.7880   C.3       1 RES1   0.0000
    75 C25      -0.8933   -7.7885   -2.3801   C.3       1 RES1   0.0000
    76 C26      -2.2985   -7.2080   -2.2141   C.3       1 RES1   0.0000
    77 C27      -2.4546   -6.3153   -0.9756   C.3       1 RES1   0.0000
    78 C28      -2.3977   -4.8043   -1.2331   C.3       1 RES1   0.0000
    79 C29      -3.6773   -4.3054   -1.9024   C.3       1 RES1   0.0000
    80 C30      -3.8885   -2.7948   -1.8127   C.3       1 RES1   0.0000
    81 N3       -3.0279   -2.0133   -2.7015   N.am      1 RES1   0.0000
    82 C31      -3.3100   -2.1336   -4.1283   C.3       1 RES1   0.0000
    83 C32      -4.2733   -1.0739   -4.6781   C.3       1 RES1   0.0000
    84 C33      -4.2979   -1.0726   -6.2125   C.3       1 RES1   0.0000
    85 C34      -2.9758   -0.7427   -6.9278   C.3       1 RES1   0.0000
    86 C35      -2.8068    0.7011   -7.4131   C.3       1 RES1   0.0000
    87 C36      -2.5153    1.7296   -6.3147   C.3       1 RES1   0.0000
    88 C37      -3.7671    2.4475   -5.8130   C.3       1 RES1   0.0000
    89 C38      -3.4747    3.4009   -4.6571   C.3       1 RES1   0.0000
    90 C39      -2.1282   -1.1933   -2.1798   C.2       1 RES1   0.0000
    91 O4       -1.8724   -1.1299   -0.9612   O.2       1 RES1   0.0000
    92 C40      -1.3872   -0.2393   -3.1311   C.3       1 RES1   0.0000
    93 O5       -0.4771    0.5651   -2.3875   O.3       1 RES1   0.0000
    94 C41      -0.5162    1.9634   -2.6408   C.3       1 RES1   0.0000
    95 C42      -0.9344    2.6921   -1.3543   C.2       1 RES1   0.0000
    96 O6       -1.1106    2.0112   -0.3258   O.2       1 RES1   0.0000
    97 N4       -1.1007    4.0068   -1.3746   N.am      1 RES1   0.0000
    98 C43      -0.8645    4.8870   -2.4981   C.3       1 RES1   0.0000
    99 C44      -1.6047    4.6841   -0.1965   C.3       1 RES1   0.0000
   100 H45       2.1810   -6.6701   -3.5500   H         1 RES1   0.0000
   101 H46       1.3376   -8.1796   -3.8707   H         1 RES1   0.0000
   102 H47       1.9334   -7.8436   -2.2500   H         1 RES1   0.0000
   103 H48      -0.2318   -6.2073   -3.6623   H         1 RES1   0.0000
   104 H49       0.2865   -6.0264   -1.9748   H         1 RES1   0.0000
   105 H50      -0.5849   -8.2715   -1.4500   H         1 RES1   0.0000
   106 H51      -0.9247   -8.5604   -3.1513   H         1 RES1   0.0000
   107 H52      -2.9945   -8.0437   -2.1322   H         1 RES1   0.0000
   108 H53      -2.5660   -6.6602   -3.1196   H         1 RES1   0.0000
   109 H54      -1.6757   -6.5880   -0.2599   H         1 RES1   0.0000
   110 H55      -3.4108   -6.5291   -0.4932   H         1 RES1   0.0000
   111 H56      -1.5296   -4.5517   -1.8467   H         1 RES1   0.0000
   112 H57      -2.2839   -4.2910   -0.2747   H         1 RES1   0.0000
   113 H58      -4.5306   -4.7745   -1.4117   H         1 RES1   0.0000
   114 H59      -3.6925   -4.6226   -2.9443   H         1 RES1   0.0000
   115 H60      -3.7014   -2.4442   -0.7957   H         1 RES1   0.0000
   116 H61      -4.9189   -2.5555   -2.0875   H         1 RES1   0.0000
   117 H62      -3.7655   -3.1109   -4.2808   H         1 RES1   0.0000
   118 H63      -2.3665   -2.1248   -4.6773   H         1 RES1   0.0000
   119 H64      -4.0316   -0.0829   -4.2957   H         1 RES1   0.0000
   120 H65      -5.2801   -1.3076   -4.3291   H         1 RES1   0.0000
   121 H66      -5.0558   -0.3613   -6.5429   H         1 RES1   0.0000
   122 H67      -4.6313   -2.0595   -6.5342   H         1 RES1   0.0000
   123 H68      -2.9150   -1.3832   -7.8112   H         1 RES1   0.0000
   124 H69      -2.1166   -0.9984   -6.2996   H         1 RES1   0.0000
   125 H70      -3.6957    1.0024   -7.9690   H         1 RES1   0.0000
   126 H71      -1.9737    0.7015   -8.1193   H         1 RES1   0.0000
   127 H72      -1.8301    2.4826   -6.7094   H         1 RES1   0.0000
   128 H73      -1.9973    1.2317   -5.4896   H         1 RES1   0.0000
   129 H74      -4.5227    1.7268   -5.4991   H         1 RES1   0.0000
   130 H75      -4.1824    3.0150   -6.6451   H         1 RES1   0.0000
   131 H76      -3.2496    2.8550   -3.7376   H         1 RES1   0.0000
   132 H77      -4.3400    4.0280   -4.4626   H         1 RES1   0.0000
   133 H78      -2.6343    4.0493   -4.9002   H         1 RES1   0.0000
   134 H79      -2.1378    0.3792   -3.6341   H         1 RES1   0.0000
   135 H80      -0.8312   -0.8080   -3.8902   H         1 RES1   0.0000
   136 H81      -1.2123    2.2043   -3.4487   H         1 RES1   0.0000
   137 H82       0.4951    2.2706   -2.9391   H         1 RES1   0.0000
   138 H83      -0.3626    4.3782   -3.3126   H         1 RES1   0.0000
   139 H84      -0.2434    5.7229   -2.1718   H         1 RES1   0.0000
   140 H85      -1.8115    5.2988   -2.8562   H         1 RES1   0.0000
   141 H86      -1.7743    3.9514    0.5861   H         1 RES1   0.0000
   142 H87      -2.5436    5.1839   -0.4343   H         1 RES1   0.0000
   143 H88      -0.8961    5.4362    0.1480   H         1 RES1   0.0000
   144 C45       7.0564    5.0639   -4.0091   C.3       1 RES1   0.0000
   145 C46       5.8748    5.7585   -4.6772   C.3       1 RES1   0.0000
   146 C47       5.0964    4.8375   -5.6153   C.3       1 RES1   0.0000
   147 C48       4.4439    3.6234   -4.9521   C.3       1 RES1   0.0000
   148 C49       3.3278    3.9561   -3.9498   C.3       1 RES1   0.0000
   149 C50       3.7939    3.9922   -2.4921   C.3       1 RES1   0.0000
   150 C51       2.6186    4.1356   -1.5261   C.3       1 RES1   0.0000
   151 C52       2.9728    3.8905   -0.0586   C.3       1 RES1   0.0000
   152 N5        3.6178    2.5930    0.1639   N.am      1 RES1   0.0000
   153 C53       5.0559    2.5764    0.4478   C.3       1 RES1   0.0000
   154 C54       5.9005    1.6826   -0.4748   C.3       1 RES1   0.0000
   155 C55       7.2471    2.3013   -0.8488   C.3       1 RES1   0.0000
   156 C56       8.0205    1.3272   -1.7389   C.3       1 RES1   0.0000
   157 C57       9.3363    1.8851   -2.2768   C.3       1 RES1   0.0000
   158 C58      10.3772    2.2767   -1.2283   C.3       1 RES1   0.0000
   159 C59      10.9266    1.1188   -0.3856   C.3       1 RES1   0.0000
   160 C60      10.1811    0.8759    0.9236   C.3       1 RES1   0.0000
   161 C61       2.8625    1.5029    0.1602   C.2       1 RES1   0.0000
   162 O7        1.6351    1.5087   -0.0674   O.2       1 RES1   0.0000
   163 C62       3.5431    0.1675    0.4542   C.3       1 RES1   0.0000
   164 O8        2.5699   -0.8628    0.4996   O.3       1 RES1   0.0000
   165 C63       2.9413   -2.0518   -0.1847   C.3       1 RES1   0.0000
   166 C64       1.9825   -2.2631   -1.3533   C.2       1 RES1   0.0000
   167 O9        1.0039   -1.5046   -1.4793   O.2       1 RES1   0.0000
   168 N6        2.2478   -3.2355   -2.2160   N.am      1 RES1   0.0000
   169 C65       3.4088   -4.0923   -2.1055   C.3       1 RES1   0.0000
   170 C66       1.3484   -3.3789   -3.3458   C.3       1 RES1   0.0000
   171 H89       7.6164    5.7708   -3.4004   H         1 RES1   0.0000
   172 H90       6.7253    4.2467   -3.3700   H         1 RES1   0.0000
   173 H91       7.7265    4.6556   -4.7630   H         1 RES1   0.0000
   174 H92       5.2043    6.1747   -3.9217   H         1 RES1   0.0000
   175 H93       6.2535    6.5968   -5.2646   H         1 RES1   0.0000
   176 H94       4.3217    5.4191   -6.1194   H         1 RES1   0.0000
   177 H95       5.7799    4.4736   -6.3856   H         1 RES1   0.0000
   178 H96       4.0199    3.0139   -5.7522   H         1 RES1   0.0000
   179 H97       5.2085    3.0178   -4.4654   H         1 RES1   0.0000
   180 H98       2.8728    4.9113   -4.2151   H         1 RES1   0.0000
   181 H99       2.5490    3.1889   -4.0341   H         1 RES1   0.0000
   182 H100      4.3243    3.0631   -2.2855   H         1 RES1   0.0000
   183 H101      4.4871    4.8179   -2.3354   H         1 RES1   0.0000
   184 H102      2.2153    5.1445   -1.6054   H         1 RES1   0.0000
   185 H103      1.8311    3.4307   -1.7945   H         1 RES1   0.0000
   186 H104      3.6404    4.6713    0.3052   H         1 RES1   0.0000
   187 H105      2.0550    3.9072    0.5387   H         1 RES1   0.0000
   188 H106      5.4105    3.6024    0.3452   H         1 RES1   0.0000
   189 H107      5.2028    2.2795    1.4922   H         1 RES1   0.0000
   190 H108      6.1136    0.7309    0.0117   H         1 RES1   0.0000
   191 H109      5.3515    1.4835   -1.3993   H         1 RES1   0.0000
   192 H110      7.0907    3.2457   -1.3732   H         1 RES1   0.0000
   193 H111      7.8154    2.5020    0.0581   H         1 RES1   0.0000
   194 H112      8.2147    0.4089   -1.1812   H         1 RES1   0.0000
   195 H113      7.3924    1.0610   -2.5951   H         1 RES1   0.0000
   196 H114      9.7733    1.1265   -2.9290   H         1 RES1   0.0000
   197 H115      9.1190    2.7607   -2.8929   H         1 RES1   0.0000
   198 H116     11.2092    2.7238   -1.7754   H         1 RES1   0.0000
   199 H117      9.9785    3.0522   -0.5717   H         1 RES1   0.0000
   200 H118     10.9345    0.2034   -0.9811   H         1 RES1   0.0000
   201 H119     11.9639    1.3446   -0.1348   H         1 RES1   0.0000
   202 H120      9.1947    0.4470    0.7601   H         1 RES1   0.0000
   203 H121     10.7457    0.1856    1.5455   H         1 RES1   0.0000
   204 H122     10.0679    1.8080    1.4729   H         1 RES1   0.0000
   205 H123      4.2664   -0.0291   -0.3392   H         1 RES1   0.0000
   206 H124      4.0652    0.2225    1.4202   H         1 RES1   0.0000
   207 H125      3.9669   -2.0002   -0.5651   H         1 RES1   0.0000
   208 H126      2.8782   -2.8879    0.5228   H         1 RES1   0.0000
   209 H127      4.3329   -3.5207   -2.2192   H         1 RES1   0.0000
   210 H128      3.4290   -4.6135   -1.1465   H         1 RES1   0.0000
   211 H129      3.3809   -4.8405   -2.8942   H         1 RES1   0.0000
   212 H130      1.4035   -2.4940   -3.9790   H         1 RES1   0.0000
   213 H131      1.6169   -4.2525   -3.9303   H         1 RES1   0.0000
   214 H132      0.3243   -3.4878   -2.9856   H         1 RES1   0.0000
@<TRIPOS>BOND
     1     1    20    1
     2     1    22    1
     3     1    25    1
     4     1    91    1
     5     1    93    1
     6     1    96    1
     7     1   162    1
     8     1   164    1
     9     1   167    1
    10     2     3    1
    11     2    29    1
    12     2    30    1
    13     2    31    1
    14     3     4    1
    15     3    32    1
    16     3    33    1
    17     4     5    1
    18     4    34    1
    19     4    35    1
    20     5     6    1
    21     5    36    1
    22     5    37    1
    23     6     7    1
    24     6    38    1
    25     6    39    1
    26     7     8    1
    27     7    40    1
    28     7    41    1
    29     8     9    1
    30     8    42    1
    31     8    43    1
    32     9    10    1
    33     9    44    1
    34     9    45    1
    35    10    11    1
    36    10    19    1
    37    11    12    1
    38    11    46    1
    39    11    47    1
    40    12    13    1
    41    12    48    1
    42    12    49    1
    43    13    14    1
    44    13    50    1
    45    13    51    1
    46    14    15    1
    47    14    52    1
    48    14    53    1
    49    15    16    1
    50    15    54    1
    51    15    55    1
    52    16    17    1
    53    16    56    1
    54    16    57    1
    55    17    18    1
    56    17    58    1
    57    17    59    1
    58    18    60    1
    59    18    61    1
    60    18    62    1
    61    19    20    2
    62    19    21    1
    63    21    22    1
    64    21    63    1
    65    21    64    1
    66    22    23    1
    67    23    24    1
    68    23    65    1
    69    23    66    1
    70    24    25    2
    71    24    26    1
    72    26    27    1
    73    26    28    1
    74    27    67    1
    75    27    68    1
    76    27    69    1
    77    28    70    1
    78    28    71    1
    79    28    72    1
    80    73    74    1
    81    73   100    1
    82    73   101    1
    83    73   102    1
    84    74    75    1
    85    74   103    1
    86    74   104    1
    87    75    76    1
    88    75   105    1
    89    75   106    1
    90    76    77    1
    91    76   107    1
    92    76   108    1
    93    77    78    1
    94    77   109    1
    95    77   110    1
    96    78    79    1
    97    78   111    1
    98    78   112    1
    99    79    80    1
   100    79   113    1
   101    79   114    1
   102    80    81    1
   103    80   115    1
   104    80   116    1
   105    81    82    1
   106    81    90    1
   107    82    83    1
   108    82   117    1
   109    82   118    1
   110    83    84    1
   111    83   119    1
   112    83   120    1
   113    84    85    1
   114    84   121    1
   115    84   122    1
   116    85    86    1
   117    85   123    1
   118    85   124    1
   119    86    87    1
   120    86   125    1
   121    86   126    1
   122    87    88    1
   123    87   127    1
   124    87   128    1
   125    88    89    1
   126    88   129    1
   127    88   130    1
   128    89   131    1
   129    89   132    1
   130    89   133    1
   131    90    91    2
   132    90    92    1
   133    92    93    1
   134    92   134    1
   135    92   135    1
   136    93    94    1
   137    94    95    1
   138    94   136    1
   139    94   137    1
   140    95    96    2
   141    95    97    1
   142    97    98    1
   143    97    99    1
   144    98   138    1
   145    98   139    1
   146    98   140    1
   147    99   141    1
   148    99   142    1
   149    99   143    1
   150   144   145    1
   151   144   171    1
   152   144   172    1
   153   144   173    1
   154   145   146    1
   155   145   174    1
   156   145   175    1
   157   146   147    1
   158   146   176    1
   159   146   177    1
   160   147   148    1
   161   147   178    1
   162   147   179    1
   163   148   149    1
   164   148   180    1
   165   148   181    1
   166   149   150    1
   167   149   182    1
   168   149   183    1
   169   150   151    1
   170   150   184    1
   171   150   185    1
   172   151   152    1
   173   151   186    1
   174   151   187    1
   175   152   153    1
   176   152   161    1
   177   153   154    1
   178   153   188    1
   179   153   189    1
   180   154   155    1
   181   154   190    1
   182   154   191    1
   183   155   156    1
   184   155   192    1
   185   155   193    1
   186   156   157    1
   187   156   194    1
   188   156   195    1
   189   157   158    1
   190   157   196    1
   191   157   197    1
   192   158   159    1
   193   158   198    1
   194   158   199    1
   195   159   160    1
   196   159   200    1
   197   159   201    1
   198   160   202    1
   199   160   203    1
   200   160   204    1
   201   161   162    2
   202   161   163    1
   203   163   164    1
   204   163   205    1
   205   163   206    1
   206   164   165    1
   207   165   166    1
   208   165   207    1
   209   165   208    1
   210   166   167    2
   211   166   168    1
   212   168   169    1
   213   168   170    1
   214   169   209    1
   215   169   210    1
   216   169   211    1
   217   170   212    1
   218   170   213    1
   219   170   214    1
@<TRIPOS>SUBSTRUCTURE
     1 RES1      214 GROUP             0 ****  ****    0  
