@<TRIPOS>MOLECULE
am_c3_9H2O_c0_0_nunpairedes_0_charge_3 Charge: 3 Unpaired_Electrons: 5 XTB_Unpaired_Electrons: 0 XTB_Charge: 3
   216   223     1     0     0
SMALL
NoCharges
****
Generated from Architector

@<TRIPOS>ATOM
     1 Sm1       0.0271   -0.1566   -0.0460   Sm        1 RES1   0.0000
     2 C1        2.1460   -3.3054    3.0231   C.3       1 RES1   0.0000
     3 C2        2.7965   -4.6084    2.5691   C.3       1 RES1   0.0000
     4 C3        2.0366   -5.2983    1.4361   C.3       1 RES1   0.0000
     5 C4        0.6078   -5.6791    1.8158   C.3       1 RES1   0.0000
     6 C5       -0.0512   -6.5496    0.7492   C.3       1 RES1   0.0000
     7 C6       -1.5523   -6.7382    0.9887   C.3       1 RES1   0.0000
     8 C7       -2.3497   -5.5171    0.5264   C.3       1 RES1   0.0000
     9 C8       -3.7898   -5.4913    1.0349   C.3       1 RES1   0.0000
    10 C9       -3.9020   -5.1433    2.5245   C.3       1 RES1   0.0000
    11 C10      -4.4935   -3.7541    2.7834   C.3       1 RES1   0.0000
    12 C11      -3.5477   -2.5950    2.4594   C.3       1 RES1   0.0000
    13 C12      -2.2688   -2.6395    3.3084   C.3       1 RES1   0.0000
    14 N1       -1.7583   -1.3001    3.6094   N.am      1 RES1   0.0000
    15 C13      -2.2566   -0.7131    4.8381   C.3       1 RES1   0.0000
    16 C14      -0.9119   -0.7606    2.7559   C.2       1 RES1   0.0000
    17 O1       -0.5689   -1.3555    1.7077   O.2       1 RES1   0.0000
    18 C15      -0.1800    0.5547    3.0712   C.3       1 RES1   0.0000
    19 C16       1.1603    0.0909    3.6870   C.3       1 RES1   0.0000
    20 C17       2.3196    0.7073    2.9125   C.3       1 RES1   0.0000
    21 O2        2.4067    0.0862    1.6283   O.3       1 RES1   0.0000
    22 C18       3.6945    0.2748    1.0548   C.3       1 RES1   0.0000
    23 C19       2.0506    2.2082    2.7649   C.3       1 RES1   0.0000
    24 C20       0.8286    2.3949    1.8454   C.3       1 RES1   0.0000
    25 C21       1.2864    2.6314    0.3806   C.2       1 RES1   0.0000
    26 O3        1.3093    1.6473   -0.3846   O.2       1 RES1   0.0000
    27 N2        1.6221    3.8478   -0.0339   N.am      1 RES1   0.0000
    28 C22       2.0226    4.9455    0.8241   C.3       1 RES1   0.0000
    29 C23       1.8582    4.0835   -1.4658   C.3       1 RES1   0.0000
    30 C24       1.3623    5.4725   -1.9206   C.3       1 RES1   0.0000
    31 C25       0.7063    5.5440   -3.3118   C.3       1 RES1   0.0000
    32 C26       1.6475    5.7431   -4.5049   C.3       1 RES1   0.0000
    33 C27       2.3918    4.5046   -4.9979   C.3       1 RES1   0.0000
    34 C28       1.4914    3.5118   -5.7294   C.3       1 RES1   0.0000
    35 C29       2.2634    2.4767   -6.5540   C.3       1 RES1   0.0000
    36 C30       3.1534    1.5545   -5.7186   C.3       1 RES1   0.0000
    37 C31       3.8360    0.4504   -6.5394   C.3       1 RES1   0.0000
    38 C32       3.0965   -0.8868   -6.6472   C.3       1 RES1   0.0000
    39 C33       1.7668   -0.8864   -7.3984   C.3       1 RES1   0.0000
    40 C34       1.2749   -2.3160   -7.6124   C.3       1 RES1   0.0000
    41 O4       -0.0104    1.2233    1.8144   O.3       1 RES1   0.0000
    42 H1        2.8175   -2.7718    3.6933   H         1 RES1   0.0000
    43 H2        1.2279   -3.5199    3.5623   H         1 RES1   0.0000
    44 H3        1.9108   -2.6723    2.1635   H         1 RES1   0.0000
    45 H4        2.8563   -5.2912    3.4166   H         1 RES1   0.0000
    46 H5        3.8164   -4.4068    2.2382   H         1 RES1   0.0000
    47 H6        2.5845   -6.1976    1.1489   H         1 RES1   0.0000
    48 H7        1.9999   -4.6395    0.5609   H         1 RES1   0.0000
    49 H8        0.0260   -4.7661    1.9562   H         1 RES1   0.0000
    50 H9        0.6091   -6.2216    2.7617   H         1 RES1   0.0000
    51 H10       0.4369   -7.5219    0.7381   H         1 RES1   0.0000
    52 H11       0.0977   -6.1005   -0.2361   H         1 RES1   0.0000
    53 H12      -1.7334   -6.9181    2.0491   H         1 RES1   0.0000
    54 H13      -1.9039   -7.6177    0.4479   H         1 RES1   0.0000
    55 H14      -2.3590   -5.5079   -0.5663   H         1 RES1   0.0000
    56 H15      -1.8361   -4.6159    0.8648   H         1 RES1   0.0000
    57 H16      -4.2364   -6.4648    0.8456   H         1 RES1   0.0000
    58 H17      -4.3643   -4.7665    0.4518   H         1 RES1   0.0000
    59 H18      -2.9252   -5.2213    2.9988   H         1 RES1   0.0000
    60 H19      -4.5503   -5.8655    3.0157   H         1 RES1   0.0000
    61 H20      -4.7870   -3.6766    3.8331   H         1 RES1   0.0000
    62 H21      -5.3987   -3.6412    2.1832   H         1 RES1   0.0000
    63 H22      -4.0701   -1.6539    2.6478   H         1 RES1   0.0000
    64 H23      -3.2836   -2.6163    1.4033   H         1 RES1   0.0000
    65 H24      -1.4759   -3.1770    2.7817   H         1 RES1   0.0000
    66 H25      -2.4676   -3.1370    4.2573   H         1 RES1   0.0000
    67 H26      -3.3313   -0.8836    4.9049   H         1 RES1   0.0000
    68 H27      -2.0808    0.3555    4.8847   H         1 RES1   0.0000
    69 H28      -1.7931   -1.1792    5.7091   H         1 RES1   0.0000
    70 H29      -0.7212    1.2259    3.7483   H         1 RES1   0.0000
    71 H30       1.2466   -0.9956    3.6248   H         1 RES1   0.0000
    72 H31       1.2139    0.3834    4.7337   H         1 RES1   0.0000
    73 H32       3.2509    0.5368    3.4680   H         1 RES1   0.0000
    74 H33       4.4608   -0.2336    1.6501   H         1 RES1   0.0000
    75 H34       3.9631    1.3311    0.9781   H         1 RES1   0.0000
    76 H35       3.6499   -0.1460    0.0557   H         1 RES1   0.0000
    77 H36       2.9158    2.7055    2.3328   H         1 RES1   0.0000
    78 H37       1.8627    2.6375    3.7501   H         1 RES1   0.0000
    79 H38       0.2021    3.2313    2.1861   H         1 RES1   0.0000
    80 H39       2.1456    4.6239    1.8453   H         1 RES1   0.0000
    81 H40       1.2942    5.7558    0.8003   H         1 RES1   0.0000
    82 H41       2.9735    5.3267    0.4561   H         1 RES1   0.0000
    83 H42       1.3449    3.2862   -2.0090   H         1 RES1   0.0000
    84 H43       2.9324    3.9917   -1.6614   H         1 RES1   0.0000
    85 H44       2.1839    6.1858   -1.8845   H         1 RES1   0.0000
    86 H45       0.6149    5.8251   -1.2130   H         1 RES1   0.0000
    87 H46       0.0771    4.6674   -3.4724   H         1 RES1   0.0000
    88 H47       0.0474    6.4175   -3.2912   H         1 RES1   0.0000
    89 H48       2.3663    6.5183   -4.2420   H         1 RES1   0.0000
    90 H49       1.0582    6.1332   -5.3372   H         1 RES1   0.0000
    91 H50       2.8880    4.0148   -4.1635   H         1 RES1   0.0000
    92 H51       3.1590    4.8395   -5.6947   H         1 RES1   0.0000
    93 H52       0.8359    4.0611   -6.4086   H         1 RES1   0.0000
    94 H53       0.8560    2.9853   -5.0080   H         1 RES1   0.0000
    95 H54       2.8863    3.0018   -7.2789   H         1 RES1   0.0000
    96 H55       1.5471    1.8779   -7.1183   H         1 RES1   0.0000
    97 H56       2.5559    1.1147   -4.9126   H         1 RES1   0.0000
    98 H57       3.9256    2.1627   -5.2468   H         1 RES1   0.0000
    99 H58       4.8042    0.2367   -6.0814   H         1 RES1   0.0000
   100 H59       4.0352    0.8297   -7.5410   H         1 RES1   0.0000
   101 H60       2.9258   -1.2965   -5.6464   H         1 RES1   0.0000
   102 H61       3.7641   -1.5783   -7.1635   H         1 RES1   0.0000
   103 H62       1.9013   -0.4101   -8.3702   H         1 RES1   0.0000
   104 H63       1.0123   -0.3216   -6.8407   H         1 RES1   0.0000
   105 H64       2.0054   -2.8735   -8.1902   H         1 RES1   0.0000
   106 H65       0.3338   -2.3267   -8.1534   H         1 RES1   0.0000
   107 H66       1.1342   -2.8337   -6.6628   H         1 RES1   0.0000
   108 C35       5.4186    8.2468   -2.3628   C.3       1 RES1   0.0000
   109 C36       6.0245    6.9568   -2.9058   C.3       1 RES1   0.0000
   110 C37       5.1925    5.7372   -2.5178   C.3       1 RES1   0.0000
   111 C38       5.5870    4.4548   -3.2482   C.3       1 RES1   0.0000
   112 C39       6.9200    3.8590   -2.8075   C.3       1 RES1   0.0000
   113 C40       7.2543    2.6138   -3.6294   C.3       1 RES1   0.0000
   114 C41       8.3980    1.7893   -3.0357   C.3       1 RES1   0.0000
   115 C42       8.0493    0.9449   -1.8023   C.3       1 RES1   0.0000
   116 C43       7.5393   -0.4672   -2.1124   C.3       1 RES1   0.0000
   117 C44       6.0572   -0.5146   -2.4877   C.3       1 RES1   0.0000
   118 C45       5.6313   -1.9195   -2.9128   C.3       1 RES1   0.0000
   119 C46       4.1179   -2.0558   -3.1329   C.3       1 RES1   0.0000
   120 N3        3.3061   -1.9617   -1.9266   N.am      1 RES1   0.0000
   121 C47       3.8562   -2.6414   -0.7596   C.3       1 RES1   0.0000
   122 C48       2.0835   -1.4627   -1.8386   C.2       1 RES1   0.0000
   123 O5        1.4346   -1.5625   -0.7651   O.2       1 RES1   0.0000
   124 C49       1.3135   -0.8182   -3.0195   C.3       1 RES1   0.0000
   125 C50       0.4051   -1.9098   -3.6319   C.3       1 RES1   0.0000
   126 C51      -1.0566   -1.5934   -3.2943   C.3       1 RES1   0.0000
   127 O6       -1.2846   -1.5662   -1.8764   O.3       1 RES1   0.0000
   128 C52      -1.4455   -2.8667   -1.3107   C.3       1 RES1   0.0000
   129 C53      -1.4226   -0.2139   -3.8497   C.3       1 RES1   0.0000
   130 C54      -0.4857    0.8420   -3.2161   C.3       1 RES1   0.0000
   131 C55      -1.2871    1.7209   -2.2259   C.2       1 RES1   0.0000
   132 O7       -1.2202    1.4420   -1.0117   O.2       1 RES1   0.0000
   133 N4       -2.0527    2.7207   -2.6452   N.am      1 RES1   0.0000
   134 C56      -2.2096    3.1623   -4.0190   C.3       1 RES1   0.0000
   135 C57      -2.7977    3.4917   -1.6354   C.3       1 RES1   0.0000
   136 C58      -2.0094    4.7491   -1.2468   C.3       1 RES1   0.0000
   137 C59      -2.4990    5.5263   -0.0134   C.3       1 RES1   0.0000
   138 C60      -1.8491    5.1094    1.3277   C.3       1 RES1   0.0000
   139 C61      -1.4251    6.3285    2.1675   C.3       1 RES1   0.0000
   140 C62      -1.2255    6.0701    3.6705   C.3       1 RES1   0.0000
   141 C63       0.1320    5.5028    4.1203   C.3       1 RES1   0.0000
   142 C64       1.1904    6.5843    4.4009   C.3       1 RES1   0.0000
   143 C65       2.6645    6.1445    4.2927   C.3       1 RES1   0.0000
   144 C66       3.0649    4.8237    4.9828   C.3       1 RES1   0.0000
   145 C67       3.9584    4.9977    6.2176   C.3       1 RES1   0.0000
   146 C68       3.2430    5.5837    7.4256   C.3       1 RES1   0.0000
   147 O8        0.5364    0.2288   -2.4187   O.3       1 RES1   0.0000
   148 H67       6.0360    9.0977   -2.6345   H         1 RES1   0.0000
   149 H68       5.3487    8.2117   -1.2775   H         1 RES1   0.0000
   150 H69       4.4196    8.4109   -2.7643   H         1 RES1   0.0000
   151 H70       7.0375    6.8521   -2.5219   H         1 RES1   0.0000
   152 H71       6.0862    7.0215   -3.9924   H         1 RES1   0.0000
   153 H72       4.1526    5.9582   -2.7641   H         1 RES1   0.0000
   154 H73       5.2604    5.5891   -1.4365   H         1 RES1   0.0000
   155 H74       5.6225    4.6610   -4.3188   H         1 RES1   0.0000
   156 H75       4.8094    3.6982   -3.0870   H         1 RES1   0.0000
   157 H76       6.8681    3.6058   -1.7453   H         1 RES1   0.0000
   158 H77       7.7129    4.5943   -2.9337   H         1 RES1   0.0000
   159 H78       7.5372    2.9295   -4.6334   H         1 RES1   0.0000
   160 H79       6.3560    2.0044   -3.7317   H         1 RES1   0.0000
   161 H80       9.1976    2.4815   -2.7722   H         1 RES1   0.0000
   162 H81       8.7963    1.1237   -3.8021   H         1 RES1   0.0000
   163 H82       7.3159    1.4617   -1.1836   H         1 RES1   0.0000
   164 H83       8.9544    0.8438   -1.2041   H         1 RES1   0.0000
   165 H84       7.7009   -1.1011   -1.2363   H         1 RES1   0.0000
   166 H85       8.1268   -0.8911   -2.9272   H         1 RES1   0.0000
   167 H86       5.8799    0.1601   -3.3227   H         1 RES1   0.0000
   168 H87       5.4569   -0.1668   -1.6402   H         1 RES1   0.0000
   169 H88       6.0074   -2.6638   -2.2104   H         1 RES1   0.0000
   170 H89       6.0960   -2.1415   -3.8751   H         1 RES1   0.0000
   171 H90       3.9224   -3.0293   -3.5963   H         1 RES1   0.0000
   172 H91       3.8116   -1.2711   -3.8215   H         1 RES1   0.0000
   173 H92       4.0861   -3.6769   -1.0061   H         1 RES1   0.0000
   174 H93       3.1197   -2.6193    0.0409   H         1 RES1   0.0000
   175 H94       4.7656   -2.1387   -0.4406   H         1 RES1   0.0000
   176 H95       1.9697   -0.3763   -3.7820   H         1 RES1   0.0000
   177 H96       0.6685   -2.8928   -3.2393   H         1 RES1   0.0000
   178 H97       0.5274   -1.9547   -4.7113   H         1 RES1   0.0000
   179 H98      -1.7108   -2.3404   -3.7608   H         1 RES1   0.0000
   180 H99      -2.2410   -3.4196   -1.8200   H         1 RES1   0.0000
   181 H100     -1.7064   -2.7049   -0.2677   H         1 RES1   0.0000
   182 H101     -0.5244   -3.4538   -1.3568   H         1 RES1   0.0000
   183 H102     -2.4652    0.0020   -3.6103   H         1 RES1   0.0000
   184 H103     -1.3168   -0.2246   -4.9347   H         1 RES1   0.0000
   185 H104     -0.0050    1.4533   -3.9930   H         1 RES1   0.0000
   186 H105     -2.9604    2.5726   -4.5391   H         1 RES1   0.0000
   187 H106     -1.2758    3.0980   -4.5712   H         1 RES1   0.0000
   188 H107     -2.5314    4.2003   -4.0142   H         1 RES1   0.0000
   189 H108     -2.9368    2.8540   -0.7610   H         1 RES1   0.0000
   190 H109     -3.7728    3.7373   -2.0570   H         1 RES1   0.0000
   191 H110     -2.0061    5.4258   -2.1033   H         1 RES1   0.0000
   192 H111     -0.9886    4.4237   -1.0716   H         1 RES1   0.0000
   193 H112     -3.5828    5.4734    0.0651   H         1 RES1   0.0000
   194 H113     -2.2591    6.5743   -0.1948   H         1 RES1   0.0000
   195 H114     -0.9926    4.4711    1.1055   H         1 RES1   0.0000
   196 H115     -2.5612    4.5197    1.9071   H         1 RES1   0.0000
   197 H116     -2.2263    7.0621    2.0842   H         1 RES1   0.0000
   198 H117     -0.5246    6.7803    1.7522   H         1 RES1   0.0000
   199 H118     -2.0146    5.3892    3.9915   H         1 RES1   0.0000
   200 H119     -1.3736    7.0130    4.1978   H         1 RES1   0.0000
   201 H120      0.4944    4.8021    3.3666   H         1 RES1   0.0000
   202 H121     -0.0299    4.9493    5.0499   H         1 RES1   0.0000
   203 H122      1.0052    6.9876    5.3986   H         1 RES1   0.0000
   204 H123      1.0612    7.4091    3.6974   H         1 RES1   0.0000
   205 H124      3.2764    6.9485    4.6994   H         1 RES1   0.0000
   206 H125      2.9223    6.0829    3.2337   H         1 RES1   0.0000
   207 H126      3.6229    4.2067    4.2680   H         1 RES1   0.0000
   208 H127      2.1735    4.2633    5.2717   H         1 RES1   0.0000
   209 H128      4.8010    5.6341    5.9463   H         1 RES1   0.0000
   210 H129      4.3622    4.0192    6.4902   H         1 RES1   0.0000
   211 H130      2.8210    6.5565    7.1948   H         1 RES1   0.0000
   212 H131      3.9441    5.7141    8.2448   H         1 RES1   0.0000
   213 H132      2.4511    4.9184    7.7631   H         1 RES1   0.0000
   214 O9       -2.6196   -0.2731    0.3944   O.3       1 RES1   0.0000
   215 H133     -3.2186   -0.8367   -0.1192   H         1 RES1   0.0000
   216 H134     -3.1563    0.4574    0.7215   H         1 RES1   0.0000
@<TRIPOS>BOND
     1     1    17    1
     2     1    21    1
     3     1    26    1
     4     1    41    1
     5     1   123    1
     6     1   127    1
     7     1   132    1
     8     1   147    1
     9     1   214    1
    10     2     3    1
    11     2    42    1
    12     2    43    1
    13     2    44    1
    14     3     4    1
    15     3    45    1
    16     3    46    1
    17     4     5    1
    18     4    47    1
    19     4    48    1
    20     5     6    1
    21     5    49    1
    22     5    50    1
    23     6     7    1
    24     6    51    1
    25     6    52    1
    26     7     8    1
    27     7    53    1
    28     7    54    1
    29     8     9    1
    30     8    55    1
    31     8    56    1
    32     9    10    1
    33     9    57    1
    34     9    58    1
    35    10    11    1
    36    10    59    1
    37    10    60    1
    38    11    12    1
    39    11    61    1
    40    11    62    1
    41    12    13    1
    42    12    63    1
    43    12    64    1
    44    13    14    1
    45    13    65    1
    46    13    66    1
    47    14    15    1
    48    14    16    1
    49    15    67    1
    50    15    68    1
    51    15    69    1
    52    16    17    2
    53    16    18    1
    54    18    19    1
    55    18    41    1
    56    18    70    1
    57    19    20    1
    58    19    71    1
    59    19    72    1
    60    20    21    1
    61    20    23    1
    62    20    73    1
    63    21    22    1
    64    22    74    1
    65    22    75    1
    66    22    76    1
    67    23    24    1
    68    23    77    1
    69    23    78    1
    70    24    25    1
    71    24    41    1
    72    24    79    1
    73    25    26    2
    74    25    27    1
    75    27    28    1
    76    27    29    1
    77    28    80    1
    78    28    81    1
    79    28    82    1
    80    29    30    1
    81    29    83    1
    82    29    84    1
    83    30    31    1
    84    30    85    1
    85    30    86    1
    86    31    32    1
    87    31    87    1
    88    31    88    1
    89    32    33    1
    90    32    89    1
    91    32    90    1
    92    33    34    1
    93    33    91    1
    94    33    92    1
    95    34    35    1
    96    34    93    1
    97    34    94    1
    98    35    36    1
    99    35    95    1
   100    35    96    1
   101    36    37    1
   102    36    97    1
   103    36    98    1
   104    37    38    1
   105    37    99    1
   106    37   100    1
   107    38    39    1
   108    38   101    1
   109    38   102    1
   110    39    40    1
   111    39   103    1
   112    39   104    1
   113    40   105    1
   114    40   106    1
   115    40   107    1
   116   108   109    1
   117   108   148    1
   118   108   149    1
   119   108   150    1
   120   109   110    1
   121   109   151    1
   122   109   152    1
   123   110   111    1
   124   110   153    1
   125   110   154    1
   126   111   112    1
   127   111   155    1
   128   111   156    1
   129   112   113    1
   130   112   157    1
   131   112   158    1
   132   113   114    1
   133   113   159    1
   134   113   160    1
   135   114   115    1
   136   114   161    1
   137   114   162    1
   138   115   116    1
   139   115   163    1
   140   115   164    1
   141   116   117    1
   142   116   165    1
   143   116   166    1
   144   117   118    1
   145   117   167    1
   146   117   168    1
   147   118   119    1
   148   118   169    1
   149   118   170    1
   150   119   120    1
   151   119   171    1
   152   119   172    1
   153   120   121    1
   154   120   122    1
   155   121   173    1
   156   121   174    1
   157   121   175    1
   158   122   123    2
   159   122   124    1
   160   124   125    1
   161   124   147    1
   162   124   176    1
   163   125   126    1
   164   125   177    1
   165   125   178    1
   166   126   127    1
   167   126   129    1
   168   126   179    1
   169   127   128    1
   170   128   180    1
   171   128   181    1
   172   128   182    1
   173   129   130    1
   174   129   183    1
   175   129   184    1
   176   130   131    1
   177   130   147    1
   178   130   185    1
   179   131   132    2
   180   131   133    1
   181   133   134    1
   182   133   135    1
   183   134   186    1
   184   134   187    1
   185   134   188    1
   186   135   136    1
   187   135   189    1
   188   135   190    1
   189   136   137    1
   190   136   191    1
   191   136   192    1
   192   137   138    1
   193   137   193    1
   194   137   194    1
   195   138   139    1
   196   138   195    1
   197   138   196    1
   198   139   140    1
   199   139   197    1
   200   139   198    1
   201   140   141    1
   202   140   199    1
   203   140   200    1
   204   141   142    1
   205   141   201    1
   206   141   202    1
   207   142   143    1
   208   142   203    1
   209   142   204    1
   210   143   144    1
   211   143   205    1
   212   143   206    1
   213   144   145    1
   214   144   207    1
   215   144   208    1
   216   145   146    1
   217   145   209    1
   218   145   210    1
   219   146   211    1
   220   146   212    1
   221   146   213    1
   222   214   215    1
   223   214   216    1
@<TRIPOS>SUBSTRUCTURE
     1 RES1      216 GROUP             0 ****  ****    0  
