@<TRIPOS>MOLECULE
ICIGOT_geomtry_0_nunpairedes_0_charge_1 Charge: 1 Unpaired_Electrons: 0 XTB_Unpaired_Electrons: 0 XTB_Charge: 1
   119   132     1     0     0
SMALL
NoCharges
****
Generated from Architector

@<TRIPOS>ATOM
     1 Lu1      -0.4362    0.0421   -0.0472   Lu        1 RES1   0.0000
     2 C1       -3.9076    1.1058   -5.2301   C.3       1 RES1   0.0000
     3 C2       -3.1590    0.6088   -6.4607   C.3       1 RES1   0.0000
     4 C3       -2.1595   -0.5060   -6.1554   C.3       1 RES1   0.0000
     5 C4       -1.0154   -0.0362   -5.2651   C.3       1 RES1   0.0000
     6 C5        0.0707   -1.0883   -5.0594   C.3       1 RES1   0.0000
     7 C6       -0.4728   -2.3594   -4.3845   C.3       1 RES1   0.0000
     8 N1        0.4730   -2.8456   -3.3891   N.ar      1 RES1   0.0000
     9 C7        1.2820   -3.9472   -3.5574   C.ar      1 RES1   0.0000
    10 C8        1.1302   -4.7028   -4.8241   C.ar      1 RES1   0.0000
    11 C9        1.9650   -4.4082   -5.8951   C.ar      1 RES1   0.0000
    12 C10       1.8289   -5.0937   -7.0895   C.ar      1 RES1   0.0000
    13 C11       0.8663   -6.0798   -7.2197   C.ar      1 RES1   0.0000
    14 C12       0.0359   -6.3771   -6.1520   C.ar      1 RES1   0.0000
    15 C13       0.1623   -5.6946   -4.9544   C.ar      1 RES1   0.0000
    16 C14       2.2200   -4.3329   -2.6340   C.ar      1 RES1   0.0000
    17 C15       3.0754   -5.5262   -2.8808   C.ar      1 RES1   0.0000
    18 C16       2.5943   -6.8088   -2.6413   C.ar      1 RES1   0.0000
    19 C17       3.4071   -7.9114   -2.8478   C.ar      1 RES1   0.0000
    20 C18       4.7045   -7.7469   -3.3008   C.ar      1 RES1   0.0000
    21 C19       5.1838   -6.4731   -3.5561   C.ar      1 RES1   0.0000
    22 C20       4.3784   -5.3672   -3.3440   C.ar      1 RES1   0.0000
    23 C21       2.3720   -3.5796   -1.4257   C.ar      1 RES1   0.0000
    24 C22       3.2974   -3.8196   -0.3952   C.ar      1 RES1   0.0000
    25 C23       3.3256   -2.9737    0.7122   C.ar      1 RES1   0.0000
    26 C24       4.2400   -3.0724    1.8154   C.ar      1 RES1   0.0000
    27 C25       4.2081   -2.2091    2.8577   C.ar      1 RES1   0.0000
    28 C26       3.2687   -1.1247    2.9218   C.ar      1 RES1   0.0000
    29 C27       3.1778   -0.1861    3.9467   C.ar      1 RES1   0.0000
    30 C28       2.2125    0.8325    3.8657   C.ar      1 RES1   0.0000
    31 C29       2.0011    1.8758    4.8203   C.ar      1 RES1   0.0000
    32 C30       2.8992    1.9931    5.9977   C.ar      1 RES1   0.0000
    33 C31       3.9367    2.9181    5.9875   C.ar      1 RES1   0.0000
    34 C32       4.8064    3.0021    7.0616   C.ar      1 RES1   0.0000
    35 C33       4.6416    2.1722    8.1574   C.ar      1 RES1   0.0000
    36 C34       3.5971    1.2629    8.1803   C.ar      1 RES1   0.0000
    37 C35       2.7307    1.1675    7.1040   C.ar      1 RES1   0.0000
    38 C36       1.0031    2.7919    4.6153   C.ar      1 RES1   0.0000
    39 C37       0.8135    3.8828    5.5997   C.ar      1 RES1   0.0000
    40 C38       1.2505    5.1697    5.3009   C.ar      1 RES1   0.0000
    41 C39       1.0977    6.1867    6.2260   C.ar      1 RES1   0.0000
    42 C40       0.5092    5.9289    7.4526   C.ar      1 RES1   0.0000
    43 C41       0.0720    4.6496    7.7520   C.ar      1 RES1   0.0000
    44 C42       0.2281    3.6251    6.8346   C.ar      1 RES1   0.0000
    45 N2        0.1752    2.7674    3.5123   N.ar      1 RES1   0.0000
    46 C43      -0.9218    3.7179    3.3572   C.3       1 RES1   0.0000
    47 C44      -2.1809    3.3317    4.1376   C.3       1 RES1   0.0000
    48 C45      -2.9468    2.1176    3.5768   C.3       1 RES1   0.0000
    49 C46      -3.1069    0.9780    4.5811   C.3       1 RES1   0.0000
    50 C47      -1.8013    0.2570    4.9004   C.3       1 RES1   0.0000
    51 C48      -2.0424   -0.9163    5.8403   C.3       1 RES1   0.0000
    52 C49       0.3451    1.8620    2.5216   C.ar      1 RES1   0.0000
    53 O1       -0.3445    1.8586    1.4806   O.2       1 RES1   0.0000
    54 C50       1.3855    0.8653    2.7183   C.ar      1 RES1   0.0000
    55 N3        1.4671   -0.0177    1.7342   N.ar      1 RES1   0.0000
    56 C51       2.3614   -0.9903    1.8412   C.ar      1 RES1   0.0000
    57 C52       2.3760   -1.9216    0.7547   C.ar      1 RES1   0.0000
    58 N4        1.4747   -1.6990   -0.1923   N.ar      1 RES1   0.0000
    59 C53       1.4898   -2.4837   -1.2615   C.ar      1 RES1   0.0000
    60 C54       0.5406   -2.0729   -2.2788   C.ar      1 RES1   0.0000
    61 O2       -0.1454   -1.0422   -2.1312   O.2       1 RES1   0.0000
    62 H1       -4.6625    1.8312   -5.5212   H         1 RES1   0.0000
    63 H2       -3.2387    1.5888   -4.5243   H         1 RES1   0.0000
    64 H3       -4.4075    0.2823   -4.7265   H         1 RES1   0.0000
    65 H4       -2.6342    1.4448   -6.9243   H         1 RES1   0.0000
    66 H5       -3.8830    0.2307   -7.1843   H         1 RES1   0.0000
    67 H6       -1.7453   -0.8773   -7.0953   H         1 RES1   0.0000
    68 H7       -2.6898   -1.3311   -5.6786   H         1 RES1   0.0000
    69 H8       -1.3944    0.2507   -4.2846   H         1 RES1   0.0000
    70 H9       -0.5546    0.8449   -5.7121   H         1 RES1   0.0000
    71 H10       0.8333   -0.6409   -4.4177   H         1 RES1   0.0000
    72 H11       0.5438   -1.3533   -6.0060   H         1 RES1   0.0000
    73 H12      -0.6805   -3.1454   -5.1069   H         1 RES1   0.0000
    74 H13      -1.3867   -2.1201   -3.8319   H         1 RES1   0.0000
    75 H14       2.7140   -3.6371   -5.7949   H         1 RES1   0.0000
    76 H15       2.4695   -4.8424   -7.9196   H         1 RES1   0.0000
    77 H16       0.7490   -6.6109   -8.1531   H         1 RES1   0.0000
    78 H17      -0.7230   -7.1353   -6.2652   H         1 RES1   0.0000
    79 H18      -0.4867   -5.9179   -4.1198   H         1 RES1   0.0000
    80 H19       1.5831   -6.9524   -2.2898   H         1 RES1   0.0000
    81 H20       3.0194   -8.9007   -2.6589   H         1 RES1   0.0000
    82 H21       5.3444   -8.6022   -3.4612   H         1 RES1   0.0000
    83 H22       6.1891   -6.3490   -3.9285   H         1 RES1   0.0000
    84 H23       4.7515   -4.3731   -3.5468   H         1 RES1   0.0000
    85 H24       3.9934   -4.6429   -0.4683   H         1 RES1   0.0000
    86 H25       4.9672   -3.8704    1.7861   H         1 RES1   0.0000
    87 H26       4.9025   -2.3118    3.6781   H         1 RES1   0.0000
    88 H27       3.8412   -0.2352    4.7984   H         1 RES1   0.0000
    89 H28       4.0689    3.5673    5.1345   H         1 RES1   0.0000
    90 H29       5.6123    3.7197    7.0390   H         1 RES1   0.0000
    91 H30       5.3210    2.2315    8.9960   H         1 RES1   0.0000
    92 H31       3.4651    0.6309    9.0456   H         1 RES1   0.0000
    93 H32       1.9133    0.4605    7.1119   H         1 RES1   0.0000
    94 H33       1.7193    5.3738    4.3481   H         1 RES1   0.0000
    95 H34       1.4321    7.1817    5.9779   H         1 RES1   0.0000
    96 H35       0.3813    6.7232    8.1730   H         1 RES1   0.0000
    97 H36      -0.3998    4.4592    8.7034   H         1 RES1   0.0000
    98 H37      -0.1071    2.6240    7.0642   H         1 RES1   0.0000
    99 H38      -1.1646    3.7465    2.2930   H         1 RES1   0.0000
   100 H39      -0.5643    4.6987    3.6719   H         1 RES1   0.0000
   101 H40      -2.8251    4.2103    4.1032   H         1 RES1   0.0000
   102 H41      -1.9273    3.1639    5.1844   H         1 RES1   0.0000
   103 H42      -2.4632    1.7284    2.6778   H         1 RES1   0.0000
   104 H43      -3.9427    2.4477    3.2828   H         1 RES1   0.0000
   105 H44      -3.8052    0.2482    4.1705   H         1 RES1   0.0000
   106 H45      -3.5451    1.3663    5.5024   H         1 RES1   0.0000
   107 H46      -1.0923    0.9475    5.3641   H         1 RES1   0.0000
   108 H47      -1.3560   -0.1068    3.9712   H         1 RES1   0.0000
   109 H48      -2.4760   -0.5715    6.7757   H         1 RES1   0.0000
   110 H49      -1.1155   -1.4393    6.0632   H         1 RES1   0.0000
   111 H50      -2.7330   -1.6211    5.3871   H         1 RES1   0.0000
   112 N5       -2.2458   -1.1826    0.9080   N.3       1 RES1   0.0000
   113 O3       -3.2969   -1.3671    1.4201   O.2       1 RES1   0.0000
   114 O4       -1.2447   -0.8551    1.5836   O.co2     1 RES1   0.0000
   115 O5       -2.0522   -1.3294   -0.3037   O.co2     1 RES1   0.0000
   116 N6       -1.0343    1.7988   -1.5009   N.3       1 RES1   0.0000
   117 O6       -1.3498    2.4390   -2.4458   O.2       1 RES1   0.0000
   118 O7       -1.8766    1.2967   -0.7361   O.co2     1 RES1   0.0000
   119 O8        0.1627    1.5837   -1.2264   O.co2     1 RES1   0.0000
@<TRIPOS>BOND
     1     1    53    1
     2     1    55    1
     3     1    58    1
     4     1    61    1
     5     1   114    1
     6     1   115    1
     7     1   118    1
     8     1   119    1
     9     2     3    1
    10     2    62    1
    11     2    63    1
    12     2    64    1
    13     3     4    1
    14     3    65    1
    15     3    66    1
    16     4     5    1
    17     4    67    1
    18     4    68    1
    19     5     6    1
    20     5    69    1
    21     5    70    1
    22     6     7    1
    23     6    71    1
    24     6    72    1
    25     7     8    1
    26     7    73    1
    27     7    74    1
    28     8     9    1
    29     8    60    1
    30     9    10    1
    31     9    16    2
    32    10    11    1
    33    10    15    2
    34    11    12    2
    35    11    75    1
    36    12    13    1
    37    12    76    1
    38    13    14    2
    39    13    77    1
    40    14    15    1
    41    14    78    1
    42    15    79    1
    43    16    17    1
    44    16    23    1
    45    17    18    1
    46    17    22    2
    47    18    19    2
    48    18    80    1
    49    19    20    1
    50    19    81    1
    51    20    21    2
    52    20    82    1
    53    21    22    1
    54    21    83    1
    55    22    84    1
    56    23    24    1
    57    23    59    2
    58    24    25    2
    59    24    85    1
    60    25    26    1
    61    25    57    1
    62    26    27    2
    63    26    86    1
    64    27    28    1
    65    27    87    1
    66    28    29    1
    67    28    56    2
    68    29    30    2
    69    29    88    1
    70    30    31    1
    71    30    54    1
    72    31    32    1
    73    31    38    2
    74    32    33    1
    75    32    37    2
    76    33    34    2
    77    33    89    1
    78    34    35    1
    79    34    90    1
    80    35    36    2
    81    35    91    1
    82    36    37    1
    83    36    92    1
    84    37    93    1
    85    38    39    1
    86    38    45    1
    87    39    40    1
    88    39    44    2
    89    40    41    2
    90    40    94    1
    91    41    42    1
    92    41    95    1
    93    42    43    2
    94    42    96    1
    95    43    44    1
    96    43    97    1
    97    44    98    1
    98    45    46    1
    99    45    52    1
   100    46    47    1
   101    46    99    1
   102    46   100    1
   103    47    48    1
   104    47   101    1
   105    47   102    1
   106    48    49    1
   107    48   103    1
   108    48   104    1
   109    49    50    1
   110    49   105    1
   111    49   106    1
   112    50    51    1
   113    50   107    1
   114    50   108    1
   115    51   109    1
   116    51   110    1
   117    51   111    1
   118    52    53    2
   119    52    54    1
   120    54    55    2
   121    55    56    1
   122    56    57    1
   123    57    58    2
   124    58    59    1
   125    59    60    1
   126    60    61    2
   127   112   113    2
   128   112   114    1
   129   112   115    1
   130   116   117    2
   131   116   118    1
   132   116   119    1
@<TRIPOS>SUBSTRUCTURE
     1 RES1      119 GROUP             0 ****  ****    0  
