@<TRIPOS>MOLECULE
am_c3_9H2O_c0_0_nunpairedes_0_charge_3 Charge: 3 Unpaired_Electrons: 0 XTB_Unpaired_Electrons: 0 XTB_Charge: 3
   361   369     1     0     0
SMALL
NoCharges
****
Generated from Architector

@<TRIPOS>ATOM
     1 La1      -0.1242    0.0340   -0.0502   La        1 RES1   0.0000
     2 C1       -7.9238    4.5512   -3.3364   C.3       1 RES1   0.0000
     3 C2       -7.2583    3.2235   -3.6764   C.3       1 RES1   0.0000
     4 C3       -6.5008    3.2436   -5.0109   C.3       1 RES1   0.0000
     5 C4       -5.0358    3.7042   -5.0041   C.3       1 RES1   0.0000
     6 C5       -4.7484    5.1133   -4.4709   C.3       1 RES1   0.0000
     7 C6       -4.5465    5.2193   -2.9495   C.3       1 RES1   0.0000
     8 C7       -3.0925    5.2904   -2.4815   C.3       1 RES1   0.0000
     9 C8       -2.2715    4.0082   -2.6465   C.3       1 RES1   0.0000
    10 P1       -2.3689    2.4527   -1.6189   P.3       1 RES1   0.0000
    11 O1       -1.0904    1.6885   -1.8055   O.2       1 RES1   0.0000
    12 C9       -2.6779    2.9263    0.1082   C.3       1 RES1   0.0000
    13 C10      -4.0040    3.6297    0.3591   C.3       1 RES1   0.0000
    14 C11      -4.5594    3.2929    1.7432   C.3       1 RES1   0.0000
    15 C12      -5.4074    4.4187    2.3373   C.3       1 RES1   0.0000
    16 C13      -6.8421    4.4764    1.8145   C.3       1 RES1   0.0000
    17 C14      -7.0693    4.9354    0.3713   C.3       1 RES1   0.0000
    18 C15      -7.0811    6.4481    0.1392   C.3       1 RES1   0.0000
    19 C16      -5.7261    7.1376    0.2482   C.3       1 RES1   0.0000
    20 C17      -3.7969    1.5527   -2.3828   C.3       1 RES1   0.0000
    21 C18      -4.3441    0.2504   -1.8939   C.ar      1 RES1   0.0000
    22 C19      -5.5335   -0.2041   -2.4408   C.ar      1 RES1   0.0000
    23 C20      -6.0769   -1.4209   -2.0714   C.ar      1 RES1   0.0000
    24 C21      -5.3723   -2.1842   -1.1594   C.ar      1 RES1   0.0000
    25 C22      -4.1778   -1.7230   -0.6361   C.ar      1 RES1   0.0000
    26 C23      -3.3081   -2.5860    0.1963   C.3       1 RES1   0.0000
    27 P2       -2.5899   -2.0131    1.8238   P.3       1 RES1   0.0000
    28 O2       -1.1452   -1.6604    1.6349   O.2       1 RES1   0.0000
    29 C24      -2.9124   -3.4531    2.9650   C.3       1 RES1   0.0000
    30 C25      -2.7559   -4.9111    2.4979   C.3       1 RES1   0.0000
    31 C26      -3.9617   -5.7826    2.8906   C.3       1 RES1   0.0000
    32 C27      -5.2664   -5.3818    2.1910   C.3       1 RES1   0.0000
    33 C28      -6.2203   -6.5493    1.8930   C.3       1 RES1   0.0000
    34 C29      -6.9468   -6.3262    0.5619   C.3       1 RES1   0.0000
    35 C30      -6.0557   -6.7191   -0.6271   C.3       1 RES1   0.0000
    36 C31      -6.3908   -8.1185   -1.1313   C.3       1 RES1   0.0000
    37 C32      -3.6176   -0.6900    2.5578   C.3       1 RES1   0.0000
    38 C33      -3.1410   -0.3123    3.9604   C.3       1 RES1   0.0000
    39 C34      -4.0857    0.7054    4.6197   C.3       1 RES1   0.0000
    40 C35      -5.2199    0.0953    5.4493   C.3       1 RES1   0.0000
    41 C36      -6.2902   -0.7038    4.7032   C.3       1 RES1   0.0000
    42 C37      -7.0922    0.0622    3.6480   C.3       1 RES1   0.0000
    43 C38      -7.8497    1.2704    4.2031   C.3       1 RES1   0.0000
    44 C39      -8.9601    1.7192    3.2581   C.3       1 RES1   0.0000
    45 N1       -3.6992   -0.5006   -0.9762   N.ar      1 RES1   0.0000
    46 O3       -2.6479   -0.0424   -0.3659   O.co2     1 RES1   0.0000
    47 H1       -8.5435    4.4460   -2.4500   H         1 RES1   0.0000
    48 H2       -8.5606    4.8655   -4.1583   H         1 RES1   0.0000
    49 H3       -7.1935    5.3295   -3.1496   H         1 RES1   0.0000
    50 H4       -8.0446    2.4676   -3.7448   H         1 RES1   0.0000
    51 H5       -6.5964    2.9174   -2.8590   H         1 RES1   0.0000
    52 H6       -7.0653    3.8643   -5.7074   H         1 RES1   0.0000
    53 H7       -6.5069    2.2302   -5.4259   H         1 RES1   0.0000
    54 H8       -4.7111    3.6586   -6.0464   H         1 RES1   0.0000
    55 H9       -4.4347    2.9778   -4.4603   H         1 RES1   0.0000
    56 H10      -5.5744    5.7542   -4.7754   H         1 RES1   0.0000
    57 H11      -3.8615    5.5012   -4.9752   H         1 RES1   0.0000
    58 H12      -5.0370    4.3857   -2.4559   H         1 RES1   0.0000
    59 H13      -5.0378    6.1300   -2.6083   H         1 RES1   0.0000
    60 H14      -3.0589    5.6562   -1.4558   H         1 RES1   0.0000
    61 H15      -2.5860    6.0449   -3.0906   H         1 RES1   0.0000
    62 H16      -1.2179    4.2858   -2.5258   H         1 RES1   0.0000
    63 H17      -2.4137    3.6930   -3.6786   H         1 RES1   0.0000
    64 H18      -1.8387    3.5690    0.3624   H         1 RES1   0.0000
    65 H19      -2.5655    2.0331    0.7259   H         1 RES1   0.0000
    66 H20      -4.7228    3.3362   -0.4015   H         1 RES1   0.0000
    67 H21      -3.8777    4.7093    0.2891   H         1 RES1   0.0000
    68 H22      -3.7162    3.1016    2.4141   H         1 RES1   0.0000
    69 H23      -5.1476    2.3741    1.6857   H         1 RES1   0.0000
    70 H24      -4.8961    5.3636    2.1677   H         1 RES1   0.0000
    71 H25      -5.4638    4.2719    3.4180   H         1 RES1   0.0000
    72 H26      -7.4159    5.1323    2.4695   H         1 RES1   0.0000
    73 H27      -7.2599    3.4745    1.9187   H         1 RES1   0.0000
    74 H28      -8.0546    4.5667    0.0779   H         1 RES1   0.0000
    75 H29      -6.3478    4.4771   -0.3022   H         1 RES1   0.0000
    76 H30      -7.7776    6.9125    0.8379   H         1 RES1   0.0000
    77 H31      -7.4731    6.6226   -0.8653   H         1 RES1   0.0000
    78 H32      -5.4031    7.2082    1.2828   H         1 RES1   0.0000
    79 H33      -5.7952    8.1494   -0.1426   H         1 RES1   0.0000
    80 H34      -4.9712    6.6061   -0.3291   H         1 RES1   0.0000
    81 H35      -3.4306    1.3958   -3.4095   H         1 RES1   0.0000
    82 H36      -4.6288    2.2592   -2.4344   H         1 RES1   0.0000
    83 H37      -6.0406    0.4257   -3.1504   H         1 RES1   0.0000
    84 H38      -7.0034   -1.7723   -2.4911   H         1 RES1   0.0000
    85 H39      -5.7363   -3.1492   -0.8507   H         1 RES1   0.0000
    86 H40      -2.3829   -2.7376   -0.3769   H         1 RES1   0.0000
    87 H41      -3.8277   -3.5292    0.3725   H         1 RES1   0.0000
    88 H42      -3.9519   -3.3263    3.2664   H         1 RES1   0.0000
    89 H43      -2.3040   -3.2924    3.8570   H         1 RES1   0.0000
    90 H44      -1.8604   -5.3425    2.9483   H         1 RES1   0.0000
    91 H45      -2.6248   -4.9681    1.4153   H         1 RES1   0.0000
    92 H46      -4.0912   -5.7486    3.9718   H         1 RES1   0.0000
    93 H47      -3.7281   -6.8144    2.6258   H         1 RES1   0.0000
    94 H48      -5.0150   -4.9199    1.2342   H         1 RES1   0.0000
    95 H49      -5.8067   -4.6372    2.7786   H         1 RES1   0.0000
    96 H50      -6.9434   -6.6587    2.6986   H         1 RES1   0.0000
    97 H51      -5.6647   -7.4851    1.8262   H         1 RES1   0.0000
    98 H52      -7.2571   -5.2799    0.4878   H         1 RES1   0.0000
    99 H53      -7.8570   -6.9246    0.5264   H         1 RES1   0.0000
   100 H54      -5.0078   -6.6894   -0.3145   H         1 RES1   0.0000
   101 H55      -6.1778   -6.0092   -1.4501   H         1 RES1   0.0000
   102 H56      -6.2871   -8.8525   -0.3359   H         1 RES1   0.0000
   103 H57      -5.7417   -8.4085   -1.9550   H         1 RES1   0.0000
   104 H58      -7.4172   -8.1513   -1.4852   H         1 RES1   0.0000
   105 H59      -4.6467   -1.0371    2.5946   H         1 RES1   0.0000
   106 H60      -3.5682    0.1928    1.9221   H         1 RES1   0.0000
   107 H61      -2.1388    0.1141    3.8653   H         1 RES1   0.0000
   108 H62      -3.0706   -1.1956    4.5992   H         1 RES1   0.0000
   109 H63      -4.5034    1.3552    3.8525   H         1 RES1   0.0000
   110 H64      -3.5048    1.3402    5.2943   H         1 RES1   0.0000
   111 H65      -5.7128    0.9109    5.9788   H         1 RES1   0.0000
   112 H66      -4.7775   -0.5597    6.2027   H         1 RES1   0.0000
   113 H67      -6.9959   -1.0645    5.4525   H         1 RES1   0.0000
   114 H68      -5.8437   -1.5907    4.2458   H         1 RES1   0.0000
   115 H69      -7.8218   -0.6302    3.2194   H         1 RES1   0.0000
   116 H70      -6.4421    0.3937    2.8328   H         1 RES1   0.0000
   117 H71      -7.1537    2.0955    4.3671   H         1 RES1   0.0000
   118 H72      -8.2946    1.0115    5.1652   H         1 RES1   0.0000
   119 H73      -8.5813    1.8631    2.2477   H         1 RES1   0.0000
   120 H74      -9.3961    2.6556    3.5975   H         1 RES1   0.0000
   121 H75      -9.7454    0.9695    3.2114   H         1 RES1   0.0000
   122 C40       8.0322   -3.5687    3.7319   C.3       1 RES1   0.0000
   123 C41       6.6193   -4.1239    3.8720   C.3       1 RES1   0.0000
   124 C42       5.9965   -3.9128    5.2580   C.3       1 RES1   0.0000
   125 C43       5.2631   -2.5857    5.4783   C.3       1 RES1   0.0000
   126 C44       6.1386   -1.3261    5.4392   C.3       1 RES1   0.0000
   127 C45       6.1442   -0.5909    4.0917   C.3       1 RES1   0.0000
   128 C46       5.0814    0.5042    3.9495   C.3       1 RES1   0.0000
   129 C47       3.6429    0.0207    3.7295   C.3       1 RES1   0.0000
   130 P3        3.1074   -0.3260    1.9925   P.3       1 RES1   0.0000
   131 O4        1.6230   -0.1526    1.8567   O.2       1 RES1   0.0000
   132 C48       3.9712    0.8413    0.8684   C.3       1 RES1   0.0000
   133 C49       5.3522    0.4609    0.3383   C.3       1 RES1   0.0000
   134 C50       5.2481    0.0964   -1.1378   C.3       1 RES1   0.0000
   135 C51       6.5738   -0.2241   -1.8249   C.3       1 RES1   0.0000
   136 C52       7.0756   -1.6545   -1.6323   C.3       1 RES1   0.0000
   137 C53       7.5317   -2.0952   -0.2386   C.3       1 RES1   0.0000
   138 C54       8.8444   -1.4812    0.2588   C.3       1 RES1   0.0000
   139 C55       8.7515   -0.0688    0.8263   C.3       1 RES1   0.0000
   140 C56       3.6397   -2.0330    1.4760   C.3       1 RES1   0.0000
   141 C57       2.6020   -3.0818    1.6678   C.ar      1 RES1   0.0000
   142 C58       2.6921   -4.0393    2.6620   C.ar      1 RES1   0.0000
   143 C59       1.7889   -5.0863    2.7191   C.ar      1 RES1   0.0000
   144 C60       0.8508   -5.1823    1.7116   C.ar      1 RES1   0.0000
   145 C61       0.7688   -4.2079    0.7311   C.ar      1 RES1   0.0000
   146 C62      -0.1984   -4.3779   -0.3903   C.3       1 RES1   0.0000
   147 P4       -0.2228   -3.2137   -1.8417   P.3       1 RES1   0.0000
   148 O5       -0.7794   -1.8388   -1.6084   O.2       1 RES1   0.0000
   149 C63      -1.3016   -4.1337   -3.0531   C.3       1 RES1   0.0000
   150 C64      -2.7060   -4.6670   -2.7101   C.3       1 RES1   0.0000
   151 C65      -2.8308   -6.1959   -2.7445   C.3       1 RES1   0.0000
   152 C66      -2.1277   -6.8965   -1.5866   C.3       1 RES1   0.0000
   153 C67      -2.4211   -8.3947   -1.5312   C.3       1 RES1   0.0000
   154 C68      -1.6818   -9.0893   -0.3840   C.3       1 RES1   0.0000
   155 C69      -2.2505   -8.7684    1.0014   C.3       1 RES1   0.0000
   156 C70      -3.5360   -9.5324    1.2972   C.3       1 RES1   0.0000
   157 C71       1.3945   -3.4034   -2.6959   C.3       1 RES1   0.0000
   158 C72       1.3735   -2.8531   -4.1158   C.3       1 RES1   0.0000
   159 C73       2.7230   -3.0082   -4.8292   C.3       1 RES1   0.0000
   160 C74       2.9013   -4.3345   -5.5716   C.3       1 RES1   0.0000
   161 C75       3.0420   -5.5956   -4.7165   C.3       1 RES1   0.0000
   162 C76       4.1136   -5.5366   -3.6264   C.3       1 RES1   0.0000
   163 C77       5.5248   -5.2946   -4.1605   C.3       1 RES1   0.0000
   164 C78       6.5566   -5.3591   -3.0396   C.3       1 RES1   0.0000
   165 N2        1.5860   -3.1366    0.7683   N.ar      1 RES1   0.0000
   166 O6        1.4449   -2.2036   -0.1215   O.co2     1 RES1   0.0000
   167 H76       8.4682   -3.8944    2.7908   H         1 RES1   0.0000
   168 H77       8.6571   -3.9415    4.5385   H         1 RES1   0.0000
   169 H78       8.0500   -2.4845    3.7551   H         1 RES1   0.0000
   170 H79       6.6663   -5.1988    3.6860   H         1 RES1   0.0000
   171 H80       5.9701   -3.6973    3.0983   H         1 RES1   0.0000
   172 H81       6.7740   -4.0276    6.0135   H         1 RES1   0.0000
   173 H82       5.2698   -4.7120    5.4331   H         1 RES1   0.0000
   174 H83       4.7821   -2.6474    6.4557   H         1 RES1   0.0000
   175 H84       4.4665   -2.5052    4.7353   H         1 RES1   0.0000
   176 H85       7.1569   -1.6159    5.6963   H         1 RES1   0.0000
   177 H86       5.8126   -0.6302    6.2136   H         1 RES1   0.0000
   178 H87       6.0403   -1.3117    3.2817   H         1 RES1   0.0000
   179 H88       7.1159   -0.1067    3.9762   H         1 RES1   0.0000
   180 H89       5.3759    1.1647    3.1322   H         1 RES1   0.0000
   181 H90       5.1014    1.1040    4.8624   H         1 RES1   0.0000
   182 H91       2.9489    0.7909    4.0765   H         1 RES1   0.0000
   183 H92       3.4470   -0.8601    4.3395   H         1 RES1   0.0000
   184 H93       4.0335    1.7889    1.4046   H         1 RES1   0.0000
   185 H94       3.2809    0.9523    0.0237   H         1 RES1   0.0000
   186 H95       5.7919   -0.3460    0.9138   H         1 RES1   0.0000
   187 H96       6.0286    1.3124    0.4270   H         1 RES1   0.0000
   188 H97       4.8160    0.9753   -1.6201   H         1 RES1   0.0000
   189 H98       4.5400   -0.7240   -1.2877   H         1 RES1   0.0000
   190 H99       7.3251    0.4953   -1.5089   H         1 RES1   0.0000
   191 H100      6.4372   -0.0873   -2.9008   H         1 RES1   0.0000
   192 H101      7.9173   -1.8061   -2.3103   H         1 RES1   0.0000
   193 H102      6.2757   -2.3265   -1.9578   H         1 RES1   0.0000
   194 H103      7.6884   -3.1754   -0.3008   H         1 RES1   0.0000
   195 H104      6.7465   -1.9390    0.5027   H         1 RES1   0.0000
   196 H105      9.5696   -1.5017   -0.5561   H         1 RES1   0.0000
   197 H106      9.2313   -2.1245    1.0519   H         1 RES1   0.0000
   198 H107      8.5021    0.6628    0.0649   H         1 RES1   0.0000
   199 H108      9.7135    0.2127    1.2453   H         1 RES1   0.0000
   200 H109      8.0083   -0.0138    1.6194   H         1 RES1   0.0000
   201 H110      4.5379   -2.3020    2.0315   H         1 RES1   0.0000
   202 H111      3.8858   -1.9658    0.4109   H         1 RES1   0.0000
   203 H112      3.4913   -3.9809    3.3808   H         1 RES1   0.0000
   204 H113      1.8396   -5.8241    3.5030   H         1 RES1   0.0000
   205 H114      0.1808   -6.0238    1.6529   H         1 RES1   0.0000
   206 H115     -1.2111   -4.4225    0.0239   H         1 RES1   0.0000
   207 H116     -0.0052   -5.3567   -0.8446   H         1 RES1   0.0000
   208 H117     -0.7005   -4.9646   -3.4224   H         1 RES1   0.0000
   209 H118     -1.3984   -3.4162   -3.8723   H         1 RES1   0.0000
   210 H119     -3.4108   -4.2708   -3.4437   H         1 RES1   0.0000
   211 H120     -3.0434   -4.3151   -1.7375   H         1 RES1   0.0000
   212 H121     -2.4489   -6.5774   -3.6922   H         1 RES1   0.0000
   213 H122     -3.8919   -6.4482   -2.7050   H         1 RES1   0.0000
   214 H123     -2.4420   -6.4283   -0.6500   H         1 RES1   0.0000
   215 H124     -1.0467   -6.7761   -1.6817   H         1 RES1   0.0000
   216 H125     -2.1083   -8.8457   -2.4738   H         1 RES1   0.0000
   217 H126     -3.4930   -8.5558   -1.4276   H         1 RES1   0.0000
   218 H127     -0.6260   -8.8032   -0.4194   H         1 RES1   0.0000
   219 H128     -1.7295  -10.1688   -0.5337   H         1 RES1   0.0000
   220 H129     -2.4318   -7.6925    1.0808   H         1 RES1   0.0000
   221 H130     -1.5091   -9.0308    1.7596   H         1 RES1   0.0000
   222 H131     -4.3061   -9.2961    0.5691   H         1 RES1   0.0000
   223 H132     -3.9116   -9.2869    2.2890   H         1 RES1   0.0000
   224 H133     -3.3534  -10.6029    1.2615   H         1 RES1   0.0000
   225 H134      1.6009   -4.4709   -2.7074   H         1 RES1   0.0000
   226 H135      2.1802   -2.8976   -2.1384   H         1 RES1   0.0000
   227 H136      1.1195   -1.7957   -4.0310   H         1 RES1   0.0000
   228 H137      0.6042   -3.3353   -4.7206   H         1 RES1   0.0000
   229 H138      3.5368   -2.8731   -4.1160   H         1 RES1   0.0000
   230 H139      2.8155   -2.2145   -5.5746   H         1 RES1   0.0000
   231 H140      3.7889   -4.2432   -6.1970   H         1 RES1   0.0000
   232 H141      2.0479   -4.4722   -6.2383   H         1 RES1   0.0000
   233 H142      3.2922   -6.4166   -5.3897   H         1 RES1   0.0000
   234 H143      2.0809   -5.8453   -4.2593   H         1 RES1   0.0000
   235 H144      4.1089   -6.4912   -3.0933   H         1 RES1   0.0000
   236 H145      3.8729   -4.7567   -2.8983   H         1 RES1   0.0000
   237 H146      5.5760   -4.3168   -4.6440   H         1 RES1   0.0000
   238 H147      5.7623   -6.0479   -4.9129   H         1 RES1   0.0000
   239 H148      6.3212   -4.6383   -2.2579   H         1 RES1   0.0000
   240 H149      7.5500   -5.1394   -3.4213   H         1 RES1   0.0000
   241 H150      6.5727   -6.3489   -2.5902   H         1 RES1   0.0000
   242 C79       5.2215    5.7488   -5.8898   C.3       1 RES1   0.0000
   243 C80       5.3540    5.3895   -4.4148   C.3       1 RES1   0.0000
   244 C81       6.4189    4.3270   -4.1155   C.3       1 RES1   0.0000
   245 C82       5.9653    2.8698   -4.2406   C.3       1 RES1   0.0000
   246 C83       5.6008    2.4073   -5.6590   C.3       1 RES1   0.0000
   247 C84       4.0951    2.2215   -5.8841   C.3       1 RES1   0.0000
   248 C85       3.5778    0.8299   -5.5009   C.3       1 RES1   0.0000
   249 C86       3.3663    0.5973   -4.0026   C.3       1 RES1   0.0000
   250 P5        1.7927    1.1332   -3.1772   P.3       1 RES1   0.0000
   251 O7        1.5423    0.2393   -1.9970   O.2       1 RES1   0.0000
   252 C87       0.5252    0.9355   -4.5058   C.3       1 RES1   0.0000
   253 C88       0.3933    1.9812   -5.6213   C.3       1 RES1   0.0000
   254 C89      -0.6708    3.0045   -5.2397   C.3       1 RES1   0.0000
   255 C90      -0.8830    4.1767   -6.2088   C.3       1 RES1   0.0000
   256 C91      -0.2640    5.4926   -5.7281   C.3       1 RES1   0.0000
   257 C92       1.2516    5.5883   -5.9180   C.3       1 RES1   0.0000
   258 C93       1.6670    6.1267   -7.2892   C.3       1 RES1   0.0000
   259 C94       1.3901    5.1802   -8.4516   C.3       1 RES1   0.0000
   260 C95       1.7691    2.9248   -2.5772   C.3       1 RES1   0.0000
   261 C96       2.4919    3.3065   -1.3282   C.ar      1 RES1   0.0000
   262 C97       3.6823    4.0124   -1.3497   C.ar      1 RES1   0.0000
   263 C98       4.2254    4.5350   -0.1913   C.ar      1 RES1   0.0000
   264 C99       3.5690    4.3176    1.0065   C.ar      1 RES1   0.0000
   265 C100      2.4249    3.5342    1.0387   C.ar      1 RES1   0.0000
   266 C101      1.7931    3.0315    2.2922   C.3       1 RES1   0.0000
   267 P6       -0.0765    3.0873    2.4496   P.3       1 RES1   0.0000
   268 O8       -0.7357    1.8461    1.9307   O.2       1 RES1   0.0000
   269 C102     -0.4264    3.2533    4.2446   C.3       1 RES1   0.0000
   270 C103      0.3238    2.2909    5.1651   C.3       1 RES1   0.0000
   271 C104      0.5837    2.9103    6.5431   C.3       1 RES1   0.0000
   272 C105      1.3299    4.2540    6.4761   C.3       1 RES1   0.0000
   273 C106      2.3803    4.4708    7.5719   C.3       1 RES1   0.0000
   274 C107      3.7726    3.9384    7.2220   C.3       1 RES1   0.0000
   275 C108      3.9208    2.4162    7.2352   C.3       1 RES1   0.0000
   276 C109      3.6985    1.8084    8.6145   C.3       1 RES1   0.0000
   277 C110     -0.3901    4.8323    1.8578   C.3       1 RES1   0.0000
   278 C111     -1.6612    5.5213    2.3659   C.3       1 RES1   0.0000
   279 C112     -2.0642    6.7540    1.5360   C.3       1 RES1   0.0000
   280 C113     -1.5738    8.0969    2.0818   C.3       1 RES1   0.0000
   281 C114     -0.1029    8.4399    1.8464   C.3       1 RES1   0.0000
   282 C115      0.3723    8.3484    0.3946   C.3       1 RES1   0.0000
   283 C116     -0.4465    9.1864   -0.5879   C.3       1 RES1   0.0000
   284 C117      0.1413    9.1220   -1.9942   C.3       1 RES1   0.0000
   285 N3        1.9148    3.0563   -0.1268   N.ar      1 RES1   0.0000
   286 O9        0.8232    2.3639   -0.0567   O.co2     1 RES1   0.0000
   287 H151      4.6391    6.6606   -5.9909   H         1 RES1   0.0000
   288 H152      6.1987    5.9278   -6.3279   H         1 RES1   0.0000
   289 H153      4.7261    4.9634   -6.4525   H         1 RES1   0.0000
   290 H154      5.6205    6.2943   -3.8639   H         1 RES1   0.0000
   291 H155      4.3755    5.0681   -4.0437   H         1 RES1   0.0000
   292 H156      7.2773    4.5017   -4.7639   H         1 RES1   0.0000
   293 H157      6.7663    4.4652   -3.0867   H         1 RES1   0.0000
   294 H158      6.7735    2.2462   -3.8566   H         1 RES1   0.0000
   295 H159      5.1073    2.7266   -3.5810   H         1 RES1   0.0000
   296 H160      5.9866    3.1354   -6.3696   H         1 RES1   0.0000
   297 H161      6.1040    1.4657   -5.8851   H         1 RES1   0.0000
   298 H162      3.5514    2.9878   -5.3287   H         1 RES1   0.0000
   299 H163      3.8869    2.3728   -6.9452   H         1 RES1   0.0000
   300 H164      2.6634    0.6228   -6.0546   H         1 RES1   0.0000
   301 H165      4.3175    0.1010   -5.8445   H         1 RES1   0.0000
   302 H166      3.3447   -0.4789   -3.8135   H         1 RES1   0.0000
   303 H167      4.2261    0.9908   -3.4734   H         1 RES1   0.0000
   304 H168      0.7927   -0.0279   -4.9478   H         1 RES1   0.0000
   305 H169     -0.4326    0.8135   -3.9983   H         1 RES1   0.0000
   306 H170      1.3420    2.4685   -5.8347   H         1 RES1   0.0000
   307 H171      0.0822    1.4826   -6.5423   H         1 RES1   0.0000
   308 H172     -1.6132    2.4577   -5.1378   H         1 RES1   0.0000
   309 H173     -0.4040    3.3934   -4.2618   H         1 RES1   0.0000
   310 H174     -0.4862    3.9132   -7.1837   H         1 RES1   0.0000
   311 H175     -1.9541    4.3427   -6.3318   H         1 RES1   0.0000
   312 H176     -0.7259    6.3234   -6.2637   H         1 RES1   0.0000
   313 H177     -0.5069    5.6215   -4.6691   H         1 RES1   0.0000
   314 H178      1.6613    6.2626   -5.1617   H         1 RES1   0.0000
   315 H179      1.7042    4.6073   -5.7618   H         1 RES1   0.0000
   316 H180      1.1614    7.0792   -7.4604   H         1 RES1   0.0000
   317 H181      2.7369    6.3372   -7.2673   H         1 RES1   0.0000
   318 H182      0.3300    5.1327   -8.6812   H         1 RES1   0.0000
   319 H183      1.9012    5.5383   -9.3404   H         1 RES1   0.0000
   320 H184      1.7516    4.1757   -8.2318   H         1 RES1   0.0000
   321 H185      2.1193    3.5569   -3.3924   H         1 RES1   0.0000
   322 H186      0.6973    3.0718   -2.3954   H         1 RES1   0.0000
   323 H187      4.1643    4.1845   -2.2938   H         1 RES1   0.0000
   324 H188      5.1418    5.1006   -0.2366   H         1 RES1   0.0000
   325 H189      3.9607    4.7294    1.9209   H         1 RES1   0.0000
   326 H190      1.9440    1.9462    2.3202   H         1 RES1   0.0000
   327 H191      2.2488    3.4943    3.1711   H         1 RES1   0.0000
   328 H192     -0.1886    4.2756    4.5252   H         1 RES1   0.0000
   329 H193     -1.5028    3.1159    4.3615   H         1 RES1   0.0000
   330 H194     -0.2360    1.3616    5.2805   H         1 RES1   0.0000
   331 H195      1.2789    2.0242    4.7106   H         1 RES1   0.0000
   332 H196     -0.3668    3.0639    7.0542   H         1 RES1   0.0000
   333 H197      1.1570    2.1950    7.1295   H         1 RES1   0.0000
   334 H198      1.8295    4.3569    5.5095   H         1 RES1   0.0000
   335 H199      0.6020    5.0639    6.5518   H         1 RES1   0.0000
   336 H200      2.4826    5.5447    7.7376   H         1 RES1   0.0000
   337 H201      2.0364    4.0372    8.5087   H         1 RES1   0.0000
   338 H202      4.0498    4.3127    6.2306   H         1 RES1   0.0000
   339 H203      4.4894    4.3531    7.9332   H         1 RES1   0.0000
   340 H204      3.2316    1.9697    6.5132   H         1 RES1   0.0000
   341 H205      4.9389    2.1746    6.9161   H         1 RES1   0.0000
   342 H206      2.6903    1.9943    8.9735   H         1 RES1   0.0000
   343 H207      3.8515    0.7324    8.5864   H         1 RES1   0.0000
   344 H208      4.3988    2.2330    9.3282   H         1 RES1   0.0000
   345 H209      0.4639    5.3883    2.2476   H         1 RES1   0.0000
   346 H210     -0.3255    4.8855    0.7699   H         1 RES1   0.0000
   347 H211     -2.4815    4.8101    2.3643   H         1 RES1   0.0000
   348 H212     -1.5313    5.8354    3.4036   H         1 RES1   0.0000
   349 H213     -1.7378    6.6286    0.5036   H         1 RES1   0.0000
   350 H214     -3.1531    6.8118    1.5115   H         1 RES1   0.0000
   351 H215     -2.1840    8.8801    1.6332   H         1 RES1   0.0000
   352 H216     -1.7640    8.1238    3.1560   H         1 RES1   0.0000
   353 H217      0.0455    9.4657    2.1853   H         1 RES1   0.0000
   354 H218      0.5345    7.8017    2.4632   H         1 RES1   0.0000
   355 H219      1.4084    8.6957    0.3570   H         1 RES1   0.0000
   356 H220      0.3703    7.3046    0.0634   H         1 RES1   0.0000
   357 H221     -1.4786    8.8307   -0.6135   H         1 RES1   0.0000
   358 H222     -0.4635   10.2240   -0.2509   H         1 RES1   0.0000
   359 H223      0.1976    8.0906   -2.3427   H         1 RES1   0.0000
   360 H224     -0.4720    9.6875   -2.6909   H         1 RES1   0.0000
   361 H225      1.1453    9.5387   -2.0081   H         1 RES1   0.0000
@<TRIPOS>BOND
     1     1    11    1
     2     1    28    1
     3     1    46    1
     4     1   131    1
     5     1   148    1
     6     1   166    1
     7     1   251    1
     8     1   268    1
     9     1   286    1
    10     2     3    1
    11     2    47    1
    12     2    48    1
    13     2    49    1
    14     3     4    1
    15     3    50    1
    16     3    51    1
    17     4     5    1
    18     4    52    1
    19     4    53    1
    20     5     6    1
    21     5    54    1
    22     5    55    1
    23     6     7    1
    24     6    56    1
    25     6    57    1
    26     7     8    1
    27     7    58    1
    28     7    59    1
    29     8     9    1
    30     8    60    1
    31     8    61    1
    32     9    10    1
    33     9    62    1
    34     9    63    1
    35    10    11    2
    36    10    12    1
    37    10    20    1
    38    12    13    1
    39    12    64    1
    40    12    65    1
    41    13    14    1
    42    13    66    1
    43    13    67    1
    44    14    15    1
    45    14    68    1
    46    14    69    1
    47    15    16    1
    48    15    70    1
    49    15    71    1
    50    16    17    1
    51    16    72    1
    52    16    73    1
    53    17    18    1
    54    17    74    1
    55    17    75    1
    56    18    19    1
    57    18    76    1
    58    18    77    1
    59    19    78    1
    60    19    79    1
    61    19    80    1
    62    20    21    1
    63    20    81    1
    64    20    82    1
    65    21    22    1
    66    21    45    2
    67    22    23    2
    68    22    83    1
    69    23    24    1
    70    23    84    1
    71    24    25    2
    72    24    85    1
    73    25    26    1
    74    25    45    1
    75    26    27    1
    76    26    86    1
    77    26    87    1
    78    27    28    2
    79    27    29    1
    80    27    37    1
    81    29    30    1
    82    29    88    1
    83    29    89    1
    84    30    31    1
    85    30    90    1
    86    30    91    1
    87    31    32    1
    88    31    92    1
    89    31    93    1
    90    32    33    1
    91    32    94    1
    92    32    95    1
    93    33    34    1
    94    33    96    1
    95    33    97    1
    96    34    35    1
    97    34    98    1
    98    34    99    1
    99    35    36    1
   100    35   100    1
   101    35   101    1
   102    36   102    1
   103    36   103    1
   104    36   104    1
   105    37    38    1
   106    37   105    1
   107    37   106    1
   108    38    39    1
   109    38   107    1
   110    38   108    1
   111    39    40    1
   112    39   109    1
   113    39   110    1
   114    40    41    1
   115    40   111    1
   116    40   112    1
   117    41    42    1
   118    41   113    1
   119    41   114    1
   120    42    43    1
   121    42   115    1
   122    42   116    1
   123    43    44    1
   124    43   117    1
   125    43   118    1
   126    44   119    1
   127    44   120    1
   128    44   121    1
   129    45    46    1
   130   122   123    1
   131   122   167    1
   132   122   168    1
   133   122   169    1
   134   123   124    1
   135   123   170    1
   136   123   171    1
   137   124   125    1
   138   124   172    1
   139   124   173    1
   140   125   126    1
   141   125   174    1
   142   125   175    1
   143   126   127    1
   144   126   176    1
   145   126   177    1
   146   127   128    1
   147   127   178    1
   148   127   179    1
   149   128   129    1
   150   128   180    1
   151   128   181    1
   152   129   130    1
   153   129   182    1
   154   129   183    1
   155   130   131    2
   156   130   132    1
   157   130   140    1
   158   132   133    1
   159   132   184    1
   160   132   185    1
   161   133   134    1
   162   133   186    1
   163   133   187    1
   164   134   135    1
   165   134   188    1
   166   134   189    1
   167   135   136    1
   168   135   190    1
   169   135   191    1
   170   136   137    1
   171   136   192    1
   172   136   193    1
   173   137   138    1
   174   137   194    1
   175   137   195    1
   176   138   139    1
   177   138   196    1
   178   138   197    1
   179   139   198    1
   180   139   199    1
   181   139   200    1
   182   140   141    1
   183   140   201    1
   184   140   202    1
   185   141   142    1
   186   141   165    2
   187   142   143    2
   188   142   203    1
   189   143   144    1
   190   143   204    1
   191   144   145    2
   192   144   205    1
   193   145   146    1
   194   145   165    1
   195   146   147    1
   196   146   206    1
   197   146   207    1
   198   147   148    2
   199   147   149    1
   200   147   157    1
   201   149   150    1
   202   149   208    1
   203   149   209    1
   204   150   151    1
   205   150   210    1
   206   150   211    1
   207   151   152    1
   208   151   212    1
   209   151   213    1
   210   152   153    1
   211   152   214    1
   212   152   215    1
   213   153   154    1
   214   153   216    1
   215   153   217    1
   216   154   155    1
   217   154   218    1
   218   154   219    1
   219   155   156    1
   220   155   220    1
   221   155   221    1
   222   156   222    1
   223   156   223    1
   224   156   224    1
   225   157   158    1
   226   157   225    1
   227   157   226    1
   228   158   159    1
   229   158   227    1
   230   158   228    1
   231   159   160    1
   232   159   229    1
   233   159   230    1
   234   160   161    1
   235   160   231    1
   236   160   232    1
   237   161   162    1
   238   161   233    1
   239   161   234    1
   240   162   163    1
   241   162   235    1
   242   162   236    1
   243   163   164    1
   244   163   237    1
   245   163   238    1
   246   164   239    1
   247   164   240    1
   248   164   241    1
   249   165   166    1
   250   242   243    1
   251   242   287    1
   252   242   288    1
   253   242   289    1
   254   243   244    1
   255   243   290    1
   256   243   291    1
   257   244   245    1
   258   244   292    1
   259   244   293    1
   260   245   246    1
   261   245   294    1
   262   245   295    1
   263   246   247    1
   264   246   296    1
   265   246   297    1
   266   247   248    1
   267   247   298    1
   268   247   299    1
   269   248   249    1
   270   248   300    1
   271   248   301    1
   272   249   250    1
   273   249   302    1
   274   249   303    1
   275   250   251    2
   276   250   252    1
   277   250   260    1
   278   252   253    1
   279   252   304    1
   280   252   305    1
   281   253   254    1
   282   253   306    1
   283   253   307    1
   284   254   255    1
   285   254   308    1
   286   254   309    1
   287   255   256    1
   288   255   310    1
   289   255   311    1
   290   256   257    1
   291   256   312    1
   292   256   313    1
   293   257   258    1
   294   257   314    1
   295   257   315    1
   296   258   259    1
   297   258   316    1
   298   258   317    1
   299   259   318    1
   300   259   319    1
   301   259   320    1
   302   260   261    1
   303   260   321    1
   304   260   322    1
   305   261   262    1
   306   261   285    2
   307   262   263    2
   308   262   323    1
   309   263   264    1
   310   263   324    1
   311   264   265    2
   312   264   325    1
   313   265   266    1
   314   265   285    1
   315   266   267    1
   316   266   326    1
   317   266   327    1
   318   267   268    2
   319   267   269    1
   320   267   277    1
   321   269   270    1
   322   269   328    1
   323   269   329    1
   324   270   271    1
   325   270   330    1
   326   270   331    1
   327   271   272    1
   328   271   332    1
   329   271   333    1
   330   272   273    1
   331   272   334    1
   332   272   335    1
   333   273   274    1
   334   273   336    1
   335   273   337    1
   336   274   275    1
   337   274   338    1
   338   274   339    1
   339   275   276    1
   340   275   340    1
   341   275   341    1
   342   276   342    1
   343   276   343    1
   344   276   344    1
   345   277   278    1
   346   277   345    1
   347   277   346    1
   348   278   279    1
   349   278   347    1
   350   278   348    1
   351   279   280    1
   352   279   349    1
   353   279   350    1
   354   280   281    1
   355   280   351    1
   356   280   352    1
   357   281   282    1
   358   281   353    1
   359   281   354    1
   360   282   283    1
   361   282   355    1
   362   282   356    1
   363   283   284    1
   364   283   357    1
   365   283   358    1
   366   284   359    1
   367   284   360    1
   368   284   361    1
   369   285   286    1
@<TRIPOS>SUBSTRUCTURE
     1 RES1      361 GROUP             0 ****  ****    0  
