@<TRIPOS>MOLECULE
capped_square_antiprismatic_0_nunpairedes_0_charge_3 Charge: 3 Unpaired_Electrons: 0 XTB_Unpaired_Electrons: 0 XTB_Charge: 3
   277   282     1     0     0
SMALL
NoCharges
****
Generated from Architector

@<TRIPOS>ATOM
     1 La1       0.1179   -0.0038   -0.0404   La        1 RES1   0.0000
     2 C1        3.8425    2.7330    3.4553   C.3       1 RES1   0.0000
     3 C2        2.7370    2.0638    2.6484   C.3       1 RES1   0.0000
     4 C3        1.3001    2.4752    3.0167   C.3       1 RES1   0.0000
     5 C4        0.8078    3.8345    2.5204   C.3       1 RES1   0.0000
     6 C5       -0.7121    4.0431    2.5833   C.3       1 RES1   0.0000
     7 C6       -1.3129    4.1276    3.9917   C.3       1 RES1   0.0000
     8 C7       -2.8311    3.9190    4.0209   C.3       1 RES1   0.0000
     9 C8       -3.2643    2.4427    4.0195   C.3       1 RES1   0.0000
    10 N1       -3.0512    1.8034    2.7329   N.am      1 RES1   0.0000
    11 C9       -3.8975    2.2794    1.6544   C.3       1 RES1   0.0000
    12 C10      -1.9579    1.1322    2.3733   C.2       1 RES1   0.0000
    13 O1       -1.5825    1.1251    1.1855   O.2       1 RES1   0.0000
    14 C11      -1.2183    0.2707    3.3953   C.3       1 RES1   0.0000
    15 O2       -0.1785   -0.3754    2.6830   O.3       1 RES1   0.0000
    16 C12       0.3768   -1.4858    3.3673   C.3       1 RES1   0.0000
    17 C13       1.1872   -2.2802    2.3387   C.2       1 RES1   0.0000
    18 O3        1.2910   -1.8069    1.1888   O.2       1 RES1   0.0000
    19 N2        1.7374   -3.4381    2.6960   N.am      1 RES1   0.0000
    20 C14       2.4480   -4.2086    1.6751   C.3       1 RES1   0.0000
    21 C15       1.5809   -5.2934    1.0242   C.3       1 RES1   0.0000
    22 C16       2.4336   -6.3616    0.3322   C.3       1 RES1   0.0000
    23 C17       2.8020   -5.9870   -1.1034   C.3       1 RES1   0.0000
    24 C18       1.6677   -6.3049   -2.0769   C.3       1 RES1   0.0000
    25 C19       2.1060   -6.1760   -3.5337   C.3       1 RES1   0.0000
    26 C20       1.0021   -6.5271   -4.5323   C.3       1 RES1   0.0000
    27 C21      -0.1014   -5.4829   -4.6574   C.3       1 RES1   0.0000
    28 C22       1.8768   -3.9488    4.0632   C.3       1 RES1   0.0000
    29 C23       1.2291   -5.3326    4.2600   C.3       1 RES1   0.0000
    30 C24       1.1594   -5.8262    5.7129   C.3       1 RES1   0.0000
    31 C25       0.3740   -7.1516    5.8560   C.3       1 RES1   0.0000
    32 C26      -1.0432   -7.0435    6.4633   C.3       1 RES1   0.0000
    33 C27      -2.1561   -7.6445    5.5972   C.3       1 RES1   0.0000
    34 C28      -3.5560   -7.1799    5.9998   C.3       1 RES1   0.0000
    35 C29      -4.6134   -7.7937    5.0890   C.3       1 RES1   0.0000
    36 H1        4.8072    2.3070    3.1903   H         1 RES1   0.0000
    37 H2        3.7051    2.5543    4.5167   H         1 RES1   0.0000
    38 H3        3.8821    3.8070    3.2920   H         1 RES1   0.0000
    39 H4        2.8026    0.9864    2.8271   H         1 RES1   0.0000
    40 H5        2.9248    2.2196    1.5865   H         1 RES1   0.0000
    41 H6        1.2053    2.4153    4.1029   H         1 RES1   0.0000
    42 H7        0.6425    1.7316    2.5596   H         1 RES1   0.0000
    43 H8        1.0840    3.9057    1.4699   H         1 RES1   0.0000
    44 H9        1.2829    4.6414    3.0659   H         1 RES1   0.0000
    45 H10      -1.1925    3.2594    2.0015   H         1 RES1   0.0000
    46 H11      -0.9370    4.9877    2.0804   H         1 RES1   0.0000
    47 H12      -1.1122    5.1237    4.3904   H         1 RES1   0.0000
    48 H13      -0.8434    3.4057    4.6604   H         1 RES1   0.0000
    49 H14      -3.2957    4.4663    3.1979   H         1 RES1   0.0000
    50 H15      -3.2301    4.3530    4.9386   H         1 RES1   0.0000
    51 H16      -4.3293    2.3817    4.2572   H         1 RES1   0.0000
    52 H17      -2.7106    1.9050    4.7868   H         1 RES1   0.0000
    53 H18      -4.8340    2.6447    2.0643   H         1 RES1   0.0000
    54 H19      -4.1009    1.4491    0.9831   H         1 RES1   0.0000
    55 H20      -3.4210    3.0644    1.0691   H         1 RES1   0.0000
    56 H21      -1.9355   -0.4740    3.7645   H         1 RES1   0.0000
    57 H22      -0.8233    0.8317    4.2543   H         1 RES1   0.0000
    58 H23      -0.4357   -2.1018    3.7629   H         1 RES1   0.0000
    59 H24       1.0151   -1.1605    4.2033   H         1 RES1   0.0000
    60 H25       3.3257   -4.6642    2.1367   H         1 RES1   0.0000
    61 H26       2.7732   -3.4943    0.9190   H         1 RES1   0.0000
    62 H27       0.9273   -4.8131    0.2979   H         1 RES1   0.0000
    63 H28       0.9479   -5.7608    1.7754   H         1 RES1   0.0000
    64 H29       1.8850   -7.3028    0.3205   H         1 RES1   0.0000
    65 H30       3.3375   -6.5435    0.9134   H         1 RES1   0.0000
    66 H31       3.6889   -6.5444   -1.4033   H         1 RES1   0.0000
    67 H32       3.0566   -4.9260   -1.1542   H         1 RES1   0.0000
    68 H33       0.8093   -5.6577   -1.8717   H         1 RES1   0.0000
    69 H34       1.3439   -7.3329   -1.9091   H         1 RES1   0.0000
    70 H35       2.9418   -6.8588   -3.6938   H         1 RES1   0.0000
    71 H36       2.4835   -5.1673   -3.7287   H         1 RES1   0.0000
    72 H37       0.5623   -7.4807   -4.2400   H         1 RES1   0.0000
    73 H38       1.4553   -6.6679   -5.5133   H         1 RES1   0.0000
    74 H39      -0.6030   -5.3083   -3.7080   H         1 RES1   0.0000
    75 H40      -0.8407   -5.8277   -5.3740   H         1 RES1   0.0000
    76 H41       0.2970   -4.5419   -5.0248   H         1 RES1   0.0000
    77 H42       1.4553   -3.2321    4.7661   H         1 RES1   0.0000
    78 H43       2.9514   -4.0248    4.2661   H         1 RES1   0.0000
    79 H44       1.8069   -6.0677    3.7012   H         1 RES1   0.0000
    80 H45       0.2217   -5.2971    3.8512   H         1 RES1   0.0000
    81 H46       0.7162   -5.0692    6.3570   H         1 RES1   0.0000
    82 H47       2.1787   -5.9898    6.0589   H         1 RES1   0.0000
    83 H48       0.9640   -7.8187    6.4820   H         1 RES1   0.0000
    84 H49       0.3160   -7.6316    4.8787   H         1 RES1   0.0000
    85 H50      -1.2795   -6.0015    6.6794   H         1 RES1   0.0000
    86 H51      -1.0583   -7.5537    7.4258   H         1 RES1   0.0000
    87 H52      -2.1186   -8.7300    5.6798   H         1 RES1   0.0000
    88 H53      -2.0024   -7.4002    4.5415   H         1 RES1   0.0000
    89 H54      -3.6158   -6.0899    5.9438   H         1 RES1   0.0000
    90 H55      -3.7575   -7.4627    7.0330   H         1 RES1   0.0000
    91 H56      -4.4369   -7.5162    4.0507   H         1 RES1   0.0000
    92 H57      -5.6114   -7.4635    5.3639   H         1 RES1   0.0000
    93 H58      -4.5865   -8.8777    5.1535   H         1 RES1   0.0000
    94 C30      -2.7649    4.1132   -6.0155   C.3       1 RES1   0.0000
    95 C31      -2.6977    2.9967   -7.0537   C.3       1 RES1   0.0000
    96 C32      -1.3575    2.2521   -7.0626   C.3       1 RES1   0.0000
    97 C33      -1.2607    1.2347   -5.9256   C.3       1 RES1   0.0000
    98 C34       0.0515    0.4510   -5.8593   C.3       1 RES1   0.0000
    99 C35       1.2291    1.3318   -5.4505   C.3       1 RES1   0.0000
   100 C36       2.5596    0.5859   -5.3204   C.3       1 RES1   0.0000
   101 C37       2.7821   -0.1116   -3.9771   C.3       1 RES1   0.0000
   102 N3        1.9704   -1.3144   -3.7693   N.am      1 RES1   0.0000
   103 C38       2.0494   -2.3460   -4.7789   C.3       1 RES1   0.0000
   104 C39       1.2881   -1.4235   -2.6372   C.2       1 RES1   0.0000
   105 O4        1.3827   -0.5493   -1.7516   O.2       1 RES1   0.0000
   106 C40       0.3846   -2.6405   -2.3882   C.3       1 RES1   0.0000
   107 O5       -0.1793   -2.4750   -1.0963   O.3       1 RES1   0.0000
   108 C41      -1.2918   -3.2904   -0.7646   C.3       1 RES1   0.0000
   109 C42      -2.1141   -2.4737    0.2421   C.2       1 RES1   0.0000
   110 O6       -1.7648   -1.2945    0.4308   O.2       1 RES1   0.0000
   111 N4       -3.2035   -2.9536    0.8442   N.am      1 RES1   0.0000
   112 C43      -3.4475   -4.3729    1.0352   C.3       1 RES1   0.0000
   113 C44      -3.4831   -4.8293    2.5047   C.3       1 RES1   0.0000
   114 C45      -2.2977   -4.4147    3.3984   C.3       1 RES1   0.0000
   115 C46      -2.6799   -3.4844    4.5566   C.3       1 RES1   0.0000
   116 C47      -1.5912   -3.3690    5.6262   C.3       1 RES1   0.0000
   117 C48      -1.8661   -2.2509    6.6376   C.3       1 RES1   0.0000
   118 C49      -0.6294   -1.5649    7.2237   C.3       1 RES1   0.0000
   119 C50       0.3460   -2.5088    7.9117   C.3       1 RES1   0.0000
   120 C51      -3.9714   -1.9465    1.6024   C.3       1 RES1   0.0000
   121 C52      -5.4533   -2.2001    1.9403   C.3       1 RES1   0.0000
   122 C53      -5.7455   -2.1152    3.4481   C.3       1 RES1   0.0000
   123 C54      -5.3434   -0.7989    4.1138   C.3       1 RES1   0.0000
   124 C55      -5.3442   -0.9005    5.6430   C.3       1 RES1   0.0000
   125 C56      -4.5915    0.2688    6.2710   C.3       1 RES1   0.0000
   126 C57      -4.3679    0.1591    7.7761   C.3       1 RES1   0.0000
   127 C58      -3.3800    1.2190    8.2464   C.3       1 RES1   0.0000
   128 H59      -3.7616    4.5467   -5.9909   H         1 RES1   0.0000
   129 H60      -2.0623    4.9028   -6.2693   H         1 RES1   0.0000
   130 H61      -2.5269    3.7477   -5.0166   H         1 RES1   0.0000
   131 H62      -2.8626    3.4401   -8.0352   H         1 RES1   0.0000
   132 H63      -3.5076    2.2808   -6.8867   H         1 RES1   0.0000
   133 H64      -0.5500    2.9817   -7.0010   H         1 RES1   0.0000
   134 H65      -1.2555    1.7232   -8.0111   H         1 RES1   0.0000
   135 H66      -2.0763    0.5209   -6.0589   H         1 RES1   0.0000
   136 H67      -1.4116    1.7378   -4.9662   H         1 RES1   0.0000
   137 H68       0.2540   -0.0022   -6.8314   H         1 RES1   0.0000
   138 H69      -0.0765   -0.3501   -5.1260   H         1 RES1   0.0000
   139 H70       0.9942    1.8260   -4.5039   H         1 RES1   0.0000
   140 H71       1.3629    2.1000   -6.2105   H         1 RES1   0.0000
   141 H72       3.3742    1.3047   -5.4285   H         1 RES1   0.0000
   142 H73       2.6609   -0.1219   -6.1418   H         1 RES1   0.0000
   143 H74       2.5327    0.5684   -3.1604   H         1 RES1   0.0000
   144 H75       3.8370   -0.3916   -3.8783   H         1 RES1   0.0000
   145 H76       2.9264   -2.1670   -5.3987   H         1 RES1   0.0000
   146 H77       1.1691   -2.3550   -5.4255   H         1 RES1   0.0000
   147 H78       2.1568   -3.3284   -4.3203   H         1 RES1   0.0000
   148 H79       0.9901   -3.5558   -2.4325   H         1 RES1   0.0000
   149 H80      -0.4017   -2.6983   -3.1540   H         1 RES1   0.0000
   150 H81      -0.9498   -4.2441   -0.3406   H         1 RES1   0.0000
   151 H82      -1.9205   -3.4914   -1.6432   H         1 RES1   0.0000
   152 H83      -2.6514   -4.9069    0.5200   H         1 RES1   0.0000
   153 H84      -4.3915   -4.6596    0.5613   H         1 RES1   0.0000
   154 H85      -3.5120   -5.9188    2.4574   H         1 RES1   0.0000
   155 H86      -4.4183   -4.5072    2.9553   H         1 RES1   0.0000
   156 H87      -1.5031   -3.9682    2.7911   H         1 RES1   0.0000
   157 H88      -1.8933   -5.3164    3.8573   H         1 RES1   0.0000
   158 H89      -3.5769   -3.8860    5.0289   H         1 RES1   0.0000
   159 H90      -2.9137   -2.4794    4.1975   H         1 RES1   0.0000
   160 H91      -0.6284   -3.2040    5.1499   H         1 RES1   0.0000
   161 H92      -1.5190   -4.3222    6.1402   H         1 RES1   0.0000
   162 H93      -2.4557   -2.6475    7.4629   H         1 RES1   0.0000
   163 H94      -2.4648   -1.4816    6.1493   H         1 RES1   0.0000
   164 H95      -0.9844   -0.8376    7.9551   H         1 RES1   0.0000
   165 H96      -0.1067   -1.0093    6.4389   H         1 RES1   0.0000
   166 H97      -0.1930   -3.1966    8.5546   H         1 RES1   0.0000
   167 H98       1.0498   -1.9479    8.5208   H         1 RES1   0.0000
   168 H99       0.9155   -3.0904    7.1912   H         1 RES1   0.0000
   169 H100     -3.8852   -1.0294    1.0147   H         1 RES1   0.0000
   170 H101     -3.4242   -1.7818    2.5283   H         1 RES1   0.0000
   171 H102     -5.7876   -3.1723    1.5786   H         1 RES1   0.0000
   172 H103     -6.0615   -1.4518    1.4279   H         1 RES1   0.0000
   173 H104     -5.2433   -2.9356    3.9565   H         1 RES1   0.0000
   174 H105     -6.8133   -2.2654    3.5928   H         1 RES1   0.0000
   175 H106     -6.0224   -0.0077    3.7994   H         1 RES1   0.0000
   176 H107     -4.3425   -0.5007    3.7879   H         1 RES1   0.0000
   177 H108     -4.8695   -1.8342    5.9477   H         1 RES1   0.0000
   178 H109     -6.3650   -0.9282    6.0170   H         1 RES1   0.0000
   179 H110     -5.1276    1.1955    6.0628   H         1 RES1   0.0000
   180 H111     -3.6100    0.3347    5.7908   H         1 RES1   0.0000
   181 H112     -3.9809   -0.8278    8.0276   H         1 RES1   0.0000
   182 H113     -5.3143    0.2848    8.2970   H         1 RES1   0.0000
   183 H114     -3.2202    1.1498    9.3161   H         1 RES1   0.0000
   184 H115     -3.7498    2.2162    8.0294   H         1 RES1   0.0000
   185 H116     -2.4159    1.1014    7.7541   H         1 RES1   0.0000
   186 C59      -2.6266   -6.8828   -1.9177   C.3       1 RES1   0.0000
   187 C60      -3.7892   -7.0274   -2.8912   C.3       1 RES1   0.0000
   188 C61      -3.8528   -5.9132   -3.9374   C.3       1 RES1   0.0000
   189 C62      -4.3454   -4.5783   -3.3785   C.3       1 RES1   0.0000
   190 C63      -4.3303   -3.4856   -4.4465   C.3       1 RES1   0.0000
   191 C64      -5.2152   -2.2893   -4.1009   C.3       1 RES1   0.0000
   192 C65      -4.6310   -1.3530   -3.0403   C.3       1 RES1   0.0000
   193 C66      -3.4559   -0.5577   -3.6086   C.3       1 RES1   0.0000
   194 N5       -3.2682    0.7490   -2.9939   N.am      1 RES1   0.0000
   195 C67      -4.2209    1.7516   -3.4134   C.3       1 RES1   0.0000
   196 C68      -2.1547    0.9807   -2.3146   C.2       1 RES1   0.0000
   197 O7       -1.3785    0.0635   -1.9905   O.2       1 RES1   0.0000
   198 C69      -1.7648    2.4220   -1.9810   C.3       1 RES1   0.0000
   199 O8       -0.5343    2.3192   -1.3007   O.3       1 RES1   0.0000
   200 C70       0.1104    3.5637   -1.0773   C.3       1 RES1   0.0000
   201 C71       1.5365    3.1669   -0.6451   C.2       1 RES1   0.0000
   202 O9        1.7170    1.9628   -0.3684   O.2       1 RES1   0.0000
   203 N6        2.5025    4.0817   -0.6789   N.am      1 RES1   0.0000
   204 C72       3.9267    3.7170   -0.6901   C.3       1 RES1   0.0000
   205 C73       4.2403    2.5481   -1.6180   C.3       1 RES1   0.0000
   206 C74       5.7441    2.2871   -1.7119   C.3       1 RES1   0.0000
   207 C75       6.4083    1.8840   -0.3975   C.3       1 RES1   0.0000
   208 C76       5.8405    0.6267    0.2694   C.3       1 RES1   0.0000
   209 C77       6.3446   -0.7058   -0.3033   C.3       1 RES1   0.0000
   210 C78       5.5309   -1.3006   -1.4566   C.3       1 RES1   0.0000
   211 C79       4.1902   -1.8696   -0.9985   C.3       1 RES1   0.0000
   212 C80       2.2767    5.5109   -0.4475   C.3       1 RES1   0.0000
   213 C81       2.9085    5.9196    0.9121   C.3       1 RES1   0.0000
   214 C82       2.1099    6.9915    1.6710   C.3       1 RES1   0.0000
   215 C83       2.7654    7.2845    3.0439   C.3       1 RES1   0.0000
   216 C84       1.8957    7.0547    4.2977   C.3       1 RES1   0.0000
   217 C85       2.4340    5.9213    5.1730   C.3       1 RES1   0.0000
   218 C86       1.4999    5.5192    6.3154   C.3       1 RES1   0.0000
   219 C87       1.9082    4.1530    6.8545   C.3       1 RES1   0.0000
   220 H117     -2.6358   -7.6908   -1.1928   H         1 RES1   0.0000
   221 H118     -2.6918   -5.9428   -1.3760   H         1 RES1   0.0000
   222 H119     -1.6804   -6.9148   -2.4496   H         1 RES1   0.0000
   223 H120     -4.7295   -7.0547   -2.3389   H         1 RES1   0.0000
   224 H121     -3.6898   -7.9801   -3.4088   H         1 RES1   0.0000
   225 H122     -4.5396   -6.2201   -4.7282   H         1 RES1   0.0000
   226 H123     -2.8703   -5.7836   -4.3934   H         1 RES1   0.0000
   227 H124     -3.7337   -4.2735   -2.5231   H         1 RES1   0.0000
   228 H125     -5.3661   -4.7128   -3.0180   H         1 RES1   0.0000
   229 H126     -4.6889   -3.9112   -5.3828   H         1 RES1   0.0000
   230 H127     -3.3056   -3.1562   -4.6222   H         1 RES1   0.0000
   231 H128     -6.1796   -2.6554   -3.7536   H         1 RES1   0.0000
   232 H129     -5.4037   -1.7081   -5.0052   H         1 RES1   0.0000
   233 H130     -4.3079   -1.9074   -2.1587   H         1 RES1   0.0000
   234 H131     -5.4122   -0.6608   -2.7204   H         1 RES1   0.0000
   235 H132     -3.6274   -0.3804   -4.6737   H         1 RES1   0.0000
   236 H133     -2.5113   -1.0890   -3.4882   H         1 RES1   0.0000
   237 H134     -5.2357    1.4176   -3.1861   H         1 RES1   0.0000
   238 H135     -4.1515    1.8892   -4.4943   H         1 RES1   0.0000
   239 H136     -4.0366    2.6972   -2.9165   H         1 RES1   0.0000
   240 H137     -2.5088    2.9337   -1.3531   H         1 RES1   0.0000
   241 H138     -1.6508    2.9758   -2.9294   H         1 RES1   0.0000
   242 H139     -0.4453    4.1322   -0.3169   H         1 RES1   0.0000
   243 H140      0.1739    4.1451   -2.0092   H         1 RES1   0.0000
   244 H141      4.2735    3.5160    0.3261   H         1 RES1   0.0000
   245 H142      4.4508    4.6025   -1.0561   H         1 RES1   0.0000
   246 H143      3.8651    2.7926   -2.6143   H         1 RES1   0.0000
   247 H144      3.7265    1.6516   -1.2728   H         1 RES1   0.0000
   248 H145      6.2398    3.1825   -2.0889   H         1 RES1   0.0000
   249 H146      5.9071    1.5006   -2.4448   H         1 RES1   0.0000
   250 H147      6.3327    2.7155    0.3042   H         1 RES1   0.0000
   251 H148      7.4701    1.7350   -0.5948   H         1 RES1   0.0000
   252 H149      4.7502    0.6499    0.2393   H         1 RES1   0.0000
   253 H150      6.1390    0.6620    1.3200   H         1 RES1   0.0000
   254 H151      6.3456   -1.4415    0.5059   H         1 RES1   0.0000
   255 H152      7.3798   -0.5815   -0.6282   H         1 RES1   0.0000
   256 H153      6.1226   -2.1124   -1.8872   H         1 RES1   0.0000
   257 H154      5.3767   -0.5541   -2.2371   H         1 RES1   0.0000
   258 H155      4.3545   -2.5353   -0.1532   H         1 RES1   0.0000
   259 H156      3.7338   -2.4421   -1.8052   H         1 RES1   0.0000
   260 H157      3.4908   -1.0881   -0.6927   H         1 RES1   0.0000
   261 H158      1.2050    5.7182   -0.4294   H         1 RES1   0.0000
   262 H159      2.7163    6.0927   -1.2669   H         1 RES1   0.0000
   263 H160      3.9250    6.2946    0.7582   H         1 RES1   0.0000
   264 H161      2.9787    5.0282    1.5413   H         1 RES1   0.0000
   265 H162      1.0716    6.6692    1.7995   H         1 RES1   0.0000
   266 H163      2.0853    7.9034    1.0691   H         1 RES1   0.0000
   267 H164      3.1188    8.3134    3.0534   H         1 RES1   0.0000
   268 H165      3.6598    6.6668    3.1450   H         1 RES1   0.0000
   269 H166      0.8644    6.8358    4.0122   H         1 RES1   0.0000
   270 H167      1.8760    7.9670    4.8944   H         1 RES1   0.0000
   271 H168      3.3914    6.2289    5.5950   H         1 RES1   0.0000
   272 H169      2.6220    5.0368    4.5593   H         1 RES1   0.0000
   273 H170      0.4654    5.4746    5.9664   H         1 RES1   0.0000
   274 H171      1.5463    6.2552    7.1193   H         1 RES1   0.0000
   275 H172      1.7582    3.3779    6.1019   H         1 RES1   0.0000
   276 H173      1.3382    3.8812    7.7377   H         1 RES1   0.0000
   277 H174      2.9613    4.1649    7.1214   H         1 RES1   0.0000
@<TRIPOS>BOND
     1     1    13    1
     2     1    15    1
     3     1    18    1
     4     1   105    1
     5     1   107    1
     6     1   110    1
     7     1   197    1
     8     1   199    1
     9     1   202    1
    10     2     3    1
    11     2    36    1
    12     2    37    1
    13     2    38    1
    14     3     4    1
    15     3    39    1
    16     3    40    1
    17     4     5    1
    18     4    41    1
    19     4    42    1
    20     5     6    1
    21     5    43    1
    22     5    44    1
    23     6     7    1
    24     6    45    1
    25     6    46    1
    26     7     8    1
    27     7    47    1
    28     7    48    1
    29     8     9    1
    30     8    49    1
    31     8    50    1
    32     9    10    1
    33     9    51    1
    34     9    52    1
    35    10    11    1
    36    10    12    1
    37    11    53    1
    38    11    54    1
    39    11    55    1
    40    12    13    2
    41    12    14    1
    42    14    15    1
    43    14    56    1
    44    14    57    1
    45    15    16    1
    46    16    17    1
    47    16    58    1
    48    16    59    1
    49    17    18    2
    50    17    19    1
    51    19    20    1
    52    19    28    1
    53    20    21    1
    54    20    60    1
    55    20    61    1
    56    21    22    1
    57    21    62    1
    58    21    63    1
    59    22    23    1
    60    22    64    1
    61    22    65    1
    62    23    24    1
    63    23    66    1
    64    23    67    1
    65    24    25    1
    66    24    68    1
    67    24    69    1
    68    25    26    1
    69    25    70    1
    70    25    71    1
    71    26    27    1
    72    26    72    1
    73    26    73    1
    74    27    74    1
    75    27    75    1
    76    27    76    1
    77    28    29    1
    78    28    77    1
    79    28    78    1
    80    29    30    1
    81    29    79    1
    82    29    80    1
    83    30    31    1
    84    30    81    1
    85    30    82    1
    86    31    32    1
    87    31    83    1
    88    31    84    1
    89    32    33    1
    90    32    85    1
    91    32    86    1
    92    33    34    1
    93    33    87    1
    94    33    88    1
    95    34    35    1
    96    34    89    1
    97    34    90    1
    98    35    91    1
    99    35    92    1
   100    35    93    1
   101    94    95    1
   102    94   128    1
   103    94   129    1
   104    94   130    1
   105    95    96    1
   106    95   131    1
   107    95   132    1
   108    96    97    1
   109    96   133    1
   110    96   134    1
   111    97    98    1
   112    97   135    1
   113    97   136    1
   114    98    99    1
   115    98   137    1
   116    98   138    1
   117    99   100    1
   118    99   139    1
   119    99   140    1
   120   100   101    1
   121   100   141    1
   122   100   142    1
   123   101   102    1
   124   101   143    1
   125   101   144    1
   126   102   103    1
   127   102   104    1
   128   103   145    1
   129   103   146    1
   130   103   147    1
   131   104   105    2
   132   104   106    1
   133   106   107    1
   134   106   148    1
   135   106   149    1
   136   107   108    1
   137   108   109    1
   138   108   150    1
   139   108   151    1
   140   109   110    2
   141   109   111    1
   142   111   112    1
   143   111   120    1
   144   112   113    1
   145   112   152    1
   146   112   153    1
   147   113   114    1
   148   113   154    1
   149   113   155    1
   150   114   115    1
   151   114   156    1
   152   114   157    1
   153   115   116    1
   154   115   158    1
   155   115   159    1
   156   116   117    1
   157   116   160    1
   158   116   161    1
   159   117   118    1
   160   117   162    1
   161   117   163    1
   162   118   119    1
   163   118   164    1
   164   118   165    1
   165   119   166    1
   166   119   167    1
   167   119   168    1
   168   120   121    1
   169   120   169    1
   170   120   170    1
   171   121   122    1
   172   121   171    1
   173   121   172    1
   174   122   123    1
   175   122   173    1
   176   122   174    1
   177   123   124    1
   178   123   175    1
   179   123   176    1
   180   124   125    1
   181   124   177    1
   182   124   178    1
   183   125   126    1
   184   125   179    1
   185   125   180    1
   186   126   127    1
   187   126   181    1
   188   126   182    1
   189   127   183    1
   190   127   184    1
   191   127   185    1
   192   186   187    1
   193   186   220    1
   194   186   221    1
   195   186   222    1
   196   187   188    1
   197   187   223    1
   198   187   224    1
   199   188   189    1
   200   188   225    1
   201   188   226    1
   202   189   190    1
   203   189   227    1
   204   189   228    1
   205   190   191    1
   206   190   229    1
   207   190   230    1
   208   191   192    1
   209   191   231    1
   210   191   232    1
   211   192   193    1
   212   192   233    1
   213   192   234    1
   214   193   194    1
   215   193   235    1
   216   193   236    1
   217   194   195    1
   218   194   196    1
   219   195   237    1
   220   195   238    1
   221   195   239    1
   222   196   197    2
   223   196   198    1
   224   198   199    1
   225   198   240    1
   226   198   241    1
   227   199   200    1
   228   200   201    1
   229   200   242    1
   230   200   243    1
   231   201   202    2
   232   201   203    1
   233   203   204    1
   234   203   212    1
   235   204   205    1
   236   204   244    1
   237   204   245    1
   238   205   206    1
   239   205   246    1
   240   205   247    1
   241   206   207    1
   242   206   248    1
   243   206   249    1
   244   207   208    1
   245   207   250    1
   246   207   251    1
   247   208   209    1
   248   208   252    1
   249   208   253    1
   250   209   210    1
   251   209   254    1
   252   209   255    1
   253   210   211    1
   254   210   256    1
   255   210   257    1
   256   211   258    1
   257   211   259    1
   258   211   260    1
   259   212   213    1
   260   212   261    1
   261   212   262    1
   262   213   214    1
   263   213   263    1
   264   213   264    1
   265   214   215    1
   266   214   265    1
   267   214   266    1
   268   215   216    1
   269   215   267    1
   270   215   268    1
   271   216   217    1
   272   216   269    1
   273   216   270    1
   274   217   218    1
   275   217   271    1
   276   217   272    1
   277   218   219    1
   278   218   273    1
   279   218   274    1
   280   219   275    1
   281   219   276    1
   282   219   277    1
@<TRIPOS>SUBSTRUCTURE
     1 RES1      277 GROUP             0 ****  ****    0  
