@<TRIPOS>MOLECULE
tricapped_trigonal_prismatic_0_nunpairedes_0_charge_3 Charge: 3 Unpaired_Electrons: 0 XTB_Unpaired_Electrons: 0 XTB_Charge: 3
   412   417     1     0     0
SMALL
NoCharges
****
Generated from Architector

@<TRIPOS>ATOM
     1 La1      -0.1697   -0.0503   -0.0141   La        1 RES1   0.0000
     2 C1       -3.5472    5.9286    9.8614   C.3       1 RES1   0.0000
     3 C2       -3.6366    4.4085    9.8390   C.3       1 RES1   0.0000
     4 C3       -4.3822    3.8704    8.6176   C.3       1 RES1   0.0000
     5 C4       -4.6216    2.3708    8.7775   C.3       1 RES1   0.0000
     6 C5       -5.3095    1.6614    7.6080   C.3       1 RES1   0.0000
     7 C6       -4.3633    0.9420    6.6462   C.3       1 RES1   0.0000
     8 C7       -3.8334    1.7809    5.4777   C.3       1 RES1   0.0000
     9 C8       -2.7795    0.9323    4.7679   C.3       1 RES1   0.0000
    10 N1       -2.1231    1.4948    3.5886   N.am      1 RES1   0.0000
    11 C9       -1.7578    2.9239    3.4653   C.3       1 RES1   0.0000
    12 C10      -0.2239    3.1270    3.6233   C.3       1 RES1   0.0000
    13 C11       0.1851    4.5255    4.1433   C.3       1 RES1   0.0000
    14 C12       1.6872    4.9584    4.2148   C.3       1 RES1   0.0000
    15 C13       2.8418    4.2039    4.9642   C.3       1 RES1   0.0000
    16 C14       4.1057    4.4158    4.1161   C.3       1 RES1   0.0000
    17 C15       3.1987    4.6407    6.4246   C.3       1 RES1   0.0000
    18 C16       3.6136    3.4768    7.3607   C.3       1 RES1   0.0000
    19 C17       4.1417    3.8966    8.7522   C.3       1 RES1   0.0000
    20 C18       4.0587    2.8736    9.9287   C.3       1 RES1   0.0000
    21 C19       2.8295    3.0300   10.8342   C.3       1 RES1   0.0000
    22 C20       4.1265    1.4123    9.4963   C.3       1 RES1   0.0000
    23 C21      -1.6455    0.6783    2.6528   C.2       1 RES1   0.0000
    24 O1       -1.1650    1.1331    1.6065   O.2       1 RES1   0.0000
    25 C22      -1.5824   -0.8396    2.9677   C.3       1 RES1   0.0000
    26 O2       -0.9542   -1.5280    1.8989   O.3       1 RES1   0.0000
    27 C23      -0.2713   -2.7270    2.2481   C.3       1 RES1   0.0000
    28 C24       0.8325   -2.9057    1.1875   C.2       1 RES1   0.0000
    29 O3        1.0390   -1.9450    0.4193   O.2       1 RES1   0.0000
    30 N2        1.5757   -4.0013    1.1192   N.am      1 RES1   0.0000
    31 C25       1.3322   -5.2165    1.8866   C.3       1 RES1   0.0000
    32 C26       1.4091   -6.4986    1.0495   C.3       1 RES1   0.0000
    33 C27       0.5028   -6.5030   -0.1826   C.3       1 RES1   0.0000
    34 C28      -0.9822   -6.6532    0.1534   C.3       1 RES1   0.0000
    35 C29      -1.8328   -7.0042   -1.0712   C.3       1 RES1   0.0000
    36 C30      -1.8034   -5.9252   -2.1529   C.3       1 RES1   0.0000
    37 C31      -2.8160   -6.1638   -3.2772   C.3       1 RES1   0.0000
    38 C32      -4.2734   -6.0118   -2.8523   C.3       1 RES1   0.0000
    39 C33       2.7312   -3.9499    0.2113   C.3       1 RES1   0.0000
    40 C34       3.8718   -3.0871    0.7717   C.3       1 RES1   0.0000
    41 C35       4.7272   -3.7566    1.8522   C.3       1 RES1   0.0000
    42 C36       5.6277   -4.8924    1.3558   C.3       1 RES1   0.0000
    43 C37       6.7272   -4.4463    0.3704   C.3       1 RES1   0.0000
    44 C38       8.0500   -5.1272    0.7228   C.3       1 RES1   0.0000
    45 C39       6.3479   -4.7576   -1.0864   C.3       1 RES1   0.0000
    46 C40       7.1414   -3.9271   -2.0958   C.3       1 RES1   0.0000
    47 C41       6.7445   -4.2428   -3.5382   C.3       1 RES1   0.0000
    48 C42       7.6186   -3.5120   -4.5632   C.3       1 RES1   0.0000
    49 C43       7.3860   -2.0048   -4.5327   C.3       1 RES1   0.0000
    50 C44       7.3488   -4.0538   -5.9625   C.3       1 RES1   0.0000
    51 H1       -2.8961    6.2541   10.6693   H         1 RES1   0.0000
    52 H2       -4.5302    6.3643   10.0150   H         1 RES1   0.0000
    53 H3       -3.1481    6.3164    8.9263   H         1 RES1   0.0000
    54 H4       -4.1594    4.0760   10.7375   H         1 RES1   0.0000
    55 H5       -2.6288    3.9894    9.8689   H         1 RES1   0.0000
    56 H6       -3.8121    4.0814    7.7075   H         1 RES1   0.0000
    57 H7       -5.3358    4.3953    8.5439   H         1 RES1   0.0000
    58 H8       -5.2452    2.2328    9.6595   H         1 RES1   0.0000
    59 H9       -3.6648    1.8845    8.9794   H         1 RES1   0.0000
    60 H10      -5.9371    2.3604    7.0607   H         1 RES1   0.0000
    61 H11      -5.9622    0.8973    8.0265   H         1 RES1   0.0000
    62 H12      -4.8878    0.0798    6.2341   H         1 RES1   0.0000
    63 H13      -3.5200    0.5636    7.2251   H         1 RES1   0.0000
    64 H14      -3.4349    2.7176    5.8503   H         1 RES1   0.0000
    65 H15      -4.6559    2.0099    4.7981   H         1 RES1   0.0000
    66 H16      -3.2971    0.0240    4.4526   H         1 RES1   0.0000
    67 H17      -2.0178    0.6232    5.4955   H         1 RES1   0.0000
    68 H18      -2.2962    3.4760    4.2306   H         1 RES1   0.0000
    69 H19      -2.0898    3.2627    2.4799   H         1 RES1   0.0000
    70 H20       0.2531    2.9111    2.6594   H         1 RES1   0.0000
    71 H21       0.0929    2.3757    4.3321   H         1 RES1   0.0000
    72 H22      -0.2651    4.6825    5.1171   H         1 RES1   0.0000
    73 H23      -0.2769    5.2654    3.4810   H         1 RES1   0.0000
    74 H24       1.6827    5.9843    4.5997   H         1 RES1   0.0000
    75 H25       2.0206    5.0303    3.1759   H         1 RES1   0.0000
    76 H26       2.6231    3.1370    4.9766   H         1 RES1   0.0000
    77 H27       4.2364    5.4866    3.9567   H         1 RES1   0.0000
    78 H28       4.0479    3.9197    3.1443   H         1 RES1   0.0000
    79 H29       4.9822    4.0342    4.6344   H         1 RES1   0.0000
    80 H30       2.3639    5.1622    6.8844   H         1 RES1   0.0000
    81 H31       4.0336    5.3460    6.3677   H         1 RES1   0.0000
    82 H32       4.3923    2.8900    6.8709   H         1 RES1   0.0000
    83 H33       2.7567    2.8367    7.5068   H         1 RES1   0.0000
    84 H34       3.6011    4.7742    9.0936   H         1 RES1   0.0000
    85 H35       5.1905    4.1827    8.6533   H         1 RES1   0.0000
    86 H36       4.9245    3.0751   10.5714   H         1 RES1   0.0000
    87 H37       1.9487    2.5832   10.3795   H         1 RES1   0.0000
    88 H38       2.6067    4.0725   11.0470   H         1 RES1   0.0000
    89 H39       3.0006    2.5176   11.7828   H         1 RES1   0.0000
    90 H40       3.1810    1.0772    9.0813   H         1 RES1   0.0000
    91 H41       4.3379    0.7740   10.3520   H         1 RES1   0.0000
    92 H42       4.8911    1.2612    8.7465   H         1 RES1   0.0000
    93 H43      -2.5635   -1.3024    3.1474   H         1 RES1   0.0000
    94 H44      -0.9853   -0.9195    3.8872   H         1 RES1   0.0000
    95 H45      -0.9809   -3.5712    2.2848   H         1 RES1   0.0000
    96 H46       0.1998   -2.6388    3.2410   H         1 RES1   0.0000
    97 H47       0.3403   -5.1456    2.3291   H         1 RES1   0.0000
    98 H48       2.0619   -5.2864    2.6982   H         1 RES1   0.0000
    99 H49       1.1294   -7.3255    1.7013   H         1 RES1   0.0000
   100 H50       2.4368   -6.6868    0.7398   H         1 RES1   0.0000
   101 H51       0.7930   -7.3440   -0.8161   H         1 RES1   0.0000
   102 H52       0.6685   -5.5849   -0.7508   H         1 RES1   0.0000
   103 H53      -1.3611   -5.7296    0.6052   H         1 RES1   0.0000
   104 H54      -1.0921   -7.4551    0.8872   H         1 RES1   0.0000
   105 H55      -2.8602   -7.1503   -0.7385   H         1 RES1   0.0000
   106 H56      -1.4858   -7.9487   -1.4950   H         1 RES1   0.0000
   107 H57      -0.8043   -5.8998   -2.5962   H         1 RES1   0.0000
   108 H58      -1.9900   -4.9512   -1.6832   H         1 RES1   0.0000
   109 H59      -2.6637   -7.1693   -3.6734   H         1 RES1   0.0000
   110 H60      -2.6122   -5.4541   -4.0854   H         1 RES1   0.0000
   111 H61      -4.5527   -6.7583   -2.1129   H         1 RES1   0.0000
   112 H62      -4.9149   -6.1452   -3.7191   H         1 RES1   0.0000
   113 H63      -4.4630   -5.0201   -2.4383   H         1 RES1   0.0000
   114 H64       2.3976   -3.5098   -0.7369   H         1 RES1   0.0000
   115 H65       3.0872   -4.9619    0.0297   H         1 RES1   0.0000
   116 H66       3.4364   -2.1575    1.1549   H         1 RES1   0.0000
   117 H67       4.5285   -2.8319   -0.0596   H         1 RES1   0.0000
   118 H68       4.0898   -4.1359    2.6531   H         1 RES1   0.0000
   119 H69       5.3703   -2.9887    2.2859   H         1 RES1   0.0000
   120 H70       5.0241   -5.6765    0.8970   H         1 RES1   0.0000
   121 H71       6.1056   -5.3297    2.2345   H         1 RES1   0.0000
   122 H72       6.8696   -3.3625    0.4664   H         1 RES1   0.0000
   123 H73       7.9548   -6.2073    0.6355   H         1 RES1   0.0000
   124 H74       8.3419   -4.8908    1.7436   H         1 RES1   0.0000
   125 H75       8.8450   -4.8032    0.0564   H         1 RES1   0.0000
   126 H76       5.2825   -4.5689   -1.2477   H         1 RES1   0.0000
   127 H77       6.5187   -5.8190   -1.2780   H         1 RES1   0.0000
   128 H78       8.2088   -4.1265   -1.9829   H         1 RES1   0.0000
   129 H79       6.9747   -2.8659   -1.8873   H         1 RES1   0.0000
   130 H80       5.6914   -3.9863   -3.7066   H         1 RES1   0.0000
   131 H81       6.8502   -5.3184   -3.6983   H         1 RES1   0.0000
   132 H82       8.6654   -3.7042   -4.3119   H         1 RES1   0.0000
   133 H83       7.6626   -1.5808   -3.5725   H         1 RES1   0.0000
   134 H84       6.3375   -1.7775   -4.7152   H         1 RES1   0.0000
   135 H85       7.9779   -1.5133   -5.2990   H         1 RES1   0.0000
   136 H86       6.3166   -3.8708   -6.2516   H         1 RES1   0.0000
   137 H87       7.5270   -5.1241   -5.9999   H         1 RES1   0.0000
   138 H88       7.9983   -3.5768   -6.6899   H         1 RES1   0.0000
   139 C45       7.6990    1.1954   -8.8765   C.3       1 RES1   0.0000
   140 C46       6.2721    0.6951   -9.0752   C.3       1 RES1   0.0000
   141 C47       5.9256   -0.4408   -8.1121   C.3       1 RES1   0.0000
   142 C48       4.4411   -0.7963   -8.1583   C.3       1 RES1   0.0000
   143 C49       4.0829   -1.9903   -7.2704   C.3       1 RES1   0.0000
   144 C50       2.5779   -2.0794   -7.0042   C.3       1 RES1   0.0000
   145 C51       2.2155   -3.1589   -5.9669   C.3       1 RES1   0.0000
   146 C52       1.0876   -2.7753   -4.9993   C.3       1 RES1   0.0000
   147 N3        1.4350   -1.8439   -3.9155   N.am      1 RES1   0.0000
   148 C53       2.7238   -1.1497   -3.8911   C.3       1 RES1   0.0000
   149 C54       2.6245    0.3866   -3.9493   C.3       1 RES1   0.0000
   150 C55       1.5751    0.8954   -4.9529   C.3       1 RES1   0.0000
   151 C56       0.2661    1.3992   -4.3201   C.3       1 RES1   0.0000
   152 C57      -1.0008    0.8000   -4.9540   C.3       1 RES1   0.0000
   153 C58      -2.1934    0.7770   -3.9910   C.3       1 RES1   0.0000
   154 C59      -1.4284    1.5157   -6.2464   C.3       1 RES1   0.0000
   155 C60      -0.6714    1.0335   -7.4826   C.3       1 RES1   0.0000
   156 C61      -1.1960    1.6687   -8.7704   C.3       1 RES1   0.0000
   157 C62      -0.5220    1.1424  -10.0482   C.3       1 RES1   0.0000
   158 C63       0.9539    1.5309  -10.1131   C.3       1 RES1   0.0000
   159 C64      -0.6853   -0.3683  -10.2150   C.3       1 RES1   0.0000
   160 C65       0.5994   -1.5753   -2.9187   C.2       1 RES1   0.0000
   161 O4        0.9007   -0.7833   -2.0034   O.2       1 RES1   0.0000
   162 C66      -0.7719   -2.2606   -2.8821   C.3       1 RES1   0.0000
   163 O5       -1.4157   -1.7755   -1.7142   O.3       1 RES1   0.0000
   164 C67      -2.8002   -2.0778   -1.6035   C.3       1 RES1   0.0000
   165 C68      -3.3041   -1.1919   -0.4552   C.2       1 RES1   0.0000
   166 O6       -2.4805   -0.3923    0.0275   O.2       1 RES1   0.0000
   167 N4       -4.5521   -1.2539   -0.0125   N.am      1 RES1   0.0000
   168 C69      -5.5652   -2.1241   -0.5947   C.3       1 RES1   0.0000
   169 C70      -6.5302   -2.7601    0.4124   C.3       1 RES1   0.0000
   170 C71      -5.8712   -3.4526    1.6060   C.3       1 RES1   0.0000
   171 C72      -4.8437   -4.5098    1.2013   C.3       1 RES1   0.0000
   172 C73      -4.3973   -5.3877    2.3727   C.3       1 RES1   0.0000
   173 C74      -3.6764   -4.5955    3.4624   C.3       1 RES1   0.0000
   174 C75      -3.0867   -5.4726    4.5706   C.3       1 RES1   0.0000
   175 C76      -1.9990   -6.4270    4.0857   C.3       1 RES1   0.0000
   176 C77      -4.9622   -0.2895    1.0145   C.3       1 RES1   0.0000
   177 C78      -4.9070    1.1676    0.5494   C.3       1 RES1   0.0000
   178 C79      -6.0297    1.5070   -0.4277   C.3       1 RES1   0.0000
   179 C80      -7.4062    1.5992    0.2326   C.3       1 RES1   0.0000
   180 C81      -7.5700    2.8680    1.0938   C.3       1 RES1   0.0000
   181 C82      -8.7955    3.6461    0.6206   C.3       1 RES1   0.0000
   182 C83      -7.6628    2.5442    2.5936   C.3       1 RES1   0.0000
   183 C84      -7.4579    3.7920    3.4555   C.3       1 RES1   0.0000
   184 C85      -7.7511    3.5757    4.9398   C.3       1 RES1   0.0000
   185 C86      -7.6594    4.8831    5.7382   C.3       1 RES1   0.0000
   186 C87      -6.2323    5.4236    5.7759   C.3       1 RES1   0.0000
   187 C88      -8.1943    4.6849    7.1529   C.3       1 RES1   0.0000
   188 H89       7.9353    1.9747   -9.5964   H         1 RES1   0.0000
   189 H90       8.4110    0.3858   -9.0139   H         1 RES1   0.0000
   190 H91       7.8434    1.6075   -7.8786   H         1 RES1   0.0000
   191 H92       6.1604    0.3398  -10.1022   H         1 RES1   0.0000
   192 H93       5.5803    1.5298   -8.9345   H         1 RES1   0.0000
   193 H94       6.1968   -0.1530   -7.0929   H         1 RES1   0.0000
   194 H95       6.5213   -1.3154   -8.3737   H         1 RES1   0.0000
   195 H96       4.1581   -1.0136   -9.1872   H         1 RES1   0.0000
   196 H97       3.8634    0.0779   -7.8445   H         1 RES1   0.0000
   197 H98       4.6191   -1.8930   -6.3212   H         1 RES1   0.0000
   198 H99       4.4164   -2.9170   -7.7396   H         1 RES1   0.0000
   199 H100      2.0650   -2.2875   -7.9428   H         1 RES1   0.0000
   200 H101      2.2276   -1.1037   -6.6713   H         1 RES1   0.0000
   201 H102      3.0958   -3.4584   -5.3975   H         1 RES1   0.0000
   202 H103      1.8855   -4.0530   -6.4982   H         1 RES1   0.0000
   203 H104      0.7212   -3.6969   -4.5384   H         1 RES1   0.0000
   204 H105      0.2620   -2.3488   -5.5791   H         1 RES1   0.0000
   205 H106      3.3200   -1.5010   -4.7280   H         1 RES1   0.0000
   206 H107      3.2380   -1.4281   -2.9657   H         1 RES1   0.0000
   207 H108      3.6194    0.7375   -4.2348   H         1 RES1   0.0000
   208 H109      2.4203    0.7854   -2.9530   H         1 RES1   0.0000
   209 H110      1.3385    0.0828   -5.6367   H         1 RES1   0.0000
   210 H111      2.0240    1.6903   -5.5455   H         1 RES1   0.0000
   211 H112      0.2352    2.4872   -4.3950   H         1 RES1   0.0000
   212 H113      0.2739    1.1464   -3.2588   H         1 RES1   0.0000
   213 H114     -0.7661   -0.2435   -5.1988   H         1 RES1   0.0000
   214 H115     -2.6596    1.7564   -3.9276   H         1 RES1   0.0000
   215 H116     -1.9048    0.4714   -2.9820   H         1 RES1   0.0000
   216 H117     -2.9543    0.0971   -4.3738   H         1 RES1   0.0000
   217 H118     -1.3163    2.5971   -6.1252   H         1 RES1   0.0000
   218 H119     -2.4902    1.3241   -6.4130   H         1 RES1   0.0000
   219 H120     -0.7753   -0.0519   -7.5543   H         1 RES1   0.0000
   220 H121      0.3859    1.2661   -7.3821   H         1 RES1   0.0000
   221 H122     -1.0483    2.7505   -8.7200   H         1 RES1   0.0000
   222 H123     -2.2717    1.4936   -8.8477   H         1 RES1   0.0000
   223 H124     -1.0330    1.6208  -10.8910   H         1 RES1   0.0000
   224 H125      1.5330    1.0335   -9.3365   H         1 RES1   0.0000
   225 H126      1.0739    2.6067  -10.0092   H         1 RES1   0.0000
   226 H127      1.3688    1.2416  -11.0737   H         1 RES1   0.0000
   227 H128     -0.0858   -0.9145   -9.4897   H         1 RES1   0.0000
   228 H129     -0.3596   -0.6702  -11.2068   H         1 RES1   0.0000
   229 H130     -1.7252   -0.6641  -10.0943   H         1 RES1   0.0000
   230 H131     -0.6557   -3.3523   -2.8301   H         1 RES1   0.0000
   231 H132     -1.3616   -2.0171   -3.7755   H         1 RES1   0.0000
   232 H133     -2.9411   -3.1489   -1.3997   H         1 RES1   0.0000
   233 H134     -3.3260   -1.8243   -2.5337   H         1 RES1   0.0000
   234 H135     -5.0578   -2.9166   -1.1410   H         1 RES1   0.0000
   235 H136     -6.1558   -1.5430   -1.3111   H         1 RES1   0.0000
   236 H137     -7.1121   -3.4964   -0.1409   H         1 RES1   0.0000
   237 H138     -7.2447   -2.0219    0.7766   H         1 RES1   0.0000
   238 H139     -6.6615   -3.9325    2.1876   H         1 RES1   0.0000
   239 H140     -5.3995   -2.7057    2.2464   H         1 RES1   0.0000
   240 H141     -3.9640   -4.0149    0.7723   H         1 RES1   0.0000
   241 H142     -5.2827   -5.1520    0.4339   H         1 RES1   0.0000
   242 H143     -3.7290   -6.1567    1.9846   H         1 RES1   0.0000
   243 H144     -5.2650   -5.8888    2.8039   H         1 RES1   0.0000
   244 H145     -4.3812   -3.9010    3.9237   H         1 RES1   0.0000
   245 H146     -2.8734   -4.0031    3.0022   H         1 RES1   0.0000
   246 H147     -3.8886   -6.0504    5.0325   H         1 RES1   0.0000
   247 H148     -2.6660   -4.8193    5.3416   H         1 RES1   0.0000
   248 H149     -2.4136   -7.2167    3.4644   H         1 RES1   0.0000
   249 H150     -1.5081   -6.8915    4.9374   H         1 RES1   0.0000
   250 H151     -1.2467   -5.8878    3.5081   H         1 RES1   0.0000
   251 H152     -4.3153   -0.4081    1.8884   H         1 RES1   0.0000
   252 H153     -5.9852   -0.5195    1.3021   H         1 RES1   0.0000
   253 H154     -3.9305    1.3732    0.1055   H         1 RES1   0.0000
   254 H155     -5.0016    1.8046    1.4294   H         1 RES1   0.0000
   255 H156     -6.0463    0.7609   -1.2242   H         1 RES1   0.0000
   256 H157     -5.8095    2.4761   -0.8764   H         1 RES1   0.0000
   257 H158     -7.6002    0.7146    0.8390   H         1 RES1   0.0000
   258 H159     -8.1606    1.6023   -0.5548   H         1 RES1   0.0000
   259 H160     -6.6874    3.5033    0.9494   H         1 RES1   0.0000
   260 H161     -9.6999    3.0667    0.7874   H         1 RES1   0.0000
   261 H162     -8.7151    3.8579   -0.4435   H         1 RES1   0.0000
   262 H163     -8.8965    4.5870    1.1522   H         1 RES1   0.0000
   263 H164     -6.9002    1.8039    2.8605   H         1 RES1   0.0000
   264 H165     -8.6365    2.0999    2.8111   H         1 RES1   0.0000
   265 H166     -8.1193    4.5847    3.1040   H         1 RES1   0.0000
   266 H167     -6.4271    4.1362    3.3282   H         1 RES1   0.0000
   267 H168     -7.0647    2.8334    5.3583   H         1 RES1   0.0000
   268 H169     -8.7627    3.1762    5.0411   H         1 RES1   0.0000
   269 H170     -8.2926    5.6224    5.2381   H         1 RES1   0.0000
   270 H171     -5.5545    4.6764    6.1784   H         1 RES1   0.0000
   271 H172     -6.1788    6.3095    6.4025   H         1 RES1   0.0000
   272 H173     -5.8893    5.6954    4.7817   H         1 RES1   0.0000
   273 H174     -7.5908    3.9698    7.7060   H         1 RES1   0.0000
   274 H175     -9.2158    4.3163    7.1292   H         1 RES1   0.0000
   275 H176     -8.1900    5.6256    7.6951   H         1 RES1   0.0000
   276 C89       6.7920   -0.8515   10.2174   C.3       1 RES1   0.0000
   277 C90       7.2987    0.1436    9.1806   C.3       1 RES1   0.0000
   278 C91       7.1895   -0.4180    7.7649   C.3       1 RES1   0.0000
   279 C92       7.9183    0.4650    6.7560   C.3       1 RES1   0.0000
   280 C93       7.6661    0.0172    5.3173   C.3       1 RES1   0.0000
   281 C94       6.3820    0.6461    4.7594   C.3       1 RES1   0.0000
   282 C95       5.7082   -0.2732    3.7407   C.3       1 RES1   0.0000
   283 C96       4.6780    0.4150    2.8350   C.3       1 RES1   0.0000
   284 N5        3.2460    0.3682    3.1814   N.am      1 RES1   0.0000
   285 C97       2.7878   -0.1607    4.4824   C.3       1 RES1   0.0000
   286 C98       1.6213    0.6293    5.1234   C.3       1 RES1   0.0000
   287 C99       1.7150    0.6952    6.6614   C.3       1 RES1   0.0000
   288 C100      0.7264    1.5379    7.5357   C.3       1 RES1   0.0000
   289 C101      0.2913    2.9960    7.2051   C.3       1 RES1   0.0000
   290 C102     -1.1742    2.9662    6.7973   C.3       1 RES1   0.0000
   291 C103      0.4404    3.9812    8.3931   C.3       1 RES1   0.0000
   292 C104     -0.0596    5.3984    8.0607   C.3       1 RES1   0.0000
   293 C105      0.1487    6.4464    9.1729   C.3       1 RES1   0.0000
   294 C106      1.1666    7.5958    8.9625   C.3       1 RES1   0.0000
   295 C107      2.5788    7.2845    9.4598   C.3       1 RES1   0.0000
   296 C108      1.2042    8.1215    7.5245   C.3       1 RES1   0.0000
   297 C109      2.3950    0.6098    2.1814   C.2       1 RES1   0.0000
   298 O7        1.2073    0.2658    2.1924   O.2       1 RES1   0.0000
   299 C110      2.9134    1.4076    0.9580   C.3       1 RES1   0.0000
   300 O8        1.8130    1.5980    0.0696   O.3       1 RES1   0.0000
   301 C111      1.6442    2.9072   -0.4657   C.3       1 RES1   0.0000
   302 C112      0.2725    2.9277   -1.1578   C.2       1 RES1   0.0000
   303 O9       -0.3905    1.8682   -1.1537   O.2       1 RES1   0.0000
   304 N6       -0.1679    4.0237   -1.7582   N.am      1 RES1   0.0000
   305 C113      0.5513    5.2981   -1.7270   C.3       1 RES1   0.0000
   306 C114      0.3074    6.2264   -2.9187   C.3       1 RES1   0.0000
   307 C115      0.7721    5.7009   -4.2811   C.3       1 RES1   0.0000
   308 C116      2.2979    5.6509   -4.4388   C.3       1 RES1   0.0000
   309 C117      2.7330    5.8132   -5.9001   C.3       1 RES1   0.0000
   310 C118      2.4383    4.5940   -6.7910   C.3       1 RES1   0.0000
   311 C119      3.6746    3.8602   -7.3254   C.3       1 RES1   0.0000
   312 C120      4.6156    3.3693   -6.2274   C.3       1 RES1   0.0000
   313 C121     -1.4960    3.9383   -2.3705   C.3       1 RES1   0.0000
   314 C122     -2.6557    4.0809   -1.3673   C.3       1 RES1   0.0000
   315 C123     -3.5015    5.3402   -1.5842   C.3       1 RES1   0.0000
   316 C124     -4.3184    5.4126   -2.8818   C.3       1 RES1   0.0000
   317 C125     -5.5909    4.5374   -2.9267   C.3       1 RES1   0.0000
   318 C126     -6.7437    5.3330   -3.5370   C.3       1 RES1   0.0000
   319 C127     -5.3499    3.2373   -3.7098   C.3       1 RES1   0.0000
   320 C128     -6.5778    2.3305   -3.8472   C.3       1 RES1   0.0000
   321 C129     -6.2077    0.9669   -4.4386   C.3       1 RES1   0.0000
   322 C130     -7.4363    0.1002   -4.7540   C.3       1 RES1   0.0000
   323 C131     -8.0443   -0.5131   -3.4960   C.3       1 RES1   0.0000
   324 C132     -7.0741   -1.0053   -5.7427   C.3       1 RES1   0.0000
   325 H177      6.6862   -0.3788   11.1896   H         1 RES1   0.0000
   326 H178      7.4943   -1.6732   10.3188   H         1 RES1   0.0000
   327 H179      5.8276   -1.2654    9.9279   H         1 RES1   0.0000
   328 H180      8.3405    0.3876    9.3918   H         1 RES1   0.0000
   329 H181      6.7327    1.0724    9.2522   H         1 RES1   0.0000
   330 H182      6.1338   -0.5190    7.4860   H         1 RES1   0.0000
   331 H183      7.6323   -1.4164    7.7423   H         1 RES1   0.0000
   332 H184      8.9831    0.4380    6.9778   H         1 RES1   0.0000
   333 H185      7.5974    1.5007    6.8736   H         1 RES1   0.0000
   334 H186      7.5854   -1.0713    5.3032   H         1 RES1   0.0000
   335 H187      8.5132    0.2888    4.6869   H         1 RES1   0.0000
   336 H188      6.6455    1.5892    4.2749   H         1 RES1   0.0000
   337 H189      5.7048    0.8716    5.5857   H         1 RES1   0.0000
   338 H190      5.3013   -1.1507    4.2441   H         1 RES1   0.0000
   339 H191      6.4911   -0.6295    3.0664   H         1 RES1   0.0000
   340 H192      4.7440   -0.0835    1.8652   H         1 RES1   0.0000
   341 H193      4.9774    1.4614    2.7078   H         1 RES1   0.0000
   342 H194      3.6473   -0.1136    5.1492   H         1 RES1   0.0000
   343 H195      2.5275   -1.2172    4.3529   H         1 RES1   0.0000
   344 H196      0.6742    0.1850    4.8151   H         1 RES1   0.0000
   345 H197      1.7051    1.6349    4.7169   H         1 RES1   0.0000
   346 H198      2.7402    0.9863    6.8774   H         1 RES1   0.0000
   347 H199      1.5947   -0.3229    7.0396   H         1 RES1   0.0000
   348 H200      1.1740    1.5583    8.5320   H         1 RES1   0.0000
   349 H201     -0.1807    0.9411    7.6457   H         1 RES1   0.0000
   350 H202      0.8709    3.3608    6.3609   H         1 RES1   0.0000
   351 H203     -1.7851    2.6648    7.6420   H         1 RES1   0.0000
   352 H204     -1.2842    2.2719    5.9826   H         1 RES1   0.0000
   353 H205     -1.5215    3.9384    6.4677   H         1 RES1   0.0000
   354 H206      1.4780    4.0210    8.7152   H         1 RES1   0.0000
   355 H207     -0.1552    3.6029    9.2292   H         1 RES1   0.0000
   356 H208     -1.1357    5.3600    7.8854   H         1 RES1   0.0000
   357 H209      0.4047    5.7456    7.1385   H         1 RES1   0.0000
   358 H210      0.3907    5.9463   10.1130   H         1 RES1   0.0000
   359 H211     -0.8094    6.9485    9.3073   H         1 RES1   0.0000
   360 H212      0.8099    8.4233    9.5889   H         1 RES1   0.0000
   361 H213      3.0981    6.6090    8.7856   H         1 RES1   0.0000
   362 H214      2.5365    6.8250   10.4460   H         1 RES1   0.0000
   363 H215      3.1712    8.1985    9.5391   H         1 RES1   0.0000
   364 H216      1.6890    7.4266    6.8409   H         1 RES1   0.0000
   365 H217      1.7581    9.0583    7.4866   H         1 RES1   0.0000
   366 H218      0.1956    8.3049    7.1573   H         1 RES1   0.0000
   367 H219      3.7121    0.8778    0.4171   H         1 RES1   0.0000
   368 H220      3.3114    2.3635    1.3198   H         1 RES1   0.0000
   369 H221      2.4382    3.1258   -1.1939   H         1 RES1   0.0000
   370 H222      1.6662    3.6592    0.3324   H         1 RES1   0.0000
   371 H223      1.6159    5.0784   -1.6846   H         1 RES1   0.0000
   372 H224      0.2834    5.8326   -0.8075   H         1 RES1   0.0000
   373 H225      0.8449    7.1478   -2.6924   H         1 RES1   0.0000
   374 H226     -0.7444    6.5011   -2.9661   H         1 RES1   0.0000
   375 H227      0.3721    6.3834   -5.0349   H         1 RES1   0.0000
   376 H228      0.3380    4.7166   -4.4715   H         1 RES1   0.0000
   377 H229      2.6994    4.7161   -4.0358   H         1 RES1   0.0000
   378 H230      2.7288    6.4760   -3.8655   H         1 RES1   0.0000
   379 H231      3.7973    6.0401   -5.9213   H         1 RES1   0.0000
   380 H232      2.2255    6.6902   -6.3043   H         1 RES1   0.0000
   381 H233      1.8518    4.9180   -7.6518   H         1 RES1   0.0000
   382 H234      1.8301    3.8761   -6.2335   H         1 RES1   0.0000
   383 H235      4.2288    4.5065   -8.0098   H         1 RES1   0.0000
   384 H236      3.3215    2.9985   -7.9014   H         1 RES1   0.0000
   385 H237      5.1908    4.1901   -5.8037   H         1 RES1   0.0000
   386 H238      4.0500    2.8880   -5.4281   H         1 RES1   0.0000
   387 H239      5.3134    2.6448   -6.6398   H         1 RES1   0.0000
   388 H240     -1.5343    2.9648   -2.8569   H         1 RES1   0.0000
   389 H241     -1.5741    4.7067   -3.1335   H         1 RES1   0.0000
   390 H242     -2.2474    4.0959   -0.3524   H         1 RES1   0.0000
   391 H243     -3.2952    3.2032   -1.4402   H         1 RES1   0.0000
   392 H244     -2.8401    6.2088   -1.5423   H         1 RES1   0.0000
   393 H245     -4.1954    5.4215   -0.7469   H         1 RES1   0.0000
   394 H246     -3.6856    5.1795   -3.7396   H         1 RES1   0.0000
   395 H247     -4.6294    6.4543   -2.9854   H         1 RES1   0.0000
   396 H248     -5.8694    4.2862   -1.8962   H         1 RES1   0.0000
   397 H249     -6.5219    5.6060   -4.5652   H         1 RES1   0.0000
   398 H250     -6.9163    6.2449   -2.9727   H         1 RES1   0.0000
   399 H251     -7.6651    4.7594   -3.5270   H         1 RES1   0.0000
   400 H252     -4.5573    2.6737   -3.2098   H         1 RES1   0.0000
   401 H253     -4.9987    3.4867   -4.7149   H         1 RES1   0.0000
   402 H254     -7.3057    2.7980   -4.5106   H         1 RES1   0.0000
   403 H255     -7.0568    2.1973   -2.8762   H         1 RES1   0.0000
   404 H256     -5.5434    0.4255   -3.7516   H         1 RES1   0.0000
   405 H257     -5.6586    1.1378   -5.3695   H         1 RES1   0.0000
   406 H258     -8.1905    0.7406   -5.2200   H         1 RES1   0.0000
   407 H259     -7.3787   -1.2658   -3.0751   H         1 RES1   0.0000
   408 H260     -8.9852   -1.0012   -3.7294   H         1 RES1   0.0000
   409 H261     -8.2409    0.2412   -2.7408   H         1 RES1   0.0000
   410 H262     -6.2925   -1.6470   -5.3377   H         1 RES1   0.0000
   411 H263     -6.7193   -0.5822   -6.6781   H         1 RES1   0.0000
   412 H264     -7.9423   -1.6209   -5.9595   H         1 RES1   0.0000
@<TRIPOS>BOND
     1     1    24    1
     2     1    26    1
     3     1    29    1
     4     1   161    1
     5     1   163    1
     6     1   166    1
     7     1   298    1
     8     1   300    1
     9     1   303    1
    10     2     3    1
    11     2    51    1
    12     2    52    1
    13     2    53    1
    14     3     4    1
    15     3    54    1
    16     3    55    1
    17     4     5    1
    18     4    56    1
    19     4    57    1
    20     5     6    1
    21     5    58    1
    22     5    59    1
    23     6     7    1
    24     6    60    1
    25     6    61    1
    26     7     8    1
    27     7    62    1
    28     7    63    1
    29     8     9    1
    30     8    64    1
    31     8    65    1
    32     9    10    1
    33     9    66    1
    34     9    67    1
    35    10    11    1
    36    10    23    1
    37    11    12    1
    38    11    68    1
    39    11    69    1
    40    12    13    1
    41    12    70    1
    42    12    71    1
    43    13    14    1
    44    13    72    1
    45    13    73    1
    46    14    15    1
    47    14    74    1
    48    14    75    1
    49    15    16    1
    50    15    17    1
    51    15    76    1
    52    16    77    1
    53    16    78    1
    54    16    79    1
    55    17    18    1
    56    17    80    1
    57    17    81    1
    58    18    19    1
    59    18    82    1
    60    18    83    1
    61    19    20    1
    62    19    84    1
    63    19    85    1
    64    20    21    1
    65    20    22    1
    66    20    86    1
    67    21    87    1
    68    21    88    1
    69    21    89    1
    70    22    90    1
    71    22    91    1
    72    22    92    1
    73    23    24    2
    74    23    25    1
    75    25    26    1
    76    25    93    1
    77    25    94    1
    78    26    27    1
    79    27    28    1
    80    27    95    1
    81    27    96    1
    82    28    29    2
    83    28    30    1
    84    30    31    1
    85    30    39    1
    86    31    32    1
    87    31    97    1
    88    31    98    1
    89    32    33    1
    90    32    99    1
    91    32   100    1
    92    33    34    1
    93    33   101    1
    94    33   102    1
    95    34    35    1
    96    34   103    1
    97    34   104    1
    98    35    36    1
    99    35   105    1
   100    35   106    1
   101    36    37    1
   102    36   107    1
   103    36   108    1
   104    37    38    1
   105    37   109    1
   106    37   110    1
   107    38   111    1
   108    38   112    1
   109    38   113    1
   110    39    40    1
   111    39   114    1
   112    39   115    1
   113    40    41    1
   114    40   116    1
   115    40   117    1
   116    41    42    1
   117    41   118    1
   118    41   119    1
   119    42    43    1
   120    42   120    1
   121    42   121    1
   122    43    44    1
   123    43    45    1
   124    43   122    1
   125    44   123    1
   126    44   124    1
   127    44   125    1
   128    45    46    1
   129    45   126    1
   130    45   127    1
   131    46    47    1
   132    46   128    1
   133    46   129    1
   134    47    48    1
   135    47   130    1
   136    47   131    1
   137    48    49    1
   138    48    50    1
   139    48   132    1
   140    49   133    1
   141    49   134    1
   142    49   135    1
   143    50   136    1
   144    50   137    1
   145    50   138    1
   146   139   140    1
   147   139   188    1
   148   139   189    1
   149   139   190    1
   150   140   141    1
   151   140   191    1
   152   140   192    1
   153   141   142    1
   154   141   193    1
   155   141   194    1
   156   142   143    1
   157   142   195    1
   158   142   196    1
   159   143   144    1
   160   143   197    1
   161   143   198    1
   162   144   145    1
   163   144   199    1
   164   144   200    1
   165   145   146    1
   166   145   201    1
   167   145   202    1
   168   146   147    1
   169   146   203    1
   170   146   204    1
   171   147   148    1
   172   147   160    1
   173   148   149    1
   174   148   205    1
   175   148   206    1
   176   149   150    1
   177   149   207    1
   178   149   208    1
   179   150   151    1
   180   150   209    1
   181   150   210    1
   182   151   152    1
   183   151   211    1
   184   151   212    1
   185   152   153    1
   186   152   154    1
   187   152   213    1
   188   153   214    1
   189   153   215    1
   190   153   216    1
   191   154   155    1
   192   154   217    1
   193   154   218    1
   194   155   156    1
   195   155   219    1
   196   155   220    1
   197   156   157    1
   198   156   221    1
   199   156   222    1
   200   157   158    1
   201   157   159    1
   202   157   223    1
   203   158   224    1
   204   158   225    1
   205   158   226    1
   206   159   227    1
   207   159   228    1
   208   159   229    1
   209   160   161    2
   210   160   162    1
   211   162   163    1
   212   162   230    1
   213   162   231    1
   214   163   164    1
   215   164   165    1
   216   164   232    1
   217   164   233    1
   218   165   166    2
   219   165   167    1
   220   167   168    1
   221   167   176    1
   222   168   169    1
   223   168   234    1
   224   168   235    1
   225   169   170    1
   226   169   236    1
   227   169   237    1
   228   170   171    1
   229   170   238    1
   230   170   239    1
   231   171   172    1
   232   171   240    1
   233   171   241    1
   234   172   173    1
   235   172   242    1
   236   172   243    1
   237   173   174    1
   238   173   244    1
   239   173   245    1
   240   174   175    1
   241   174   246    1
   242   174   247    1
   243   175   248    1
   244   175   249    1
   245   175   250    1
   246   176   177    1
   247   176   251    1
   248   176   252    1
   249   177   178    1
   250   177   253    1
   251   177   254    1
   252   178   179    1
   253   178   255    1
   254   178   256    1
   255   179   180    1
   256   179   257    1
   257   179   258    1
   258   180   181    1
   259   180   182    1
   260   180   259    1
   261   181   260    1
   262   181   261    1
   263   181   262    1
   264   182   183    1
   265   182   263    1
   266   182   264    1
   267   183   184    1
   268   183   265    1
   269   183   266    1
   270   184   185    1
   271   184   267    1
   272   184   268    1
   273   185   186    1
   274   185   187    1
   275   185   269    1
   276   186   270    1
   277   186   271    1
   278   186   272    1
   279   187   273    1
   280   187   274    1
   281   187   275    1
   282   276   277    1
   283   276   325    1
   284   276   326    1
   285   276   327    1
   286   277   278    1
   287   277   328    1
   288   277   329    1
   289   278   279    1
   290   278   330    1
   291   278   331    1
   292   279   280    1
   293   279   332    1
   294   279   333    1
   295   280   281    1
   296   280   334    1
   297   280   335    1
   298   281   282    1
   299   281   336    1
   300   281   337    1
   301   282   283    1
   302   282   338    1
   303   282   339    1
   304   283   284    1
   305   283   340    1
   306   283   341    1
   307   284   285    1
   308   284   297    1
   309   285   286    1
   310   285   342    1
   311   285   343    1
   312   286   287    1
   313   286   344    1
   314   286   345    1
   315   287   288    1
   316   287   346    1
   317   287   347    1
   318   288   289    1
   319   288   348    1
   320   288   349    1
   321   289   290    1
   322   289   291    1
   323   289   350    1
   324   290   351    1
   325   290   352    1
   326   290   353    1
   327   291   292    1
   328   291   354    1
   329   291   355    1
   330   292   293    1
   331   292   356    1
   332   292   357    1
   333   293   294    1
   334   293   358    1
   335   293   359    1
   336   294   295    1
   337   294   296    1
   338   294   360    1
   339   295   361    1
   340   295   362    1
   341   295   363    1
   342   296   364    1
   343   296   365    1
   344   296   366    1
   345   297   298    2
   346   297   299    1
   347   299   300    1
   348   299   367    1
   349   299   368    1
   350   300   301    1
   351   301   302    1
   352   301   369    1
   353   301   370    1
   354   302   303    2
   355   302   304    1
   356   304   305    1
   357   304   313    1
   358   305   306    1
   359   305   371    1
   360   305   372    1
   361   306   307    1
   362   306   373    1
   363   306   374    1
   364   307   308    1
   365   307   375    1
   366   307   376    1
   367   308   309    1
   368   308   377    1
   369   308   378    1
   370   309   310    1
   371   309   379    1
   372   309   380    1
   373   310   311    1
   374   310   381    1
   375   310   382    1
   376   311   312    1
   377   311   383    1
   378   311   384    1
   379   312   385    1
   380   312   386    1
   381   312   387    1
   382   313   314    1
   383   313   388    1
   384   313   389    1
   385   314   315    1
   386   314   390    1
   387   314   391    1
   388   315   316    1
   389   315   392    1
   390   315   393    1
   391   316   317    1
   392   316   394    1
   393   316   395    1
   394   317   318    1
   395   317   319    1
   396   317   396    1
   397   318   397    1
   398   318   398    1
   399   318   399    1
   400   319   320    1
   401   319   400    1
   402   319   401    1
   403   320   321    1
   404   320   402    1
   405   320   403    1
   406   321   322    1
   407   321   404    1
   408   321   405    1
   409   322   323    1
   410   322   324    1
   411   322   406    1
   412   323   407    1
   413   323   408    1
   414   323   409    1
   415   324   410    1
   416   324   411    1
   417   324   412    1
@<TRIPOS>SUBSTRUCTURE
     1 RES1      412 GROUP             0 ****  ****    0  
