@<TRIPOS>MOLECULE
cn9_YICLED_0_nunpairedes_0_charge_3 Charge: 3 Unpaired_Electrons: 0 XTB_Unpaired_Electrons: 0 XTB_Charge: 3
   286   291     1     0     0
SMALL
NoCharges
****
Generated from Architector

@<TRIPOS>ATOM
     1 La1       0.1186   -0.0460    0.0273   La        1 RES1   0.0000
     2 C1       -6.2123    0.5596   -3.1724   C.3       1 RES1   0.0000
     3 C2       -6.8604    1.2324   -1.9625   C.3       1 RES1   0.0000
     4 C3       -7.5435    2.5222   -2.4145   C.3       1 RES1   0.0000
     5 C4       -7.8479    0.2854   -1.2474   C.3       1 RES1   0.0000
     6 C5       -7.4080   -0.1065    0.1683   C.3       1 RES1   0.0000
     7 C6       -6.2594   -1.1299    0.1788   C.3       1 RES1   0.0000
     8 C7       -5.1896   -0.8721    1.2503   C.3       1 RES1   0.0000
     9 C8       -3.9774   -1.7736    1.0144   C.3       1 RES1   0.0000
    10 C9       -5.7419   -1.0318    2.6740   C.3       1 RES1   0.0000
    11 C10      -4.8355   -0.5477    3.8197   C.3       1 RES1   0.0000
    12 C11      -4.9290    0.9580    4.0906   C.3       1 RES1   0.0000
    13 C12      -4.0599    1.8233    3.1705   C.3       1 RES1   0.0000
    14 N1       -2.6418    1.9289    3.5110   N.am      1 RES1   0.0000
    15 C13      -2.3358    2.7330    4.6815   C.3       1 RES1   0.0000
    16 C14      -1.7034    1.3942    2.7399   C.2       1 RES1   0.0000
    17 O1       -1.9195    0.5646    1.8327   O.2       1 RES1   0.0000
    18 C15      -0.2422    1.8303    2.9186   C.3       1 RES1   0.0000
    19 O2        0.5794    0.7023    2.6557   O.3       1 RES1   0.0000
    20 C16       0.5172   -0.1987    3.7687   C.3       1 RES1   0.0000
    21 C17       0.6662   -1.6284    3.2687   C.2       1 RES1   0.0000
    22 O3        0.4373   -1.8553    2.0590   O.2       1 RES1   0.0000
    23 N2        1.0519   -2.5431    4.1499   N.am      1 RES1   0.0000
    24 C18       1.4694   -3.8540    3.7112   C.3       1 RES1   0.0000
    25 C19       0.9709   -2.4484    5.6046   C.3       1 RES1   0.0000
    26 C20       2.2967   -2.7820    6.3053   C.3       1 RES1   0.0000
    27 C21       3.4894   -2.0516    5.6922   C.3       1 RES1   0.0000
    28 C22       3.4971   -0.5619    6.0436   C.3       1 RES1   0.0000
    29 C23       4.0289    0.3167    4.9028   C.3       1 RES1   0.0000
    30 C24       3.7792    1.7802    5.2517   C.3       1 RES1   0.0000
    31 C25       5.5156    0.0424    4.6488   C.3       1 RES1   0.0000
    32 C26       6.0684    0.6742    3.3684   C.3       1 RES1   0.0000
    33 C27       5.6317   -0.0711    2.1061   C.3       1 RES1   0.0000
    34 C28       6.0143    0.6369    0.8003   C.3       1 RES1   0.0000
    35 C29       5.1445    1.8714    0.5664   C.3       1 RES1   0.0000
    36 C30       5.8585   -0.3350   -0.3686   C.3       1 RES1   0.0000
    37 H1       -5.5036    1.2376   -3.6516   H         1 RES1   0.0000
    38 H2       -6.9695    0.2992   -3.9070   H         1 RES1   0.0000
    39 H3       -5.6957   -0.3528   -2.8775   H         1 RES1   0.0000
    40 H4       -6.0671    1.4999   -1.2528   H         1 RES1   0.0000
    41 H5       -8.3162    2.2957   -3.1443   H         1 RES1   0.0000
    42 H6       -6.8276    3.1974   -2.8819   H         1 RES1   0.0000
    43 H7       -8.0039    3.0397   -1.5762   H         1 RES1   0.0000
    44 H8       -7.9876   -0.6236   -1.8337   H         1 RES1   0.0000
    45 H9       -8.8206    0.7710   -1.1837   H         1 RES1   0.0000
    46 H10      -8.2678   -0.5200    0.6944   H         1 RES1   0.0000
    47 H11      -7.1068    0.7989    0.7027   H         1 RES1   0.0000
    48 H12      -5.7490   -1.0913   -0.7857   H         1 RES1   0.0000
    49 H13      -6.6619   -2.1376    0.2931   H         1 RES1   0.0000
    50 H14      -4.8659    0.1656    1.1113   H         1 RES1   0.0000
    51 H15      -4.2371   -2.8158    1.1833   H         1 RES1   0.0000
    52 H16      -3.1601   -1.5044    1.6813   H         1 RES1   0.0000
    53 H17      -3.6159   -1.6679   -0.0087   H         1 RES1   0.0000
    54 H18      -5.9638   -2.0902    2.8329   H         1 RES1   0.0000
    55 H19      -6.6881   -0.4912    2.7438   H         1 RES1   0.0000
    56 H20      -3.7990   -0.8261    3.6338   H         1 RES1   0.0000
    57 H21      -5.1477   -1.0739    4.7214   H         1 RES1   0.0000
    58 H22      -4.6956    1.1649    5.1359   H         1 RES1   0.0000
    59 H23      -5.9649    1.2683    3.9366   H         1 RES1   0.0000
    60 H24      -4.4569    2.8436    3.1725   H         1 RES1   0.0000
    61 H25      -4.1104    1.4167    2.1648   H         1 RES1   0.0000
    62 H26      -3.2753    3.0722    5.1100   H         1 RES1   0.0000
    63 H27      -1.7265    3.6045    4.4424   H         1 RES1   0.0000
    64 H28      -1.8191    2.1369    5.4342   H         1 RES1   0.0000
    65 H29      -0.0010    2.2477    3.8969   H         1 RES1   0.0000
    66 H30      -0.0206    2.5691    2.1352   H         1 RES1   0.0000
    67 H31      -0.4535   -0.1012    4.2738   H         1 RES1   0.0000
    68 H32       1.3347    0.0474    4.4521   H         1 RES1   0.0000
    69 H33       1.4965   -3.8603    2.6293   H         1 RES1   0.0000
    70 H34       0.7782   -4.6146    4.0657   H         1 RES1   0.0000
    71 H35       2.4565   -4.0749    4.1125   H         1 RES1   0.0000
    72 H36       0.2173   -3.1778    5.9230   H         1 RES1   0.0000
    73 H37       0.6125   -1.4702    5.9128   H         1 RES1   0.0000
    74 H38       2.4696   -3.8581    6.2857   H         1 RES1   0.0000
    75 H39       2.1985   -2.4987    7.3526   H         1 RES1   0.0000
    76 H40       3.4621   -2.1533    4.6051   H         1 RES1   0.0000
    77 H41       4.4070   -2.5245    6.0380   H         1 RES1   0.0000
    78 H42       4.0942   -0.3937    6.9407   H         1 RES1   0.0000
    79 H43       2.4773   -0.2458    6.2876   H         1 RES1   0.0000
    80 H44       3.4684    0.0740    3.9901   H         1 RES1   0.0000
    81 H45       4.3160    2.0446    6.1581   H         1 RES1   0.0000
    82 H46       2.7187    1.9662    5.4231   H         1 RES1   0.0000
    83 H47       4.1101    2.4317    4.4503   H         1 RES1   0.0000
    84 H48       5.6770   -1.0360    4.5916   H         1 RES1   0.0000
    85 H49       6.0815    0.4146    5.5042   H         1 RES1   0.0000
    86 H50       7.1579    0.6564    3.4245   H         1 RES1   0.0000
    87 H51       5.7667    1.7186    3.3110   H         1 RES1   0.0000
    88 H52       4.5464   -0.2125    2.1027   H         1 RES1   0.0000
    89 H53       6.1006   -1.0594    2.1231   H         1 RES1   0.0000
    90 H54       7.0610    0.9482    0.8590   H         1 RES1   0.0000
    91 H55       4.0892    1.5925    0.5132   H         1 RES1   0.0000
    92 H56       5.4229    2.3625   -0.3636   H         1 RES1   0.0000
    93 H57       5.2743    2.5904    1.3706   H         1 RES1   0.0000
    94 H58       4.8301   -0.6947   -0.3985   H         1 RES1   0.0000
    95 H59       6.5252   -1.1870   -0.2568   H         1 RES1   0.0000
    96 H60       6.0930    0.1534   -1.3118   H         1 RES1   0.0000
    97 C31       2.2613    4.5887    3.3698   C.3       1 RES1   0.0000
    98 C32       1.4419    5.7845    3.8589   C.3       1 RES1   0.0000
    99 C33       1.2754    5.6894    5.3758   C.3       1 RES1   0.0000
   100 C34       2.0952    7.1262    3.4833   C.3       1 RES1   0.0000
   101 C35       1.6984    7.7405    2.1370   C.3       1 RES1   0.0000
   102 C36       2.0821    6.9106    0.9043   C.3       1 RES1   0.0000
   103 C37       0.9153    6.0515    0.3880   C.3       1 RES1   0.0000
   104 C38       1.4266    4.8427   -0.3937   C.3       1 RES1   0.0000
   105 C39      -0.0127    6.8963   -0.4965   C.3       1 RES1   0.0000
   106 C40      -1.3516    6.2472   -0.8607   C.3       1 RES1   0.0000
   107 C41      -2.2731    6.0782    0.3510   C.3       1 RES1   0.0000
   108 C42      -2.2167    4.6879    0.9904   C.3       1 RES1   0.0000
   109 N3       -2.9264    3.6518    0.2511   N.am      1 RES1   0.0000
   110 C43      -4.3407    3.8961    0.0383   C.3       1 RES1   0.0000
   111 C44      -2.2979    2.5587   -0.1778   C.2       1 RES1   0.0000
   112 O4       -1.0785    2.3382   -0.0267   O.2       1 RES1   0.0000
   113 C45      -3.1875    1.5467   -0.8773   C.3       1 RES1   0.0000
   114 O5       -2.4524    0.3991   -1.2458   O.3       1 RES1   0.0000
   115 C46      -2.8061   -0.1181   -2.5206   C.3       1 RES1   0.0000
   116 C47      -1.5130   -0.3992   -3.2656   C.2       1 RES1   0.0000
   117 O6       -0.4537   -0.3461   -2.6079   O.2       1 RES1   0.0000
   118 N4       -1.5484   -0.7156   -4.5511   N.am      1 RES1   0.0000
   119 C48      -0.2851   -1.0882   -5.1663   C.3       1 RES1   0.0000
   120 C49      -2.7170   -0.6141   -5.4270   C.3       1 RES1   0.0000
   121 C50      -3.0101   -1.8807   -6.2359   C.3       1 RES1   0.0000
   122 C51      -3.2146   -3.1097   -5.3574   C.3       1 RES1   0.0000
   123 C52      -4.5795   -3.1626   -4.6679   C.3       1 RES1   0.0000
   124 C53      -4.5721   -4.0970   -3.4498   C.3       1 RES1   0.0000
   125 C54      -5.8220   -3.8794   -2.5995   C.3       1 RES1   0.0000
   126 C55      -4.4399   -5.5834   -3.8370   C.3       1 RES1   0.0000
   127 C56      -3.3399   -6.3288   -3.0735   C.3       1 RES1   0.0000
   128 C57      -1.9347   -5.9526   -3.5726   C.3       1 RES1   0.0000
   129 C58      -0.9043   -5.5554   -2.5066   C.3       1 RES1   0.0000
   130 C59      -1.3697   -4.3503   -1.6744   C.3       1 RES1   0.0000
   131 C60       0.4190   -5.2695   -3.2269   C.3       1 RES1   0.0000
   132 H61       1.8895    3.6644    3.8097   H         1 RES1   0.0000
   133 H62       3.3017    4.7025    3.6667   H         1 RES1   0.0000
   134 H63       2.2216    4.4898    2.2903   H         1 RES1   0.0000
   135 H64       0.4406    5.7371    3.4116   H         1 RES1   0.0000
   136 H65       2.2390    5.7961    5.8663   H         1 RES1   0.0000
   137 H66       0.8540    4.7249    5.6610   H         1 RES1   0.0000
   138 H67       0.6144    6.4699    5.7440   H         1 RES1   0.0000
   139 H68       3.1816    7.0142    3.5029   H         1 RES1   0.0000
   140 H69       1.8426    7.8584    4.2524   H         1 RES1   0.0000
   141 H70       2.1964    8.7092    2.0777   H         1 RES1   0.0000
   142 H71       0.6241    7.9349    2.1262   H         1 RES1   0.0000
   143 H72       2.9272    6.2703    1.1596   H         1 RES1   0.0000
   144 H73       2.4175    7.5719    0.1027   H         1 RES1   0.0000
   145 H74       0.3610    5.7026    1.2632   H         1 RES1   0.0000
   146 H75       1.9419    5.1957   -1.2836   H         1 RES1   0.0000
   147 H76       0.6072    4.1864   -0.6883   H         1 RES1   0.0000
   148 H77       2.1252    4.2514    0.1986   H         1 RES1   0.0000
   149 H78       0.5184    7.1434   -1.4196   H         1 RES1   0.0000
   150 H79      -0.2241    7.8381    0.0144   H         1 RES1   0.0000
   151 H80      -1.1958    5.2821   -1.3442   H         1 RES1   0.0000
   152 H81      -1.8346    6.8948   -1.5930   H         1 RES1   0.0000
   153 H82      -3.2949    6.3231    0.0680   H         1 RES1   0.0000
   154 H83      -1.9800    6.7935    1.1201   H         1 RES1   0.0000
   155 H84      -2.6527    4.7335    1.9939   H         1 RES1   0.0000
   156 H85      -1.1806    4.3677    1.0643   H         1 RES1   0.0000
   157 H86      -4.6161    4.7996    0.5764   H         1 RES1   0.0000
   158 H87      -4.9698    3.0839    0.4012   H         1 RES1   0.0000
   159 H88      -4.5632    4.0560   -1.0160   H         1 RES1   0.0000
   160 H89      -3.6230    2.0283   -1.7607   H         1 RES1   0.0000
   161 H90      -3.9989    1.2358   -0.2050   H         1 RES1   0.0000
   162 H91      -3.4276    0.6046   -3.0517   H         1 RES1   0.0000
   163 H92      -3.3633   -1.0586   -2.3993   H         1 RES1   0.0000
   164 H93       0.4866   -0.3666   -4.8988   H         1 RES1   0.0000
   165 H94      -0.3977   -1.1205   -6.2447   H         1 RES1   0.0000
   166 H95       0.0284   -2.0694   -4.8051   H         1 RES1   0.0000
   167 H96      -2.5344    0.2115   -6.1219   H         1 RES1   0.0000
   168 H97      -3.5987   -0.3769   -4.8369   H         1 RES1   0.0000
   169 H98      -2.2019   -2.0779   -6.9387   H         1 RES1   0.0000
   170 H99      -3.9103   -1.6912   -6.8208   H         1 RES1   0.0000
   171 H100     -2.4301   -3.1188   -4.5973   H         1 RES1   0.0000
   172 H101     -3.0899   -3.9985   -5.9744   H         1 RES1   0.0000
   173 H102     -5.3398   -3.4873   -5.3786   H         1 RES1   0.0000
   174 H103     -4.8578   -2.1585   -4.3338   H         1 RES1   0.0000
   175 H104     -3.7101   -3.8077   -2.8420   H         1 RES1   0.0000
   176 H105     -6.7169   -4.1025   -3.1726   H         1 RES1   0.0000
   177 H106     -5.8914   -2.8494   -2.2545   H         1 RES1   0.0000
   178 H107     -5.8003   -4.5264   -1.7260   H         1 RES1   0.0000
   179 H108     -4.2470   -5.6840   -4.9048   H         1 RES1   0.0000
   180 H109     -5.3897   -6.0801   -3.6435   H         1 RES1   0.0000
   181 H110     -3.4932   -7.4001   -3.2096   H         1 RES1   0.0000
   182 H111     -3.4452   -6.1394   -2.0030   H         1 RES1   0.0000
   183 H112     -2.0109   -5.1232   -4.2704   H         1 RES1   0.0000
   184 H113     -1.5209   -6.7946   -4.1306   H         1 RES1   0.0000
   185 H114     -0.7606   -6.4084   -1.8346   H         1 RES1   0.0000
   186 H115     -1.3217   -3.4230   -2.2515   H         1 RES1   0.0000
   187 H116     -0.7793   -4.2205   -0.7673   H         1 RES1   0.0000
   188 H117     -2.3959   -4.4932   -1.3440   H         1 RES1   0.0000
   189 H118      1.2710   -5.2760   -2.5530   H         1 RES1   0.0000
   190 H119      0.3794   -4.3046   -3.7323   H         1 RES1   0.0000
   191 H120      0.6081   -6.0330   -3.9757   H         1 RES1   0.0000
   192 C61       1.5096    1.7771   -9.0360   C.3       1 RES1   0.0000
   193 C62       0.4980    0.8028   -8.4362   C.3       1 RES1   0.0000
   194 C63       0.1929   -0.3193   -9.4256   C.3       1 RES1   0.0000
   195 C64      -0.7900    1.5352   -8.0235   C.3       1 RES1   0.0000
   196 C65      -0.6305    2.2166   -6.6672   C.3       1 RES1   0.0000
   197 C66      -1.7944    3.1263   -6.2839   C.3       1 RES1   0.0000
   198 C67      -1.7186    3.6229   -4.8287   C.3       1 RES1   0.0000
   199 C68      -2.8277    4.6509   -4.5886   C.3       1 RES1   0.0000
   200 C69      -0.3344    4.2149   -4.4856   C.3       1 RES1   0.0000
   201 C70       0.5906    3.2216   -3.7653   C.3       1 RES1   0.0000
   202 C71       2.0513    3.6678   -3.8210   C.3       1 RES1   0.0000
   203 C72       2.9591    2.9273   -2.8346   C.3       1 RES1   0.0000
   204 N5        3.0391    1.4855   -3.0608   N.am      1 RES1   0.0000
   205 C73       3.8444    1.1367   -4.2113   C.3       1 RES1   0.0000
   206 C74       2.4251    0.6528   -2.2343   C.2       1 RES1   0.0000
   207 O7        1.7726    1.0629   -1.2425   O.2       1 RES1   0.0000
   208 C75       2.5703   -0.8562   -2.4659   C.3       1 RES1   0.0000
   209 O8        1.5392   -1.5576   -1.7803   O.3       1 RES1   0.0000
   210 C76       1.9001   -2.8315   -1.2722   C.3       1 RES1   0.0000
   211 C77       2.4848   -2.6269    0.1215   C.2       1 RES1   0.0000
   212 O9        2.4952   -1.4578    0.5505   O.2       1 RES1   0.0000
   213 N6        2.9874   -3.6628    0.7964   N.am      1 RES1   0.0000
   214 C78       3.9567   -3.3224    1.8325   C.3       1 RES1   0.0000
   215 C79       2.8524   -5.0876    0.4628   C.3       1 RES1   0.0000
   216 C80       1.4641   -5.7439    0.2791   C.3       1 RES1   0.0000
   217 C81       0.4380   -5.7000    1.4186   C.3       1 RES1   0.0000
   218 C82      -0.7514   -6.6478    1.1878   C.3       1 RES1   0.0000
   219 C83      -1.8502   -6.5795    2.2693   C.3       1 RES1   0.0000
   220 C84      -2.8613   -7.7033    2.0257   C.3       1 RES1   0.0000
   221 C85      -2.5612   -5.2099    2.2863   C.3       1 RES1   0.0000
   222 C86      -2.0339   -4.2264    3.3410   C.3       1 RES1   0.0000
   223 C87      -2.9800   -4.0121    4.5239   C.3       1 RES1   0.0000
   224 C88      -3.0320   -5.1728    5.5262   C.3       1 RES1   0.0000
   225 C89      -4.0561   -4.8554    6.6141   C.3       1 RES1   0.0000
   226 C90      -1.6816   -5.4497    6.1856   C.3       1 RES1   0.0000
   227 H121      2.4430    1.2692   -9.2682   H         1 RES1   0.0000
   228 H122      1.7280    2.5882   -8.3441   H         1 RES1   0.0000
   229 H123      1.1234    2.2102   -9.9552   H         1 RES1   0.0000
   230 H124      0.9512    0.3554   -7.5403   H         1 RES1   0.0000
   231 H125     -0.2712    0.0828  -10.3217   H         1 RES1   0.0000
   232 H126     -0.4859   -1.0540   -8.9929   H         1 RES1   0.0000
   233 H127      1.1058   -0.8331   -9.7180   H         1 RES1   0.0000
   234 H128     -1.6222    0.8259   -7.9948   H         1 RES1   0.0000
   235 H129     -1.0347    2.2840   -8.7770   H         1 RES1   0.0000
   236 H130      0.2864    2.8036   -6.6932   H         1 RES1   0.0000
   237 H131     -0.5162    1.4539   -5.8951   H         1 RES1   0.0000
   238 H132     -2.7392    2.5926   -6.4230   H         1 RES1   0.0000
   239 H133     -1.8133    3.9888   -6.9515   H         1 RES1   0.0000
   240 H134     -1.8965    2.7687   -4.1579   H         1 RES1   0.0000
   241 H135     -2.6819    5.5150   -5.2329   H         1 RES1   0.0000
   242 H136     -2.8304    4.9925   -3.5531   H         1 RES1   0.0000
   243 H137     -3.8056    4.2272   -4.8156   H         1 RES1   0.0000
   244 H138     -0.4595    5.0994   -3.8563   H         1 RES1   0.0000
   245 H139      0.1399    4.5552   -5.4076   H         1 RES1   0.0000
   246 H140      0.4916    2.2358   -4.2201   H         1 RES1   0.0000
   247 H141      0.2863    3.1222   -2.7193   H         1 RES1   0.0000
   248 H142      2.1088    4.7259   -3.5633   H         1 RES1   0.0000
   249 H143      2.4321    3.5721   -4.8386   H         1 RES1   0.0000
   250 H144      2.5947    3.0763   -1.8206   H         1 RES1   0.0000
   251 H145      3.9707    3.3363   -2.9063   H         1 RES1   0.0000
   252 H146      3.4486    1.6525   -5.0872   H         1 RES1   0.0000
   253 H147      3.8681    0.0757   -4.4232   H         1 RES1   0.0000
   254 H148      4.8706    1.4800   -4.0622   H         1 RES1   0.0000
   255 H149      3.5592   -1.1409   -2.0872   H         1 RES1   0.0000
   256 H150      2.5007   -1.1059   -3.5301   H         1 RES1   0.0000
   257 H151      2.6162   -3.3302   -1.9340   H         1 RES1   0.0000
   258 H152      0.9743   -3.4098   -1.2431   H         1 RES1   0.0000
   259 H153      3.6058   -2.4707    2.4095   H         1 RES1   0.0000
   260 H154      4.8941   -3.0242    1.3575   H         1 RES1   0.0000
   261 H155      4.1481   -4.1784    2.4739   H         1 RES1   0.0000
   262 H156      3.3550   -5.6180    1.2733   H         1 RES1   0.0000
   263 H157      3.4100   -5.2843   -0.4594   H         1 RES1   0.0000
   264 H158      1.6948   -6.7922    0.0825   H         1 RES1   0.0000
   265 H159      0.9922   -5.3680   -0.6207   H         1 RES1   0.0000
   266 H160      0.0505   -4.6842    1.5283   H         1 RES1   0.0000
   267 H161      0.9247   -6.0100    2.3429   H         1 RES1   0.0000
   268 H162     -0.3848   -7.6753    1.1378   H         1 RES1   0.0000
   269 H163     -1.2269   -6.4287    0.2310   H         1 RES1   0.0000
   270 H164     -1.4006   -6.7664    3.2494   H         1 RES1   0.0000
   271 H165     -3.3641   -7.5770    1.0691   H         1 RES1   0.0000
   272 H166     -3.6170   -7.7179    2.8084   H         1 RES1   0.0000
   273 H167     -2.3686   -8.6725    2.0253   H         1 RES1   0.0000
   274 H168     -3.6271   -5.3612    2.4609   H         1 RES1   0.0000
   275 H169     -2.4666   -4.7581    1.2966   H         1 RES1   0.0000
   276 H170     -1.8397   -3.2587    2.8691   H         1 RES1   0.0000
   277 H171     -1.0893   -4.5977    3.7222   H         1 RES1   0.0000
   278 H172     -3.9874   -3.8380    4.1380   H         1 RES1   0.0000
   279 H173     -2.6798   -3.1055    5.0589   H         1 RES1   0.0000
   280 H174     -3.3494   -6.0754    4.9979   H         1 RES1   0.0000
   281 H175     -3.7599   -3.9619    7.1625   H         1 RES1   0.0000
   282 H176     -4.1261   -5.6785    7.3199   H         1 RES1   0.0000
   283 H177     -5.0421   -4.6881    6.1873   H         1 RES1   0.0000
   284 H178     -1.3230   -4.5618    6.7074   H         1 RES1   0.0000
   285 H179     -0.9310   -5.7704    5.4652   H         1 RES1   0.0000
   286 H180     -1.7877   -6.2462    6.9177   H         1 RES1   0.0000
@<TRIPOS>BOND
     1     1    17    1
     2     1    19    1
     3     1    22    1
     4     1   112    1
     5     1   114    1
     6     1   117    1
     7     1   207    1
     8     1   209    1
     9     1   212    1
    10     2     3    1
    11     2    37    1
    12     2    38    1
    13     2    39    1
    14     3     4    1
    15     3     5    1
    16     3    40    1
    17     4    41    1
    18     4    42    1
    19     4    43    1
    20     5     6    1
    21     5    44    1
    22     5    45    1
    23     6     7    1
    24     6    46    1
    25     6    47    1
    26     7     8    1
    27     7    48    1
    28     7    49    1
    29     8     9    1
    30     8    10    1
    31     8    50    1
    32     9    51    1
    33     9    52    1
    34     9    53    1
    35    10    11    1
    36    10    54    1
    37    10    55    1
    38    11    12    1
    39    11    56    1
    40    11    57    1
    41    12    13    1
    42    12    58    1
    43    12    59    1
    44    13    14    1
    45    13    60    1
    46    13    61    1
    47    14    15    1
    48    14    16    1
    49    15    62    1
    50    15    63    1
    51    15    64    1
    52    16    17    2
    53    16    18    1
    54    18    19    1
    55    18    65    1
    56    18    66    1
    57    19    20    1
    58    20    21    1
    59    20    67    1
    60    20    68    1
    61    21    22    2
    62    21    23    1
    63    23    24    1
    64    23    25    1
    65    24    69    1
    66    24    70    1
    67    24    71    1
    68    25    26    1
    69    25    72    1
    70    25    73    1
    71    26    27    1
    72    26    74    1
    73    26    75    1
    74    27    28    1
    75    27    76    1
    76    27    77    1
    77    28    29    1
    78    28    78    1
    79    28    79    1
    80    29    30    1
    81    29    31    1
    82    29    80    1
    83    30    81    1
    84    30    82    1
    85    30    83    1
    86    31    32    1
    87    31    84    1
    88    31    85    1
    89    32    33    1
    90    32    86    1
    91    32    87    1
    92    33    34    1
    93    33    88    1
    94    33    89    1
    95    34    35    1
    96    34    36    1
    97    34    90    1
    98    35    91    1
    99    35    92    1
   100    35    93    1
   101    36    94    1
   102    36    95    1
   103    36    96    1
   104    97    98    1
   105    97   132    1
   106    97   133    1
   107    97   134    1
   108    98    99    1
   109    98   100    1
   110    98   135    1
   111    99   136    1
   112    99   137    1
   113    99   138    1
   114   100   101    1
   115   100   139    1
   116   100   140    1
   117   101   102    1
   118   101   141    1
   119   101   142    1
   120   102   103    1
   121   102   143    1
   122   102   144    1
   123   103   104    1
   124   103   105    1
   125   103   145    1
   126   104   146    1
   127   104   147    1
   128   104   148    1
   129   105   106    1
   130   105   149    1
   131   105   150    1
   132   106   107    1
   133   106   151    1
   134   106   152    1
   135   107   108    1
   136   107   153    1
   137   107   154    1
   138   108   109    1
   139   108   155    1
   140   108   156    1
   141   109   110    1
   142   109   111    1
   143   110   157    1
   144   110   158    1
   145   110   159    1
   146   111   112    2
   147   111   113    1
   148   113   114    1
   149   113   160    1
   150   113   161    1
   151   114   115    1
   152   115   116    1
   153   115   162    1
   154   115   163    1
   155   116   117    2
   156   116   118    1
   157   118   119    1
   158   118   120    1
   159   119   164    1
   160   119   165    1
   161   119   166    1
   162   120   121    1
   163   120   167    1
   164   120   168    1
   165   121   122    1
   166   121   169    1
   167   121   170    1
   168   122   123    1
   169   122   171    1
   170   122   172    1
   171   123   124    1
   172   123   173    1
   173   123   174    1
   174   124   125    1
   175   124   126    1
   176   124   175    1
   177   125   176    1
   178   125   177    1
   179   125   178    1
   180   126   127    1
   181   126   179    1
   182   126   180    1
   183   127   128    1
   184   127   181    1
   185   127   182    1
   186   128   129    1
   187   128   183    1
   188   128   184    1
   189   129   130    1
   190   129   131    1
   191   129   185    1
   192   130   186    1
   193   130   187    1
   194   130   188    1
   195   131   189    1
   196   131   190    1
   197   131   191    1
   198   192   193    1
   199   192   227    1
   200   192   228    1
   201   192   229    1
   202   193   194    1
   203   193   195    1
   204   193   230    1
   205   194   231    1
   206   194   232    1
   207   194   233    1
   208   195   196    1
   209   195   234    1
   210   195   235    1
   211   196   197    1
   212   196   236    1
   213   196   237    1
   214   197   198    1
   215   197   238    1
   216   197   239    1
   217   198   199    1
   218   198   200    1
   219   198   240    1
   220   199   241    1
   221   199   242    1
   222   199   243    1
   223   200   201    1
   224   200   244    1
   225   200   245    1
   226   201   202    1
   227   201   246    1
   228   201   247    1
   229   202   203    1
   230   202   248    1
   231   202   249    1
   232   203   204    1
   233   203   250    1
   234   203   251    1
   235   204   205    1
   236   204   206    1
   237   205   252    1
   238   205   253    1
   239   205   254    1
   240   206   207    2
   241   206   208    1
   242   208   209    1
   243   208   255    1
   244   208   256    1
   245   209   210    1
   246   210   211    1
   247   210   257    1
   248   210   258    1
   249   211   212    2
   250   211   213    1
   251   213   214    1
   252   213   215    1
   253   214   259    1
   254   214   260    1
   255   214   261    1
   256   215   216    1
   257   215   262    1
   258   215   263    1
   259   216   217    1
   260   216   264    1
   261   216   265    1
   262   217   218    1
   263   217   266    1
   264   217   267    1
   265   218   219    1
   266   218   268    1
   267   218   269    1
   268   219   220    1
   269   219   221    1
   270   219   270    1
   271   220   271    1
   272   220   272    1
   273   220   273    1
   274   221   222    1
   275   221   274    1
   276   221   275    1
   277   222   223    1
   278   222   276    1
   279   222   277    1
   280   223   224    1
   281   223   278    1
   282   223   279    1
   283   224   225    1
   284   224   226    1
   285   224   280    1
   286   225   281    1
   287   225   282    1
   288   225   283    1
   289   226   284    1
   290   226   285    1
   291   226   286    1
@<TRIPOS>SUBSTRUCTURE
     1 RES1      286 GROUP             0 ****  ****    0  
