@<TRIPOS>MOLECULE
am_c3_9H2O_c0_0_nunpairedes_0_charge_3 Charge: 3 Unpaired_Electrons: 0 XTB_Unpaired_Electrons: 0 XTB_Charge: 3
   412   417     1     0     0
SMALL
NoCharges
****
Generated from Architector

@<TRIPOS>ATOM
     1 La1      -0.0699   -0.0963   -0.7546   La        1 RES1   0.0000
     2 C1        4.5233    1.9433   -1.6636   C.3       1 RES1   0.0000
     3 C2        4.7025    3.2703   -0.9278   C.3       1 RES1   0.0000
     4 C3        3.5369    4.2464   -1.1766   C.3       1 RES1   0.0000
     5 C4        3.4414    5.3100   -0.0827   C.3       1 RES1   0.0000
     6 C5        2.4130    6.4439   -0.1771   C.3       1 RES1   0.0000
     7 C6        0.9114    6.2283    0.0627   C.3       1 RES1   0.0000
     8 C7        0.4542    5.6889    1.4275   C.3       1 RES1   0.0000
     9 C8       -1.0830    5.7816    1.5724   C.3       1 RES1   0.0000
    10 C9       -1.8882    4.4808    1.4278   C.3       1 RES1   0.0000
    11 C10      -1.7901    3.5064    2.6125   C.3       1 RES1   0.0000
    12 N1       -2.7052    2.3781    2.4012   N.am      1 RES1   0.0000
    13 C11      -4.0328    2.5564    2.9775   C.3       1 RES1   0.0000
    14 C12      -4.0443    2.3682    4.5104   C.3       1 RES1   0.0000
    15 C13      -5.0384    3.3237    5.1854   C.3       1 RES1   0.0000
    16 C14      -4.6273    4.7992    5.2057   C.3       1 RES1   0.0000
    17 C15      -3.5785    5.1097    6.2747   C.3       1 RES1   0.0000
    18 C16      -3.1929    6.5924    6.3348   C.3       1 RES1   0.0000
    19 C17      -2.3216    7.0824    5.1694   C.3       1 RES1   0.0000
    20 C18      -0.8108    7.0012    5.4212   C.3       1 RES1   0.0000
    21 C19      -0.2631    5.5889    5.6258   C.3       1 RES1   0.0000
    22 C20       1.2589    5.5552    5.5721   C.3       1 RES1   0.0000
    23 C21      -2.2392    1.3301    1.7321   C.2       1 RES1   0.0000
    24 O1       -1.0321    1.2235    1.4406   O.2       1 RES1   0.0000
    25 C22      -3.1428    0.2435    1.1512   C.3       1 RES1   0.0000
    26 O2       -2.5216    0.0469   -0.1229   O.3       1 RES1   0.0000
    27 C23      -2.8503   -1.1264   -0.8661   C.3       1 RES1   0.0000
    28 C24      -2.7337   -0.5852   -2.3001   C.2       1 RES1   0.0000
    29 O3       -1.8470    0.2844   -2.4668   O.2       1 RES1   0.0000
    30 N2       -3.5959   -0.9781   -3.2185   N.am      1 RES1   0.0000
    31 C25      -3.9638   -0.1016   -4.3392   C.3       1 RES1   0.0000
    32 C26      -5.4753    0.1663   -4.2055   C.3       1 RES1   0.0000
    33 C27      -6.1351    1.2003   -5.1182   C.3       1 RES1   0.0000
    34 C28      -7.6625    1.1564   -4.9438   C.3       1 RES1   0.0000
    35 C29      -8.0914    1.5961   -3.5491   C.3       1 RES1   0.0000
    36 C30      -9.5843    1.4736   -3.2445   C.3       1 RES1   0.0000
    37 C31      -9.8911    2.0483   -1.8500   C.3       1 RES1   0.0000
    38 C32     -10.8425    1.1842   -1.0202   C.3       1 RES1   0.0000
    39 C33     -10.7475    1.5233    0.4664   C.3       1 RES1   0.0000
    40 C34     -11.7380    0.7391    1.3157   C.3       1 RES1   0.0000
    41 C35      -4.3969   -2.1832   -3.0202   C.3       1 RES1   0.0000
    42 C36      -4.4987   -3.0903   -4.2502   C.3       1 RES1   0.0000
    43 C37      -5.6068   -4.1211   -4.0136   C.3       1 RES1   0.0000
    44 C38      -7.0034   -3.4971   -3.9240   C.3       1 RES1   0.0000
    45 C39      -8.1161   -4.4733   -4.3097   C.3       1 RES1   0.0000
    46 C40      -8.4031   -5.5694   -3.2698   C.3       1 RES1   0.0000
    47 C41      -9.6694   -5.3307   -2.4369   C.3       1 RES1   0.0000
    48 C42      -9.4606   -4.3954   -1.2465   C.3       1 RES1   0.0000
    49 C43     -10.6340   -4.4639   -0.2697   C.3       1 RES1   0.0000
    50 C44     -10.3661   -3.7019    1.0225   C.3       1 RES1   0.0000
    51 H1        5.4312    1.3466   -1.5936   H         1 RES1   0.0000
    52 H2        4.3260    2.1224   -2.7195   H         1 RES1   0.0000
    53 H3        3.6982    1.3583   -1.2550   H         1 RES1   0.0000
    54 H4        5.6380    3.7066   -1.2776   H         1 RES1   0.0000
    55 H5        4.8342    3.0689    0.1383   H         1 RES1   0.0000
    56 H6        2.6239    3.6675   -1.3018   H         1 RES1   0.0000
    57 H7        3.7218    4.7632   -2.1154   H         1 RES1   0.0000
    58 H8        4.4015    5.8159   -0.1207   H         1 RES1   0.0000
    59 H9        3.3779    4.8733    0.9163   H         1 RES1   0.0000
    60 H10       2.7460    7.1645    0.5701   H         1 RES1   0.0000
    61 H11       2.5107    6.9426   -1.1451   H         1 RES1   0.0000
    62 H12       0.4704    5.6394   -0.7403   H         1 RES1   0.0000
    63 H13       0.4622    7.2153   -0.0530   H         1 RES1   0.0000
    64 H14       0.9193    6.2891    2.2121   H         1 RES1   0.0000
    65 H15       0.7716    4.6596    1.5802   H         1 RES1   0.0000
    66 H16      -1.4630    6.4703    0.8139   H         1 RES1   0.0000
    67 H17      -1.3353    6.2208    2.5362   H         1 RES1   0.0000
    68 H18      -1.6040    3.9568    0.5152   H         1 RES1   0.0000
    69 H19      -2.9418    4.7596    1.3271   H         1 RES1   0.0000
    70 H20      -2.0737    4.0079    3.5378   H         1 RES1   0.0000
    71 H21      -0.7801    3.1065    2.7255   H         1 RES1   0.0000
    72 H22      -4.7511    1.8792    2.5165   H         1 RES1   0.0000
    73 H23      -4.3422    3.5820    2.7526   H         1 RES1   0.0000
    74 H24      -3.0423    2.5336    4.9070   H         1 RES1   0.0000
    75 H25      -4.3167    1.3405    4.7671   H         1 RES1   0.0000
    76 H26      -5.1766    3.0072    6.2191   H         1 RES1   0.0000
    77 H27      -5.9991    3.2204    4.6783   H         1 RES1   0.0000
    78 H28      -5.5190    5.3898    5.4169   H         1 RES1   0.0000
    79 H29      -4.2675    5.1126    4.2244   H         1 RES1   0.0000
    80 H30      -2.6888    4.5018    6.1089   H         1 RES1   0.0000
    81 H31      -3.9947    4.8313    7.2446   H         1 RES1   0.0000
    82 H32      -2.6619    6.7816    7.2696   H         1 RES1   0.0000
    83 H33      -4.1165    7.1752    6.3685   H         1 RES1   0.0000
    84 H34      -2.5610    8.1311    4.9755   H         1 RES1   0.0000
    85 H35      -2.5815    6.5249    4.2645   H         1 RES1   0.0000
    86 H36      -0.5747    7.6039    6.2992   H         1 RES1   0.0000
    87 H37      -0.2997    7.4597    4.5693   H         1 RES1   0.0000
    88 H38      -0.6584    4.9262    4.8514   H         1 RES1   0.0000
    89 H39      -0.5896    5.2109    6.5944   H         1 RES1   0.0000
    90 H40       1.6184    5.8813    4.5985   H         1 RES1   0.0000
    91 H41       1.6236    4.5474    5.7573   H         1 RES1   0.0000
    92 H42       1.6797    6.2111    6.3270   H         1 RES1   0.0000
    93 H43      -4.1885    0.5354    1.0331   H         1 RES1   0.0000
    94 H44      -3.0672   -0.6697    1.7470   H         1 RES1   0.0000
    95 H45      -3.8480   -1.4711   -0.5954   H         1 RES1   0.0000
    96 H46      -2.1024   -1.9252   -0.7014   H         1 RES1   0.0000
    97 H47      -3.6946   -0.5632   -5.2934   H         1 RES1   0.0000
    98 H48      -3.3849    0.8182   -4.2305   H         1 RES1   0.0000
    99 H49      -5.6398    0.4900   -3.1780   H         1 RES1   0.0000
   100 H50      -6.0028   -0.7733   -4.3605   H         1 RES1   0.0000
   101 H51      -5.8889    0.9859   -6.1548   H         1 RES1   0.0000
   102 H52      -5.7535    2.1950   -4.8849   H         1 RES1   0.0000
   103 H53      -8.0217    0.1430   -5.1359   H         1 RES1   0.0000
   104 H54      -8.1297    1.8047   -5.6811   H         1 RES1   0.0000
   105 H55      -7.7716    2.6266   -3.3885   H         1 RES1   0.0000
   106 H56      -7.5749    0.9718   -2.8241   H         1 RES1   0.0000
   107 H57      -9.8645    0.4192   -3.2668   H         1 RES1   0.0000
   108 H58     -10.1769    1.9727   -4.0107   H         1 RES1   0.0000
   109 H59     -10.2966    3.0556   -1.9465   H         1 RES1   0.0000
   110 H60      -8.9543    2.1358   -1.2919   H         1 RES1   0.0000
   111 H61     -10.5751    0.1334   -1.1581   H         1 RES1   0.0000
   112 H62     -11.8668    1.3147   -1.3699   H         1 RES1   0.0000
   113 H63     -10.9233    2.5914    0.6044   H         1 RES1   0.0000
   114 H64      -9.7277    1.3093    0.8046   H         1 RES1   0.0000
   115 H65     -12.7574    1.0483    1.1095   H         1 RES1   0.0000
   116 H66     -11.5404    0.9033    2.3703   H         1 RES1   0.0000
   117 H67     -11.6660   -0.3278    1.1254   H         1 RES1   0.0000
   118 H68      -5.4032   -1.9066   -2.6964   H         1 RES1   0.0000
   119 H69      -3.9346   -2.7778   -2.2341   H         1 RES1   0.0000
   120 H70      -3.5358   -3.5816   -4.4067   H         1 RES1   0.0000
   121 H71      -4.7196   -2.5256   -5.1541   H         1 RES1   0.0000
   122 H72      -5.3921   -4.6823   -3.1044   H         1 RES1   0.0000
   123 H73      -5.5909   -4.8245   -4.8422   H         1 RES1   0.0000
   124 H74      -7.0565   -2.6532   -4.6153   H         1 RES1   0.0000
   125 H75      -7.1919   -3.1275   -2.9146   H         1 RES1   0.0000
   126 H76      -7.8458   -4.9298   -5.2645   H         1 RES1   0.0000
   127 H77      -9.0296   -3.9015   -4.4814   H         1 RES1   0.0000
   128 H78      -7.5496   -5.6727   -2.5939   H         1 RES1   0.0000
   129 H79      -8.5194   -6.5204   -3.7932   H         1 RES1   0.0000
   130 H80     -10.0160   -6.2936   -2.0572   H         1 RES1   0.0000
   131 H81     -10.4640   -4.9439   -3.0777   H         1 RES1   0.0000
   132 H82      -9.3240   -3.3682   -1.5917   H         1 RES1   0.0000
   133 H83      -8.5457   -4.6853   -0.7215   H         1 RES1   0.0000
   134 H84     -10.8254   -5.5097   -0.0239   H         1 RES1   0.0000
   135 H85     -11.5327   -4.0705   -0.7467   H         1 RES1   0.0000
   136 H86      -9.4950   -4.1144    1.5312   H         1 RES1   0.0000
   137 H87     -11.2158   -3.7820    1.6959   H         1 RES1   0.0000
   138 H88     -10.1891   -2.6469    0.8192   H         1 RES1   0.0000
   139 C45       0.5338   -5.6029   -0.4550   C.3       1 RES1   0.0000
   140 C46       1.9852   -6.0667   -0.3546   C.3       1 RES1   0.0000
   141 C47       2.7221   -5.5297    0.8765   C.3       1 RES1   0.0000
   142 C48       4.2392   -5.7656    0.9037   C.3       1 RES1   0.0000
   143 C49       5.0455   -5.0257   -0.1765   C.3       1 RES1   0.0000
   144 C50       5.5629   -3.5833    0.0817   C.3       1 RES1   0.0000
   145 C51       5.3299   -2.9485    1.4539   C.3       1 RES1   0.0000
   146 C52       6.0029   -1.5727    1.5746   C.3       1 RES1   0.0000
   147 C53       5.1913   -0.3767    1.0575   C.3       1 RES1   0.0000
   148 C54       4.2223    0.0606    2.1558   C.3       1 RES1   0.0000
   149 N3        3.4472    1.2628    1.8786   N.am      1 RES1   0.0000
   150 C55       3.9259    2.4629    2.5425   C.3       1 RES1   0.0000
   151 C56       3.8957    2.4065    4.0810   C.3       1 RES1   0.0000
   152 C57       5.2429    2.8298    4.6918   C.3       1 RES1   0.0000
   153 C58       6.2658    1.7131    4.9331   C.3       1 RES1   0.0000
   154 C59       5.8345    0.7742    6.0586   C.3       1 RES1   0.0000
   155 C60       6.8758   -0.2738    6.4639   C.3       1 RES1   0.0000
   156 C61       7.1588   -1.3814    5.4418   C.3       1 RES1   0.0000
   157 C62       6.2296   -2.6001    5.5223   C.3       1 RES1   0.0000
   158 C63       4.7549   -2.2930    5.2524   C.3       1 RES1   0.0000
   159 C64       3.9129   -3.5554    5.0857   C.3       1 RES1   0.0000
   160 C65       2.4256    1.2152    1.0474   C.2       1 RES1   0.0000
   161 O4        2.1174    0.1791    0.4191   O.2       1 RES1   0.0000
   162 C66       1.5126    2.4140    0.8387   C.3       1 RES1   0.0000
   163 O5        0.6433    2.0251   -0.2270   O.3       1 RES1   0.0000
   164 C67       0.1270    2.9769   -1.1551   C.3       1 RES1   0.0000
   165 C68       0.7663    2.6353   -2.5208   C.2       1 RES1   0.0000
   166 O6        1.2072    1.4747   -2.6255   O.2       1 RES1   0.0000
   167 N4        0.8350    3.5920   -3.4407   N.am      1 RES1   0.0000
   168 C69       1.8109    3.4950   -4.5341   C.3       1 RES1   0.0000
   169 C70       2.5008    4.8507   -4.7932   C.3       1 RES1   0.0000
   170 C71       3.9656    4.7777   -5.2428   C.3       1 RES1   0.0000
   171 C72       4.6776    6.1421   -5.0838   C.3       1 RES1   0.0000
   172 C73       5.5757    6.2504   -3.8321   C.3       1 RES1   0.0000
   173 C74       5.2401    7.3921   -2.8644   C.3       1 RES1   0.0000
   174 C75       6.2441    7.4231   -1.6985   C.3       1 RES1   0.0000
   175 C76       5.8503    8.3645   -0.5375   C.3       1 RES1   0.0000
   176 C77       6.0216    7.7472    0.8539   C.3       1 RES1   0.0000
   177 C78       5.5285    8.6482    1.9749   C.3       1 RES1   0.0000
   178 C79       0.0134    4.8003   -3.3399   C.3       1 RES1   0.0000
   179 C80      -0.7085    5.2564   -4.6192   C.3       1 RES1   0.0000
   180 C81      -1.0564    6.7529   -4.5128   C.3       1 RES1   0.0000
   181 C82       0.1548    7.6911   -4.5773   C.3       1 RES1   0.0000
   182 C83      -0.2270    9.1451   -4.8692   C.3       1 RES1   0.0000
   183 C84      -0.8816    9.9062   -3.7107   C.3       1 RES1   0.0000
   184 C85       0.0964   10.5865   -2.7397   C.3       1 RES1   0.0000
   185 C86       0.4748    9.7485   -1.5191   C.3       1 RES1   0.0000
   186 C87       1.1546   10.5989   -0.4460   C.3       1 RES1   0.0000
   187 C88       1.4779    9.7998    0.8097   C.3       1 RES1   0.0000
   188 H89       0.0980   -5.9346   -1.3917   H         1 RES1   0.0000
   189 H90      -0.0593   -6.0305    0.3502   H         1 RES1   0.0000
   190 H91       0.4454   -4.5181   -0.4329   H         1 RES1   0.0000
   191 H92       2.5138   -5.7874   -1.2713   H         1 RES1   0.0000
   192 H93       1.9901   -7.1545   -0.2983   H         1 RES1   0.0000
   193 H94       2.2965   -5.9954    1.7681   H         1 RES1   0.0000
   194 H95       2.5615   -4.4592    0.9513   H         1 RES1   0.0000
   195 H96       4.4208   -6.8326    0.7652   H         1 RES1   0.0000
   196 H97       4.6240   -5.4999    1.8934   H         1 RES1   0.0000
   197 H98       5.9226   -5.6391   -0.3699   H         1 RES1   0.0000
   198 H99       4.4593   -5.0238   -1.0995   H         1 RES1   0.0000
   199 H100      5.1557   -2.9186   -0.6842   H         1 RES1   0.0000
   200 H101      6.6437   -3.5933   -0.0703   H         1 RES1   0.0000
   201 H102      5.7608   -3.5798    2.2316   H         1 RES1   0.0000
   202 H103      4.2627   -2.8472    1.6517   H         1 RES1   0.0000
   203 H104      6.9676   -1.6071    1.0709   H         1 RES1   0.0000
   204 H105      6.2117   -1.3760    2.6276   H         1 RES1   0.0000
   205 H106      4.6536   -0.6116    0.1378   H         1 RES1   0.0000
   206 H107      5.8712    0.4478    0.8362   H         1 RES1   0.0000
   207 H108      4.7946    0.2756    3.0552   H         1 RES1   0.0000
   208 H109      3.5317   -0.7517    2.3839   H         1 RES1   0.0000
   209 H110      3.3446    3.3160    2.2046   H         1 RES1   0.0000
   210 H111      4.9592    2.6091    2.2167   H         1 RES1   0.0000
   211 H112      3.6237    1.4109    4.4271   H         1 RES1   0.0000
   212 H113      3.1204    3.0829    4.4433   H         1 RES1   0.0000
   213 H114      5.0518    3.3087    5.6509   H         1 RES1   0.0000
   214 H115      5.6858    3.5855    4.0411   H         1 RES1   0.0000
   215 H116      7.2045    2.1860    5.2214   H         1 RES1   0.0000
   216 H117      6.4664    1.1612    4.0127   H         1 RES1   0.0000
   217 H118      4.9041    0.2824    5.7827   H         1 RES1   0.0000
   218 H119      5.6326    1.3899    6.9366   H         1 RES1   0.0000
   219 H120      6.5484   -0.7390    7.3952   H         1 RES1   0.0000
   220 H121      7.8085    0.2480    6.6824   H         1 RES1   0.0000
   221 H122      8.1738   -1.7468    5.6108   H         1 RES1   0.0000
   222 H123      7.1396   -0.9658    4.4310   H         1 RES1   0.0000
   223 H124      6.3237   -3.0546    6.5115   H         1 RES1   0.0000
   224 H125      6.5761   -3.3366    4.7894   H         1 RES1   0.0000
   225 H126      4.6728   -1.6921    4.3407   H         1 RES1   0.0000
   226 H127      4.3470   -1.7172    6.0858   H         1 RES1   0.0000
   227 H128      4.2562   -4.1444    4.2361   H         1 RES1   0.0000
   228 H129      2.8693   -3.2824    4.9212   H         1 RES1   0.0000
   229 H130      3.9727   -4.1737    5.9786   H         1 RES1   0.0000
   230 H131      2.0601    3.3221    0.6038   H         1 RES1   0.0000
   231 H132      0.9258    2.5405    1.7630   H         1 RES1   0.0000
   232 H133      0.3396    3.9910   -0.8233   H         1 RES1   0.0000
   233 H134     -0.9623    2.8164   -1.2113   H         1 RES1   0.0000
   234 H135      1.3240    3.0975   -5.4289   H         1 RES1   0.0000
   235 H136      2.5545    2.7557   -4.2251   H         1 RES1   0.0000
   236 H137      2.4896    5.4230   -3.8664   H         1 RES1   0.0000
   237 H138      1.9538    5.4136   -5.5495   H         1 RES1   0.0000
   238 H139      4.0109    4.4789   -6.2896   H         1 RES1   0.0000
   239 H140      4.4918    4.0140   -4.6661   H         1 RES1   0.0000
   240 H141      3.9286    6.9376   -5.0770   H         1 RES1   0.0000
   241 H142      5.2936    6.3057   -5.9671   H         1 RES1   0.0000
   242 H143      6.6134    6.3876   -4.1367   H         1 RES1   0.0000
   243 H144      5.5358    5.3103   -3.2760   H         1 RES1   0.0000
   244 H145      4.2292    7.2595   -2.4703   H         1 RES1   0.0000
   245 H146      5.2654    8.3493   -3.3881   H         1 RES1   0.0000
   246 H147      7.2188    7.7124   -2.0980   H         1 RES1   0.0000
   247 H148      6.3560    6.4028   -1.3210   H         1 RES1   0.0000
   248 H149      4.8100    8.6728   -0.6642   H         1 RES1   0.0000
   249 H150      6.4560    9.2687   -0.5926   H         1 RES1   0.0000
   250 H151      7.0696    7.5007    1.0157   H         1 RES1   0.0000
   251 H152      5.4673    6.8116    0.9131   H         1 RES1   0.0000
   252 H153      6.1626    9.5159    2.0930   H         1 RES1   0.0000
   253 H154      5.5277    8.1033    2.9118   H         1 RES1   0.0000
   254 H155      4.5173    8.9937    1.7890   H         1 RES1   0.0000
   255 H156      0.6253    5.6381   -2.9990   H         1 RES1   0.0000
   256 H157     -0.7654    4.6102   -2.6042   H         1 RES1   0.0000
   257 H158     -1.6257    4.6745   -4.7330   H         1 RES1   0.0000
   258 H159     -0.1128    5.0784   -5.5119   H         1 RES1   0.0000
   259 H160     -1.6077    6.9346   -3.5875   H         1 RES1   0.0000
   260 H161     -1.7291    6.9968   -5.3350   H         1 RES1   0.0000
   261 H162      0.8149    7.3558   -5.3793   H         1 RES1   0.0000
   262 H163      0.7175    7.6575   -3.6425   H         1 RES1   0.0000
   263 H164     -0.8928    9.1576   -5.7351   H         1 RES1   0.0000
   264 H165      0.6756    9.6805   -5.1636   H         1 RES1   0.0000
   265 H166     -1.5443    9.2391   -3.1555   H         1 RES1   0.0000
   266 H167     -1.4996   10.6881   -4.1522   H         1 RES1   0.0000
   267 H168     -0.3645   11.5066   -2.3762   H         1 RES1   0.0000
   268 H169      1.0026   10.8808   -3.2718   H         1 RES1   0.0000
   269 H170      1.1413    8.9330   -1.8124   H         1 RES1   0.0000
   270 H171     -0.4300    9.3038   -1.0938   H         1 RES1   0.0000
   271 H172      0.4976   11.4286   -0.1830   H         1 RES1   0.0000
   272 H173      2.0745   11.0257   -0.8489   H         1 RES1   0.0000
   273 H174      0.5728    9.3860    1.2532   H         1 RES1   0.0000
   274 H175      1.9651   10.4271    1.5504   H         1 RES1   0.0000
   275 H176      2.1537    8.9863    0.5657   H         1 RES1   0.0000
   276 C89      -5.0010    2.5706   -0.5744   C.3       1 RES1   0.0000
   277 C90      -6.2465    1.8390   -0.0679   C.3       1 RES1   0.0000
   278 C91      -6.3102    0.3375   -0.4218   C.3       1 RES1   0.0000
   279 C92      -6.7584   -0.5652    0.7313   C.3       1 RES1   0.0000
   280 C93      -7.0340   -2.0145    0.2998   C.3       1 RES1   0.0000
   281 C94      -5.8819   -3.0171    0.4021   C.3       1 RES1   0.0000
   282 C95      -5.2287   -3.1045    1.7818   C.3       1 RES1   0.0000
   283 C96      -4.3016   -4.3193    1.9508   C.3       1 RES1   0.0000
   284 C97      -2.8147   -4.0460    1.6861   C.3       1 RES1   0.0000
   285 C98      -2.1003   -3.3560    2.8564   C.3       1 RES1   0.0000
   286 N5       -0.6586   -3.3174    2.6415   N.am      1 RES1   0.0000
   287 C99       0.0949   -4.4308    3.1972   C.3       1 RES1   0.0000
   288 C100     -0.0021   -4.5995    4.7241   C.3       1 RES1   0.0000
   289 C101     -0.3159   -6.0556    5.1022   C.3       1 RES1   0.0000
   290 C102     -1.8117   -6.3853    5.1320   C.3       1 RES1   0.0000
   291 C103     -2.4952   -5.7699    6.3528   C.3       1 RES1   0.0000
   292 C104     -3.9289   -6.2445    6.5962   C.3       1 RES1   0.0000
   293 C105     -4.9691   -5.8022    5.5631   C.3       1 RES1   0.0000
   294 C106     -5.6263   -4.4441    5.8364   C.3       1 RES1   0.0000
   295 C107     -4.6912   -3.2383    5.7222   C.3       1 RES1   0.0000
   296 C108     -5.4598   -1.9236    5.6348   C.3       1 RES1   0.0000
   297 C109     -0.2042   -2.4056    1.8045   C.2       1 RES1   0.0000
   298 O7       -0.9556   -1.5960    1.2216   O.2       1 RES1   0.0000
   299 C110      1.2577   -2.2642    1.4117   C.3       1 RES1   0.0000
   300 O8        1.1364   -2.1814   -0.0131   O.3       1 RES1   0.0000
   301 C111      2.2679   -2.3170   -0.8710   C.3       1 RES1   0.0000
   302 C112      1.6074   -2.2993   -2.2644   C.2       1 RES1   0.0000
   303 O9        0.4049   -1.9434   -2.3261   O.2       1 RES1   0.0000
   304 N6        2.3097   -2.7377   -3.2949   N.am      1 RES1   0.0000
   305 C113      1.6448   -3.3866   -4.4277   C.3       1 RES1   0.0000
   306 C114      2.1307   -4.8492   -4.4981   C.3       1 RES1   0.0000
   307 C115      1.1468   -5.8925   -5.0341   C.3       1 RES1   0.0000
   308 C116      1.7761   -7.2972   -5.0184   C.3       1 RES1   0.0000
   309 C117      2.1148   -7.7342   -3.5953   C.3       1 RES1   0.0000
   310 C118      2.5537   -9.1896   -3.3962   C.3       1 RES1   0.0000
   311 C119      2.4229   -9.5494   -1.9019   C.3       1 RES1   0.0000
   312 C120      3.6313  -10.2246   -1.2486   C.3       1 RES1   0.0000
   313 C121      3.4976  -10.1653    0.2743   C.3       1 RES1   0.0000
   314 C122      4.7297  -10.6515    1.0221   C.3       1 RES1   0.0000
   315 C123      3.7658   -2.8174   -3.2112   C.3       1 RES1   0.0000
   316 C124      4.5168   -2.5712   -4.5242   C.3       1 RES1   0.0000
   317 C125      5.9596   -3.0876   -4.4125   C.3       1 RES1   0.0000
   318 C126      6.0636   -4.5927   -4.1279   C.3       1 RES1   0.0000
   319 C127      7.3988   -5.1902   -4.5776   C.3       1 RES1   0.0000
   320 C128      8.6015   -4.8077   -3.7008   C.3       1 RES1   0.0000
   321 C129      9.0930   -5.9365   -2.7879   C.3       1 RES1   0.0000
   322 C130      8.1594   -6.1898   -1.6057   C.3       1 RES1   0.0000
   323 C131      8.7809   -7.0799   -0.5278   C.3       1 RES1   0.0000
   324 C132      7.9302   -7.1137    0.7398   C.3       1 RES1   0.0000
   325 H177     -4.8244    2.3823   -1.6328   H         1 RES1   0.0000
   326 H178     -4.1030    2.3022   -0.0245   H         1 RES1   0.0000
   327 H179     -5.1327    3.6418   -0.4450   H         1 RES1   0.0000
   328 H180     -7.1177    2.3354   -0.4997   H         1 RES1   0.0000
   329 H181     -6.3325    1.9893    1.0091   H         1 RES1   0.0000
   330 H182     -5.3567    0.0056   -0.8339   H         1 RES1   0.0000
   331 H183     -7.0648    0.2182   -1.2021   H         1 RES1   0.0000
   332 H184     -7.7072   -0.1651    1.0919   H         1 RES1   0.0000
   333 H185     -6.0547   -0.5519    1.5636   H         1 RES1   0.0000
   334 H186     -7.3853   -2.0101   -0.7355   H         1 RES1   0.0000
   335 H187     -7.8570   -2.3947    0.9030   H         1 RES1   0.0000
   336 H188     -5.1323   -2.8093   -0.3613   H         1 RES1   0.0000
   337 H189     -6.2984   -3.9976    0.1706   H         1 RES1   0.0000
   338 H190     -6.0196   -3.1605    2.5292   H         1 RES1   0.0000
   339 H191     -4.6596   -2.1992    1.9960   H         1 RES1   0.0000
   340 H192     -4.6322   -5.1311    1.2987   H         1 RES1   0.0000
   341 H193     -4.3956   -4.6988    2.9685   H         1 RES1   0.0000
   342 H194     -2.6915   -3.4443    0.7833   H         1 RES1   0.0000
   343 H195     -2.3201   -5.0064    1.5194   H         1 RES1   0.0000
   344 H196     -2.2707   -3.9052    3.7795   H         1 RES1   0.0000
   345 H197     -2.4423   -2.3268    2.9890   H         1 RES1   0.0000
   346 H198      1.1403   -4.3333    2.9278   H         1 RES1   0.0000
   347 H199     -0.2808   -5.3405    2.7193   H         1 RES1   0.0000
   348 H200     -0.7664   -3.9474    5.1412   H         1 RES1   0.0000
   349 H201      0.9399   -4.2981    5.1846   H         1 RES1   0.0000
   350 H202      0.0941   -6.2640    6.0900   H         1 RES1   0.0000
   351 H203      0.1932   -6.7153    4.3964   H         1 RES1   0.0000
   352 H204     -1.9250   -7.4680    5.1756   H         1 RES1   0.0000
   353 H205     -2.2879   -6.0566    4.2064   H         1 RES1   0.0000
   354 H206     -2.4711   -4.6841    6.2793   H         1 RES1   0.0000
   355 H207     -1.9077   -6.0449    7.2298   H         1 RES1   0.0000
   356 H208     -4.2433   -5.8929    7.5791   H         1 RES1   0.0000
   357 H209     -3.9158   -7.3343    6.6414   H         1 RES1   0.0000
   358 H210     -5.7662   -6.5486    5.5465   H         1 RES1   0.0000
   359 H211     -4.5139   -5.8072    4.5702   H         1 RES1   0.0000
   360 H212     -6.0743   -4.4628    6.8318   H         1 RES1   0.0000
   361 H213     -6.4397   -4.3211    5.1152   H         1 RES1   0.0000
   362 H214     -4.0783   -3.3440    4.8229   H         1 RES1   0.0000
   363 H215     -4.0292   -3.1976    6.5892   H         1 RES1   0.0000
   364 H216     -6.1731   -1.9485    4.8129   H         1 RES1   0.0000
   365 H217     -4.7733   -1.0938    5.4692   H         1 RES1   0.0000
   366 H218     -6.0042   -1.7374    6.5563   H         1 RES1   0.0000
   367 H219      1.9306   -3.0597    1.7119   H         1 RES1   0.0000
   368 H220      1.6080   -1.3090    1.8195   H         1 RES1   0.0000
   369 H221      2.7747   -3.2773   -0.7108   H         1 RES1   0.0000
   370 H222      2.9723   -1.4870   -0.7276   H         1 RES1   0.0000
   371 H223      1.8524   -2.8339   -5.3457   H         1 RES1   0.0000
   372 H224      0.5726   -3.3425   -4.2321   H         1 RES1   0.0000
   373 H225      2.3775   -5.1493   -3.4804   H         1 RES1   0.0000
   374 H226      3.0408   -4.9048   -5.0939   H         1 RES1   0.0000
   375 H227      0.8425   -5.6434   -6.0497   H         1 RES1   0.0000
   376 H228      0.2493   -5.8950   -4.4104   H         1 RES1   0.0000
   377 H229      2.6665   -7.3166   -5.6467   H         1 RES1   0.0000
   378 H230      1.0656   -8.0066   -5.4432   H         1 RES1   0.0000
   379 H231      1.2184   -7.5650   -2.9939   H         1 RES1   0.0000
   380 H232      2.9195   -7.1116   -3.1996   H         1 RES1   0.0000
   381 H233      3.5874   -9.3104   -3.7239   H         1 RES1   0.0000
   382 H234      1.9428   -9.8549   -4.0065   H         1 RES1   0.0000
   383 H235      1.5340  -10.1632   -1.7462   H         1 RES1   0.0000
   384 H236      2.2616   -8.6212   -1.3514   H         1 RES1   0.0000
   385 H237      4.5440   -9.7053   -1.5488   H         1 RES1   0.0000
   386 H238      3.7173  -11.2611   -1.5735   H         1 RES1   0.0000
   387 H239      2.6386  -10.7638    0.5764   H         1 RES1   0.0000
   388 H240      3.2893   -9.1310    0.5661   H         1 RES1   0.0000
   389 H241      4.8919  -11.7111    0.8604   H         1 RES1   0.0000
   390 H242      4.6055  -10.4881    2.0888   H         1 RES1   0.0000
   391 H243      5.6199  -10.1203    0.6986   H         1 RES1   0.0000
   392 H244      4.0541   -3.8045   -2.8422   H         1 RES1   0.0000
   393 H245      4.0956   -2.0605   -2.4993   H         1 RES1   0.0000
   394 H246      4.5123   -1.5031   -4.7613   H         1 RES1   0.0000
   395 H247      4.0372   -3.0888   -5.3507   H         1 RES1   0.0000
   396 H248      6.4884   -2.5265   -3.6411   H         1 RES1   0.0000
   397 H249      6.4487   -2.8787   -5.3637   H         1 RES1   0.0000
   398 H250      5.2644   -5.1103   -4.6639   H         1 RES1   0.0000
   399 H251      5.9392   -4.7877   -3.0619   H         1 RES1   0.0000
   400 H252      7.5773   -4.8806   -5.6076   H         1 RES1   0.0000
   401 H253      7.2986   -6.2753   -4.5894   H         1 RES1   0.0000
   402 H254      8.3502   -3.9413   -3.0841   H         1 RES1   0.0000
   403 H255      9.4290   -4.5125   -4.3461   H         1 RES1   0.0000
   404 H256     10.0760   -5.6605   -2.4001   H         1 RES1   0.0000
   405 H257      9.2172   -6.8532   -3.3667   H         1 RES1   0.0000
   406 H258      7.2291   -6.6423   -1.9602   H         1 RES1   0.0000
   407 H259      7.9177   -5.2215   -1.1554   H         1 RES1   0.0000
   408 H260      9.7718   -6.6957   -0.2769   H         1 RES1   0.0000
   409 H261      8.9073   -8.0948   -0.9097   H         1 RES1   0.0000
   410 H262      7.7995   -6.1069    1.1381   H         1 RES1   0.0000
   411 H263      8.4077   -7.7184    1.5070   H         1 RES1   0.0000
   412 H264      6.9485   -7.5396    0.5349   H         1 RES1   0.0000
@<TRIPOS>BOND
     1     1    24    1
     2     1    26    1
     3     1    29    1
     4     1   161    1
     5     1   163    1
     6     1   166    1
     7     1   298    1
     8     1   300    1
     9     1   303    1
    10     2     3    1
    11     2    51    1
    12     2    52    1
    13     2    53    1
    14     3     4    1
    15     3    54    1
    16     3    55    1
    17     4     5    1
    18     4    56    1
    19     4    57    1
    20     5     6    1
    21     5    58    1
    22     5    59    1
    23     6     7    1
    24     6    60    1
    25     6    61    1
    26     7     8    1
    27     7    62    1
    28     7    63    1
    29     8     9    1
    30     8    64    1
    31     8    65    1
    32     9    10    1
    33     9    66    1
    34     9    67    1
    35    10    11    1
    36    10    68    1
    37    10    69    1
    38    11    12    1
    39    11    70    1
    40    11    71    1
    41    12    13    1
    42    12    23    1
    43    13    14    1
    44    13    72    1
    45    13    73    1
    46    14    15    1
    47    14    74    1
    48    14    75    1
    49    15    16    1
    50    15    76    1
    51    15    77    1
    52    16    17    1
    53    16    78    1
    54    16    79    1
    55    17    18    1
    56    17    80    1
    57    17    81    1
    58    18    19    1
    59    18    82    1
    60    18    83    1
    61    19    20    1
    62    19    84    1
    63    19    85    1
    64    20    21    1
    65    20    86    1
    66    20    87    1
    67    21    22    1
    68    21    88    1
    69    21    89    1
    70    22    90    1
    71    22    91    1
    72    22    92    1
    73    23    24    2
    74    23    25    1
    75    25    26    1
    76    25    93    1
    77    25    94    1
    78    26    27    1
    79    27    28    1
    80    27    95    1
    81    27    96    1
    82    28    29    2
    83    28    30    1
    84    30    31    1
    85    30    41    1
    86    31    32    1
    87    31    97    1
    88    31    98    1
    89    32    33    1
    90    32    99    1
    91    32   100    1
    92    33    34    1
    93    33   101    1
    94    33   102    1
    95    34    35    1
    96    34   103    1
    97    34   104    1
    98    35    36    1
    99    35   105    1
   100    35   106    1
   101    36    37    1
   102    36   107    1
   103    36   108    1
   104    37    38    1
   105    37   109    1
   106    37   110    1
   107    38    39    1
   108    38   111    1
   109    38   112    1
   110    39    40    1
   111    39   113    1
   112    39   114    1
   113    40   115    1
   114    40   116    1
   115    40   117    1
   116    41    42    1
   117    41   118    1
   118    41   119    1
   119    42    43    1
   120    42   120    1
   121    42   121    1
   122    43    44    1
   123    43   122    1
   124    43   123    1
   125    44    45    1
   126    44   124    1
   127    44   125    1
   128    45    46    1
   129    45   126    1
   130    45   127    1
   131    46    47    1
   132    46   128    1
   133    46   129    1
   134    47    48    1
   135    47   130    1
   136    47   131    1
   137    48    49    1
   138    48   132    1
   139    48   133    1
   140    49    50    1
   141    49   134    1
   142    49   135    1
   143    50   136    1
   144    50   137    1
   145    50   138    1
   146   139   140    1
   147   139   188    1
   148   139   189    1
   149   139   190    1
   150   140   141    1
   151   140   191    1
   152   140   192    1
   153   141   142    1
   154   141   193    1
   155   141   194    1
   156   142   143    1
   157   142   195    1
   158   142   196    1
   159   143   144    1
   160   143   197    1
   161   143   198    1
   162   144   145    1
   163   144   199    1
   164   144   200    1
   165   145   146    1
   166   145   201    1
   167   145   202    1
   168   146   147    1
   169   146   203    1
   170   146   204    1
   171   147   148    1
   172   147   205    1
   173   147   206    1
   174   148   149    1
   175   148   207    1
   176   148   208    1
   177   149   150    1
   178   149   160    1
   179   150   151    1
   180   150   209    1
   181   150   210    1
   182   151   152    1
   183   151   211    1
   184   151   212    1
   185   152   153    1
   186   152   213    1
   187   152   214    1
   188   153   154    1
   189   153   215    1
   190   153   216    1
   191   154   155    1
   192   154   217    1
   193   154   218    1
   194   155   156    1
   195   155   219    1
   196   155   220    1
   197   156   157    1
   198   156   221    1
   199   156   222    1
   200   157   158    1
   201   157   223    1
   202   157   224    1
   203   158   159    1
   204   158   225    1
   205   158   226    1
   206   159   227    1
   207   159   228    1
   208   159   229    1
   209   160   161    2
   210   160   162    1
   211   162   163    1
   212   162   230    1
   213   162   231    1
   214   163   164    1
   215   164   165    1
   216   164   232    1
   217   164   233    1
   218   165   166    2
   219   165   167    1
   220   167   168    1
   221   167   178    1
   222   168   169    1
   223   168   234    1
   224   168   235    1
   225   169   170    1
   226   169   236    1
   227   169   237    1
   228   170   171    1
   229   170   238    1
   230   170   239    1
   231   171   172    1
   232   171   240    1
   233   171   241    1
   234   172   173    1
   235   172   242    1
   236   172   243    1
   237   173   174    1
   238   173   244    1
   239   173   245    1
   240   174   175    1
   241   174   246    1
   242   174   247    1
   243   175   176    1
   244   175   248    1
   245   175   249    1
   246   176   177    1
   247   176   250    1
   248   176   251    1
   249   177   252    1
   250   177   253    1
   251   177   254    1
   252   178   179    1
   253   178   255    1
   254   178   256    1
   255   179   180    1
   256   179   257    1
   257   179   258    1
   258   180   181    1
   259   180   259    1
   260   180   260    1
   261   181   182    1
   262   181   261    1
   263   181   262    1
   264   182   183    1
   265   182   263    1
   266   182   264    1
   267   183   184    1
   268   183   265    1
   269   183   266    1
   270   184   185    1
   271   184   267    1
   272   184   268    1
   273   185   186    1
   274   185   269    1
   275   185   270    1
   276   186   187    1
   277   186   271    1
   278   186   272    1
   279   187   273    1
   280   187   274    1
   281   187   275    1
   282   276   277    1
   283   276   325    1
   284   276   326    1
   285   276   327    1
   286   277   278    1
   287   277   328    1
   288   277   329    1
   289   278   279    1
   290   278   330    1
   291   278   331    1
   292   279   280    1
   293   279   332    1
   294   279   333    1
   295   280   281    1
   296   280   334    1
   297   280   335    1
   298   281   282    1
   299   281   336    1
   300   281   337    1
   301   282   283    1
   302   282   338    1
   303   282   339    1
   304   283   284    1
   305   283   340    1
   306   283   341    1
   307   284   285    1
   308   284   342    1
   309   284   343    1
   310   285   286    1
   311   285   344    1
   312   285   345    1
   313   286   287    1
   314   286   297    1
   315   287   288    1
   316   287   346    1
   317   287   347    1
   318   288   289    1
   319   288   348    1
   320   288   349    1
   321   289   290    1
   322   289   350    1
   323   289   351    1
   324   290   291    1
   325   290   352    1
   326   290   353    1
   327   291   292    1
   328   291   354    1
   329   291   355    1
   330   292   293    1
   331   292   356    1
   332   292   357    1
   333   293   294    1
   334   293   358    1
   335   293   359    1
   336   294   295    1
   337   294   360    1
   338   294   361    1
   339   295   296    1
   340   295   362    1
   341   295   363    1
   342   296   364    1
   343   296   365    1
   344   296   366    1
   345   297   298    2
   346   297   299    1
   347   299   300    1
   348   299   367    1
   349   299   368    1
   350   300   301    1
   351   301   302    1
   352   301   369    1
   353   301   370    1
   354   302   303    2
   355   302   304    1
   356   304   305    1
   357   304   315    1
   358   305   306    1
   359   305   371    1
   360   305   372    1
   361   306   307    1
   362   306   373    1
   363   306   374    1
   364   307   308    1
   365   307   375    1
   366   307   376    1
   367   308   309    1
   368   308   377    1
   369   308   378    1
   370   309   310    1
   371   309   379    1
   372   309   380    1
   373   310   311    1
   374   310   381    1
   375   310   382    1
   376   311   312    1
   377   311   383    1
   378   311   384    1
   379   312   313    1
   380   312   385    1
   381   312   386    1
   382   313   314    1
   383   313   387    1
   384   313   388    1
   385   314   389    1
   386   314   390    1
   387   314   391    1
   388   315   316    1
   389   315   392    1
   390   315   393    1
   391   316   317    1
   392   316   394    1
   393   316   395    1
   394   317   318    1
   395   317   396    1
   396   317   397    1
   397   318   319    1
   398   318   398    1
   399   318   399    1
   400   319   320    1
   401   319   400    1
   402   319   401    1
   403   320   321    1
   404   320   402    1
   405   320   403    1
   406   321   322    1
   407   321   404    1
   408   321   405    1
   409   322   323    1
   410   322   406    1
   411   322   407    1
   412   323   324    1
   413   323   408    1
   414   323   409    1
   415   324   410    1
   416   324   411    1
   417   324   412    1
@<TRIPOS>SUBSTRUCTURE
     1 RES1      412 GROUP             0 ****  ****    0  
