@<TRIPOS>MOLECULE
am_c3_9H2O_c0_0_nunpairedes_0_charge_3 Charge: 3 Unpaired_Electrons: 0 XTB_Unpaired_Electrons: 0 XTB_Charge: 3
    92    97     1     0     0
SMALL
NoCharges
****
Generated from Architector

@<TRIPOS>ATOM
     1 La1      -0.9594   -0.9315    0.1829   La        1 RES1   0.0000
     2 C1       -0.5397    6.1414    3.8869   C.3       1 RES1   0.0000
     3 C2       -0.7139    4.8308    3.1459   C.3       1 RES1   0.0000
     4 C3       -0.1849    4.8744    1.7165   C.3       1 RES1   0.0000
     5 C4        1.3079    5.1863    1.5878   C.3       1 RES1   0.0000
     6 C5        2.2386    4.1898    2.2834   C.3       1 RES1   0.0000
     7 C6        2.0957    2.7534    1.7870   C.3       1 RES1   0.0000
     8 O1        1.2694    1.9723    2.7194   O.3       1 RES1   0.0000
     9 P1        0.2936    0.8649    2.3088   P.3       1 RES1   0.0000
    10 O2       -0.7481    1.0837    1.2605   O.2       1 RES1   0.0000
    11 O3        1.1473   -0.4159    1.6921   O.3       1 RES1   0.0000
    12 O4       -0.3049    0.3172    3.6481   O.3       1 RES1   0.0000
    13 C7       -1.5618   -0.3814    3.6491   C.3       1 RES1   0.0000
    14 C8       -1.5825   -1.4793    4.7012   C.3       1 RES1   0.0000
    15 C9       -1.7173   -0.9626    6.1381   C.3       1 RES1   0.0000
    16 C10      -0.5158   -0.1951    6.7095   C.3       1 RES1   0.0000
    17 C11       0.6349   -1.0767    7.1902   C.3       1 RES1   0.0000
    18 C12       1.4307   -1.7395    6.0759   C.3       1 RES1   0.0000
    19 H1       -1.0441    6.1228    4.8495   H         1 RES1   0.0000
    20 H2       -0.9286    6.9742    3.3006   H         1 RES1   0.0000
    21 H3        0.5127    6.3567    4.0745   H         1 RES1   0.0000
    22 H4       -1.7822    4.5956    3.1075   H         1 RES1   0.0000
    23 H5       -0.2466    4.0167    3.7075   H         1 RES1   0.0000
    24 H6       -0.7224    5.6555    1.1725   H         1 RES1   0.0000
    25 H7       -0.3960    3.9179    1.2266   H         1 RES1   0.0000
    26 H8        1.5037    6.1782    1.9910   H         1 RES1   0.0000
    27 H9        1.5652    5.2147    0.5271   H         1 RES1   0.0000
    28 H10       2.1062    4.1962    3.3653   H         1 RES1   0.0000
    29 H11       3.2635    4.5053    2.0753   H         1 RES1   0.0000
    30 H12       3.0687    2.2666    1.7713   H         1 RES1   0.0000
    31 H13       1.6487    2.7211    0.7907   H         1 RES1   0.0000
    32 H14       1.9484   -0.6423    2.1866   H         1 RES1   0.0000
    33 H15      -1.7139   -0.8400    2.6390   H         1 RES1   0.0000
    34 H16      -2.3616    0.3427    3.8348   H         1 RES1   0.0000
    35 H17      -0.6968   -2.1037    4.6061   H         1 RES1   0.0000
    36 H18      -2.4576   -2.0957    4.4878   H         1 RES1   0.0000
    37 H19      -1.9165   -1.8260    6.7775   H         1 RES1   0.0000
    38 H20      -2.5983   -0.3183    6.1848   H         1 RES1   0.0000
    39 H21      -0.8745    0.3734    7.5677   H         1 RES1   0.0000
    40 H22      -0.1535    0.5164    5.9674   H         1 RES1   0.0000
    41 H23       0.2647   -1.8317    7.8883   H         1 RES1   0.0000
    42 H24       1.3116   -0.4427    7.7717   H         1 RES1   0.0000
    43 H25       0.9326   -2.6395    5.7189   H         1 RES1   0.0000
    44 H26       2.4070   -2.0418    6.4470   H         1 RES1   0.0000
    45 H27       1.5719   -1.0504    5.2421   H         1 RES1   0.0000
    46 C13       0.4270   -5.4923    4.3658   C.3       1 RES1   0.0000
    47 C14       0.7463   -5.2744    2.8912   C.3       1 RES1   0.0000
    48 C15       1.3213   -3.8780    2.6307   C.3       1 RES1   0.0000
    49 C16       1.9640   -3.7504    1.2508   C.3       1 RES1   0.0000
    50 C17       0.9386   -3.8602    0.1184   C.3       1 RES1   0.0000
    51 C18       1.4989   -3.3387   -1.2059   C.3       1 RES1   0.0000
    52 O5        1.3264   -1.8945   -1.2210   O.3       1 RES1   0.0000
    53 P2        0.4359   -1.1328   -2.3051   P.3       1 RES1   0.0000
    54 O6        0.0753    0.1522   -1.6406   O.2       1 RES1   0.0000
    55 O7        1.0598   -1.1222   -3.7163   O.3       1 RES1   0.0000
    56 O8       -0.8360   -2.0930   -2.3865   O.3       1 RES1   0.0000
    57 C19      -1.9381   -1.7510   -3.2976   C.3       1 RES1   0.0000
    58 C20      -3.0737   -2.7411   -3.1192   C.3       1 RES1   0.0000
    59 C21      -3.8520   -2.6016   -1.8103   C.3       1 RES1   0.0000
    60 C22      -3.1218   -3.1778   -0.5946   C.3       1 RES1   0.0000
    61 C23      -3.9977   -3.3027    0.6486   C.3       1 RES1   0.0000
    62 C24      -4.5043   -1.9375    1.0854   C.3       1 RES1   0.0000
    63 H28       0.0077   -6.4816    4.5181   H         1 RES1   0.0000
    64 H29      -0.2924   -4.7614    4.7300   H         1 RES1   0.0000
    65 H30       1.3293   -5.4194    4.9668   H         1 RES1   0.0000
    66 H31      -0.1553   -5.4321    2.2948   H         1 RES1   0.0000
    67 H32       1.4804   -6.0214    2.5863   H         1 RES1   0.0000
    68 H33       2.0805   -3.6867    3.3926   H         1 RES1   0.0000
    69 H34       0.5240   -3.1148    2.7332   H         1 RES1   0.0000
    70 H35       2.6952   -4.5518    1.1321   H         1 RES1   0.0000
    71 H36       2.4951   -2.7972    1.1757   H         1 RES1   0.0000
    72 H37       0.0362   -3.2374    0.3849   H         1 RES1   0.0000
    73 H38       0.6108   -4.8938    0.0018   H         1 RES1   0.0000
    74 H39       0.9892   -3.7744   -2.0663   H         1 RES1   0.0000
    75 H40       2.5717   -3.5471   -1.2688   H         1 RES1   0.0000
    76 H41       1.7143   -0.4710   -3.9903   H         1 RES1   0.0000
    77 H42      -1.5672   -1.8056   -4.3215   H         1 RES1   0.0000
    78 H43      -2.2508   -0.7259   -3.0651   H         1 RES1   0.0000
    79 H44      -2.6723   -3.7488   -3.2268   H         1 RES1   0.0000
    80 H45      -3.7645   -2.5650   -3.9437   H         1 RES1   0.0000
    81 H46      -4.7920   -3.1388   -1.9190   H         1 RES1   0.0000
    82 H47      -4.0942   -1.5477   -1.6547   H         1 RES1   0.0000
    83 H48      -2.2571   -2.4773   -0.3115   H         1 RES1   0.0000
    84 H49      -2.7017   -4.1493   -0.8525   H         1 RES1   0.0000
    85 H50      -3.4194   -3.7725    1.4486   H         1 RES1   0.0000
    86 H51      -4.8434   -3.9603    0.4409   H         1 RES1   0.0000
    87 H52      -3.6567   -1.2194    1.1524   H         1 RES1   0.0000
    88 H53      -4.9880   -1.9986    2.0552   H         1 RES1   0.0000
    89 H54      -5.2369   -1.5593    0.3808   H         1 RES1   0.0000
    90 O9       -2.9374    0.6002   -0.6625   O.3       1 RES1   0.0000
    91 H55      -2.5792    1.4370   -1.0013   H         1 RES1   0.0000
    92 H56      -3.8472    0.8224   -0.3925   H         1 RES1   0.0000
@<TRIPOS>BOND
     1     1     8    1
     2     1    10    1
     3     1    11    1
     4     1    12    1
     5     1    52    1
     6     1    54    1
     7     1    55    1
     8     1    56    1
     9     1    90    1
    10     2     3    1
    11     2    19    1
    12     2    20    1
    13     2    21    1
    14     3     4    1
    15     3    22    1
    16     3    23    1
    17     4     5    1
    18     4    24    1
    19     4    25    1
    20     5     6    1
    21     5    26    1
    22     5    27    1
    23     6     7    1
    24     6    28    1
    25     6    29    1
    26     7     8    1
    27     7    30    1
    28     7    31    1
    29     8     9    1
    30     9    10    2
    31     9    11    1
    32     9    12    1
    33    11    32    1
    34    12    13    1
    35    13    14    1
    36    13    33    1
    37    13    34    1
    38    14    15    1
    39    14    35    1
    40    14    36    1
    41    15    16    1
    42    15    37    1
    43    15    38    1
    44    16    17    1
    45    16    39    1
    46    16    40    1
    47    17    18    1
    48    17    41    1
    49    17    42    1
    50    18    43    1
    51    18    44    1
    52    18    45    1
    53    46    47    1
    54    46    63    1
    55    46    64    1
    56    46    65    1
    57    47    48    1
    58    47    66    1
    59    47    67    1
    60    48    49    1
    61    48    68    1
    62    48    69    1
    63    49    50    1
    64    49    70    1
    65    49    71    1
    66    50    51    1
    67    50    72    1
    68    50    73    1
    69    51    52    1
    70    51    74    1
    71    51    75    1
    72    52    53    1
    73    53    54    2
    74    53    55    1
    75    53    56    1
    76    55    76    1
    77    56    57    1
    78    57    58    1
    79    57    77    1
    80    57    78    1
    81    58    59    1
    82    58    79    1
    83    58    80    1
    84    59    60    1
    85    59    81    1
    86    59    82    1
    87    60    61    1
    88    60    83    1
    89    60    84    1
    90    61    62    1
    91    61    85    1
    92    61    86    1
    93    62    87    1
    94    62    88    1
    95    62    89    1
    96    90    91    1
    97    90    92    1
@<TRIPOS>SUBSTRUCTURE
     1 RES1       92 GROUP             0 ****  ****    0  
