@<TRIPOS>MOLECULE
am_c3_9H2O_c0_0_nunpairedes_0_charge_3 Charge: 3 Unpaired_Electrons: 0 XTB_Unpaired_Electrons: 0 XTB_Charge: 3
   224   227     1     0     0
SMALL
NoCharges
****
Generated from Architector

@<TRIPOS>ATOM
     1 La1       0.0465   -0.0390    0.1463   La        1 RES1   0.0000
     2 C1       -4.9975   -3.1466   -5.0060   C.3       1 RES1   0.0000
     3 C2       -5.6867   -1.8744   -4.5057   C.3       1 RES1   0.0000
     4 C3       -5.1226   -1.3067   -3.1941   C.3       1 RES1   0.0000
     5 C4       -5.7072    0.0771   -2.8932   C.3       1 RES1   0.0000
     6 C5       -4.9917    0.8620   -1.7865   C.3       1 RES1   0.0000
     7 C6       -5.1557    0.3578   -0.3447   C.3       1 RES1   0.0000
     8 N1       -4.5076   -0.9196   -0.0342   N.am      1 RES1   0.0000
     9 C7       -5.3563   -2.0404    0.3244   C.3       1 RES1   0.0000
    10 C8       -3.1816   -0.9856    0.0321   C.2       1 RES1   0.0000
    11 O1       -2.4593    0.0098   -0.1726   O.2       1 RES1   0.0000
    12 C9       -2.5247   -2.3290    0.3460   C.3       1 RES1   0.0000
    13 C10      -1.8288   -2.2449    1.7046   C.2       1 RES1   0.0000
    14 O2       -0.8962   -1.4336    1.8124   O.2       1 RES1   0.0000
    15 N2       -2.1871   -3.0123    2.7286   N.am      1 RES1   0.0000
    16 C11      -3.1578   -4.0814    2.7188   C.3       1 RES1   0.0000
    17 C12      -1.4899   -2.8466    4.0094   C.3       1 RES1   0.0000
    18 C13      -1.8556   -1.5597    4.7570   C.3       1 RES1   0.0000
    19 C14      -3.3656   -1.4369    4.9686   C.3       1 RES1   0.0000
    20 C15      -3.7404   -0.2974    5.9199   C.3       1 RES1   0.0000
    21 C16      -5.2505   -0.0432    5.9935   C.3       1 RES1   0.0000
    22 C17      -5.8455    0.4724    4.6839   C.3       1 RES1   0.0000
    23 H1       -5.5986   -3.5974   -5.7898   H         1 RES1   0.0000
    24 H2       -4.8698   -3.8811   -4.2133   H         1 RES1   0.0000
    25 H3       -4.0221   -2.9269   -5.4290   H         1 RES1   0.0000
    26 H4       -6.7437   -2.0932   -4.3521   H         1 RES1   0.0000
    27 H5       -5.6227   -1.1118   -5.2865   H         1 RES1   0.0000
    28 H6       -4.0369   -1.2106   -3.2455   H         1 RES1   0.0000
    29 H7       -5.3606   -2.0039   -2.3908   H         1 RES1   0.0000
    30 H8       -6.7695   -0.0062   -2.6611   H         1 RES1   0.0000
    31 H9       -5.6239    0.6794   -3.8018   H         1 RES1   0.0000
    32 H10      -5.4059    1.8731   -1.7918   H         1 RES1   0.0000
    33 H11      -3.9262    0.9309   -2.0193   H         1 RES1   0.0000
    34 H12      -6.2167    0.2459   -0.1261   H         1 RES1   0.0000
    35 H13      -4.7384    1.1174    0.3263   H         1 RES1   0.0000
    36 H14      -6.3932   -1.7330    0.2392   H         1 RES1   0.0000
    37 H15      -5.1713   -2.3489    1.3532   H         1 RES1   0.0000
    38 H16      -5.2037   -2.8862   -0.3455   H         1 RES1   0.0000
    39 H17      -1.7054   -2.4101   -0.3773   H         1 RES1   0.0000
    40 H18      -3.1875   -3.1754    0.2313   H         1 RES1   0.0000
    41 H19      -3.6254   -4.1935    1.7497   H         1 RES1   0.0000
    42 H20      -3.9193   -3.8795    3.4700   H         1 RES1   0.0000
    43 H21      -2.6624   -5.0201    2.9723   H         1 RES1   0.0000
    44 H22      -0.4129   -2.8600    3.8222   H         1 RES1   0.0000
    45 H23      -1.7624   -3.7055    4.6226   H         1 RES1   0.0000
    46 H24      -1.4770   -0.6967    4.2049   H         1 RES1   0.0000
    47 H25      -1.3504   -1.5918    5.7248   H         1 RES1   0.0000
    48 H26      -3.7500   -2.3695    5.3901   H         1 RES1   0.0000
    49 H27      -3.8370   -1.2709    3.9963   H         1 RES1   0.0000
    50 H28      -3.2416    0.6237    5.6067   H         1 RES1   0.0000
    51 H29      -3.3838   -0.5463    6.9214   H         1 RES1   0.0000
    52 H30      -5.4289    0.7014    6.7712   H         1 RES1   0.0000
    53 H31      -5.7655   -0.9586    6.2936   H         1 RES1   0.0000
    54 H32      -5.3394    1.3846    4.3692   H         1 RES1   0.0000
    55 H33      -6.8994    0.6959    4.8240   H         1 RES1   0.0000
    56 H34      -5.7612   -0.2677    3.8893   H         1 RES1   0.0000
    57 C18      -0.3796    5.8141   -4.7073   C.3       1 RES1   0.0000
    58 C19       1.0669    5.8750   -4.2227   C.3       1 RES1   0.0000
    59 C20       1.2968    4.9762   -3.0031   C.3       1 RES1   0.0000
    60 C21       2.7503    5.0355   -2.5335   C.3       1 RES1   0.0000
    61 C22       3.0897    4.1063   -1.3644   C.3       1 RES1   0.0000
    62 C23       2.5981    4.5130    0.0271   C.3       1 RES1   0.0000
    63 N3        1.1472    4.4764    0.2129   N.am      1 RES1   0.0000
    64 C24       0.4715    5.7267    0.4951   C.3       1 RES1   0.0000
    65 C25       0.5147    3.3085    0.2179   C.2       1 RES1   0.0000
    66 O3        1.1042    2.2256    0.0562   O.2       1 RES1   0.0000
    67 C26      -0.9968    3.2892    0.4464   C.3       1 RES1   0.0000
    68 C27      -1.2186    2.6004    1.7945   C.2       1 RES1   0.0000
    69 O4       -0.9095    1.4015    1.8644   O.2       1 RES1   0.0000
    70 N4       -1.7114    3.2604    2.8323   N.am      1 RES1   0.0000
    71 C28      -2.2462    4.6014    2.8263   C.3       1 RES1   0.0000
    72 C29      -1.8297    2.5692    4.1187   C.3       1 RES1   0.0000
    73 C30      -0.4886    2.3225    4.8187   C.3       1 RES1   0.0000
    74 C31       0.3288    3.6065    4.9860   C.3       1 RES1   0.0000
    75 C32       1.5267    3.4289    5.9250   C.3       1 RES1   0.0000
    76 C33       2.4586    4.6465    5.9712   C.3       1 RES1   0.0000
    77 C34       3.2019    4.8920    4.6590   C.3       1 RES1   0.0000
    78 H35      -0.5117    6.4664   -5.5645   H         1 RES1   0.0000
    79 H36      -1.0647    6.1401   -3.9259   H         1 RES1   0.0000
    80 H37      -0.6463    4.8010   -5.0067   H         1 RES1   0.0000
    81 H38       1.3185    6.9054   -3.9607   H         1 RES1   0.0000
    82 H39       1.7357    5.5693   -5.0312   H         1 RES1   0.0000
    83 H40       1.0429    3.9403   -3.2660   H         1 RES1   0.0000
    84 H41       0.6239    5.2975   -2.2052   H         1 RES1   0.0000
    85 H42       3.0110    6.0653   -2.2828   H         1 RES1   0.0000
    86 H43       3.3829    4.7424   -3.3762   H         1 RES1   0.0000
    87 H44       4.1767    4.0751   -1.2841   H         1 RES1   0.0000
    88 H45       2.7306    3.0977   -1.5689   H         1 RES1   0.0000
    89 H46       2.9314    5.5249    0.2523   H         1 RES1   0.0000
    90 H47       3.0509    3.8221    0.7465   H         1 RES1   0.0000
    91 H48       1.2017    6.5273    0.4536   H         1 RES1   0.0000
    92 H49       0.0325    5.7079    1.4917   H         1 RES1   0.0000
    93 H50      -0.2996    5.9394   -0.2452   H         1 RES1   0.0000
    94 H51      -1.4180    2.5783   -0.2675   H         1 RES1   0.0000
    95 H52      -1.4789    4.2484    0.3244   H         1 RES1   0.0000
    96 H53      -2.1893    5.0578    1.8468   H         1 RES1   0.0000
    97 H54      -1.6967    5.2057    3.5452   H         1 RES1   0.0000
    98 H55      -3.2946    4.5700    3.1259   H         1 RES1   0.0000
    99 H56      -2.3252    1.6091    3.9527   H         1 RES1   0.0000
   100 H57      -2.4577    3.1989    4.7476   H         1 RES1   0.0000
   101 H58       0.0785    1.5795    4.2539   H         1 RES1   0.0000
   102 H59      -0.7139    1.9015    5.8008   H         1 RES1   0.0000
   103 H60      -0.3098    4.3901    5.4017   H         1 RES1   0.0000
   104 H61       0.6801    3.9255    4.0007   H         1 RES1   0.0000
   105 H62       2.1105    2.5567    5.6191   H         1 RES1   0.0000
   106 H63       1.1534    3.2437    6.9341   H         1 RES1   0.0000
   107 H64       3.1958    4.4732    6.7575   H         1 RES1   0.0000
   108 H65       1.8938    5.5399    6.2462   H         1 RES1   0.0000
   109 H66       3.7737    4.0086    4.3766   H         1 RES1   0.0000
   110 H67       3.8921    5.7228    4.7779   H         1 RES1   0.0000
   111 H68       2.5136    5.1374    3.8513   H         1 RES1   0.0000
   112 C35       6.1500   -3.8507   -4.3115   C.3       1 RES1   0.0000
   113 C36       5.1870   -4.9030   -3.7611   C.3       1 RES1   0.0000
   114 C37       4.2657   -4.3731   -2.6494   C.3       1 RES1   0.0000
   115 C38       3.2580   -5.4441   -2.2139   C.3       1 RES1   0.0000
   116 C39       2.0921   -5.0423   -1.2920   C.3       1 RES1   0.0000
   117 C40       2.3840   -4.7043    0.1814   C.3       1 RES1   0.0000
   118 N5        3.0972   -3.4523    0.4559   N.am      1 RES1   0.0000
   119 C41       4.4838   -3.5490    0.8658   C.3       1 RES1   0.0000
   120 C42       2.4592   -2.2867    0.4564   C.2       1 RES1   0.0000
   121 O5        1.2447   -2.1991    0.1837   O.2       1 RES1   0.0000
   122 C43       3.2435   -1.0072    0.7363   C.3       1 RES1   0.0000
   123 C44       2.7020   -0.3902    2.0244   C.2       1 RES1   0.0000
   124 O6        1.5223   -0.0066    2.0136   O.2       1 RES1   0.0000
   125 N6        3.4556   -0.2905    3.1107   N.am      1 RES1   0.0000
   126 C45       4.8833   -0.4835    3.1984   C.3       1 RES1   0.0000
   127 C46       2.8215    0.1233    4.3648   C.3       1 RES1   0.0000
   128 C47       1.9272   -0.9685    4.9611   C.3       1 RES1   0.0000
   129 C48       2.6825   -2.2891    5.1268   C.3       1 RES1   0.0000
   130 C49       1.8839   -3.3426    5.8986   C.3       1 RES1   0.0000
   131 C50       2.5660   -4.7158    5.9285   C.3       1 RES1   0.0000
   132 C51       2.6470   -5.3848    4.5568   C.3       1 RES1   0.0000
   133 H69       6.7452   -4.2869   -5.1082   H         1 RES1   0.0000
   134 H70       6.8346   -3.4913   -3.5483   H         1 RES1   0.0000
   135 H71       5.6142   -2.9979   -4.7279   H         1 RES1   0.0000
   136 H72       5.7695   -5.7444   -3.3820   H         1 RES1   0.0000
   137 H73       4.5719   -5.2766   -4.5839   H         1 RES1   0.0000
   138 H74       3.7373   -3.4952   -3.0300   H         1 RES1   0.0000
   139 H75       4.8783   -4.0556   -1.8046   H         1 RES1   0.0000
   140 H76       3.8013   -6.2693   -1.7517   H         1 RES1   0.0000
   141 H77       2.7975   -5.8415   -3.1232   H         1 RES1   0.0000
   142 H78       1.4474   -5.9237   -1.2435   H         1 RES1   0.0000
   143 H79       1.5002   -4.2403   -1.7350   H         1 RES1   0.0000
   144 H80       2.9791   -5.5077    0.6140   H         1 RES1   0.0000
   145 H81       1.4200   -4.6648    0.6999   H         1 RES1   0.0000
   146 H82       4.7784   -4.5919    0.8381   H         1 RES1   0.0000
   147 H83       4.6116   -3.1793    1.8835   H         1 RES1   0.0000
   148 H84       5.1257   -2.9907    0.1862   H         1 RES1   0.0000
   149 H85       2.9555   -0.2972   -0.0495   H         1 RES1   0.0000
   150 H86       4.3149   -1.1442    0.7245   H         1 RES1   0.0000
   151 H87       5.3208   -0.7195    2.2369   H         1 RES1   0.0000
   152 H88       5.0980   -1.2809    3.9070   H         1 RES1   0.0000
   153 H89       5.3397    0.4377    3.5630   H         1 RES1   0.0000
   154 H90       2.2234    1.0185    4.1796   H         1 RES1   0.0000
   155 H91       3.6258    0.3585    5.0606   H         1 RES1   0.0000
   156 H92       1.0546   -1.1077    4.3197   H         1 RES1   0.0000
   157 H93       1.5805   -0.6150    5.9337   H         1 RES1   0.0000
   158 H94       3.6157   -2.1074    5.6666   H         1 RES1   0.0000
   159 H95       2.9215   -2.6758    4.1318   H         1 RES1   0.0000
   160 H96       0.8919   -3.4524    5.4522   H         1 RES1   0.0000
   161 H97       1.7530   -3.0004    6.9270   H         1 RES1   0.0000
   162 H98       1.9909   -5.3622    6.5936   H         1 RES1   0.0000
   163 H99       3.5694   -4.6231    6.3504   H         1 RES1   0.0000
   164 H100      1.6525   -5.4827    4.1225   H         1 RES1   0.0000
   165 H101      3.0757   -6.3779    4.6595   H         1 RES1   0.0000
   166 H102      3.2750   -4.8152    3.8728   H         1 RES1   0.0000
   167 C52       7.5844   -2.3352   -1.0185   C.3       1 RES1   0.0000
   168 C53       7.4479   -1.1032   -1.9111   C.3       1 RES1   0.0000
   169 C54       6.0156   -0.5573   -1.9863   C.3       1 RES1   0.0000
   170 C55       6.0130    0.8102   -2.6748   C.3       1 RES1   0.0000
   171 C56       4.7069    1.6082   -2.5851   C.3       1 RES1   0.0000
   172 C57       3.6394    1.3843   -3.6663   C.3       1 RES1   0.0000
   173 N7        3.0330    0.0551   -3.7176   N.am      1 RES1   0.0000
   174 C58       3.3568   -0.7668   -4.8656   C.3       1 RES1   0.0000
   175 C59       2.1789   -0.3431   -2.7769   C.2       1 RES1   0.0000
   176 O7        1.8508    0.3703   -1.8149   O.2       1 RES1   0.0000
   177 C60       1.6847   -1.7828   -2.8345   C.3       1 RES1   0.0000
   178 C61       0.1712   -1.8971   -2.8956   C.2       1 RES1   0.0000
   179 O8       -0.5326   -1.3874   -2.0089   O.2       1 RES1   0.0000
   180 N8       -0.3423   -2.5916   -3.9113   N.am      1 RES1   0.0000
   181 C62       0.4377   -3.4635   -4.7675   C.3       1 RES1   0.0000
   182 C63      -1.7635   -2.4541   -4.2016   C.3       1 RES1   0.0000
   183 C64      -2.0567   -1.0727   -4.7934   C.3       1 RES1   0.0000
   184 C65      -1.2511   -0.7937   -6.0586   C.3       1 RES1   0.0000
   185 C66      -1.6448    0.5586   -6.6537   C.3       1 RES1   0.0000
   186 C67      -0.8917    0.8911   -7.9434   C.3       1 RES1   0.0000
   187 C68       0.6122    1.0581   -7.7366   C.3       1 RES1   0.0000
   188 H103      8.6195   -2.6623   -1.0051   H         1 RES1   0.0000
   189 H104      6.9793   -3.1669   -1.3776   H         1 RES1   0.0000
   190 H105      7.2982   -2.1005    0.0067   H         1 RES1   0.0000
   191 H106      7.8032   -1.3383   -2.9169   H         1 RES1   0.0000
   192 H107      8.0952   -0.3185   -1.5125   H         1 RES1   0.0000
   193 H108      5.6337   -0.4304   -0.9662   H         1 RES1   0.0000
   194 H109      5.3720   -1.2728   -2.5067   H         1 RES1   0.0000
   195 H110      6.3242    0.7077   -3.7154   H         1 RES1   0.0000
   196 H111      6.7718    1.4109   -2.1665   H         1 RES1   0.0000
   197 H112      4.9830    2.6580   -2.6919   H         1 RES1   0.0000
   198 H113      4.2631    1.4762   -1.5965   H         1 RES1   0.0000
   199 H114      4.0865    1.5724   -4.6422   H         1 RES1   0.0000
   200 H115      2.8456    2.1202   -3.5050   H         1 RES1   0.0000
   201 H116      4.0303   -0.2103   -5.5088   H         1 RES1   0.0000
   202 H117      2.4562   -1.0018   -5.4337   H         1 RES1   0.0000
   203 H118      3.8613   -1.6853   -4.5637   H         1 RES1   0.0000
   204 H119      1.9668   -2.1904   -1.8661   H         1 RES1   0.0000
   205 H120      2.1552   -2.3528   -3.6186   H         1 RES1   0.0000
   206 H121      0.9351   -4.2335   -4.1760   H         1 RES1   0.0000
   207 H122      1.1733   -2.9189   -5.3569   H         1 RES1   0.0000
   208 H123     -0.2419   -3.9531   -5.4569   H         1 RES1   0.0000
   209 H124     -2.3422   -2.6010   -3.2860   H         1 RES1   0.0000
   210 H125     -2.0316   -3.2327   -4.9136   H         1 RES1   0.0000
   211 H126     -1.8397   -0.3128   -4.0382   H         1 RES1   0.0000
   212 H127     -3.1136   -1.0101   -5.0464   H         1 RES1   0.0000
   213 H128     -1.4418   -1.5791   -6.7945   H         1 RES1   0.0000
   214 H129     -0.1854   -0.7940   -5.8205   H         1 RES1   0.0000
   215 H130     -1.4611    1.3439   -5.9124   H         1 RES1   0.0000
   216 H131     -2.7156    0.5449   -6.8705   H         1 RES1   0.0000
   217 H132     -1.2976    1.8225   -8.3413   H         1 RES1   0.0000
   218 H133     -1.0759    0.1074   -8.6819   H         1 RES1   0.0000
   219 H134      0.8117    1.8312   -6.9948   H         1 RES1   0.0000
   220 H135      1.0799    1.3502   -8.6722   H         1 RES1   0.0000
   221 H136      1.0698    0.1256   -7.4099   H         1 RES1   0.0000
   222 O9       -0.7022    1.2432   -2.0759   O.3       1 RES1   0.0000
   223 H137     -1.6552    1.3460   -2.1928   H         1 RES1   0.0000
   224 H138     -0.2676    2.0897   -2.2367   H         1 RES1   0.0000
@<TRIPOS>BOND
     1     1    11    1
     2     1    14    1
     3     1    66    1
     4     1    69    1
     5     1   121    1
     6     1   124    1
     7     1   176    1
     8     1   179    1
     9     1   222    1
    10     2     3    1
    11     2    23    1
    12     2    24    1
    13     2    25    1
    14     3     4    1
    15     3    26    1
    16     3    27    1
    17     4     5    1
    18     4    28    1
    19     4    29    1
    20     5     6    1
    21     5    30    1
    22     5    31    1
    23     6     7    1
    24     6    32    1
    25     6    33    1
    26     7     8    1
    27     7    34    1
    28     7    35    1
    29     8     9    1
    30     8    10    1
    31     9    36    1
    32     9    37    1
    33     9    38    1
    34    10    11    2
    35    10    12    1
    36    12    13    1
    37    12    39    1
    38    12    40    1
    39    13    14    2
    40    13    15    1
    41    15    16    1
    42    15    17    1
    43    16    41    1
    44    16    42    1
    45    16    43    1
    46    17    18    1
    47    17    44    1
    48    17    45    1
    49    18    19    1
    50    18    46    1
    51    18    47    1
    52    19    20    1
    53    19    48    1
    54    19    49    1
    55    20    21    1
    56    20    50    1
    57    20    51    1
    58    21    22    1
    59    21    52    1
    60    21    53    1
    61    22    54    1
    62    22    55    1
    63    22    56    1
    64    57    58    1
    65    57    78    1
    66    57    79    1
    67    57    80    1
    68    58    59    1
    69    58    81    1
    70    58    82    1
    71    59    60    1
    72    59    83    1
    73    59    84    1
    74    60    61    1
    75    60    85    1
    76    60    86    1
    77    61    62    1
    78    61    87    1
    79    61    88    1
    80    62    63    1
    81    62    89    1
    82    62    90    1
    83    63    64    1
    84    63    65    1
    85    64    91    1
    86    64    92    1
    87    64    93    1
    88    65    66    2
    89    65    67    1
    90    67    68    1
    91    67    94    1
    92    67    95    1
    93    68    69    2
    94    68    70    1
    95    70    71    1
    96    70    72    1
    97    71    96    1
    98    71    97    1
    99    71    98    1
   100    72    73    1
   101    72    99    1
   102    72   100    1
   103    73    74    1
   104    73   101    1
   105    73   102    1
   106    74    75    1
   107    74   103    1
   108    74   104    1
   109    75    76    1
   110    75   105    1
   111    75   106    1
   112    76    77    1
   113    76   107    1
   114    76   108    1
   115    77   109    1
   116    77   110    1
   117    77   111    1
   118   112   113    1
   119   112   133    1
   120   112   134    1
   121   112   135    1
   122   113   114    1
   123   113   136    1
   124   113   137    1
   125   114   115    1
   126   114   138    1
   127   114   139    1
   128   115   116    1
   129   115   140    1
   130   115   141    1
   131   116   117    1
   132   116   142    1
   133   116   143    1
   134   117   118    1
   135   117   144    1
   136   117   145    1
   137   118   119    1
   138   118   120    1
   139   119   146    1
   140   119   147    1
   141   119   148    1
   142   120   121    2
   143   120   122    1
   144   122   123    1
   145   122   149    1
   146   122   150    1
   147   123   124    2
   148   123   125    1
   149   125   126    1
   150   125   127    1
   151   126   151    1
   152   126   152    1
   153   126   153    1
   154   127   128    1
   155   127   154    1
   156   127   155    1
   157   128   129    1
   158   128   156    1
   159   128   157    1
   160   129   130    1
   161   129   158    1
   162   129   159    1
   163   130   131    1
   164   130   160    1
   165   130   161    1
   166   131   132    1
   167   131   162    1
   168   131   163    1
   169   132   164    1
   170   132   165    1
   171   132   166    1
   172   167   168    1
   173   167   188    1
   174   167   189    1
   175   167   190    1
   176   168   169    1
   177   168   191    1
   178   168   192    1
   179   169   170    1
   180   169   193    1
   181   169   194    1
   182   170   171    1
   183   170   195    1
   184   170   196    1
   185   171   172    1
   186   171   197    1
   187   171   198    1
   188   172   173    1
   189   172   199    1
   190   172   200    1
   191   173   174    1
   192   173   175    1
   193   174   201    1
   194   174   202    1
   195   174   203    1
   196   175   176    2
   197   175   177    1
   198   177   178    1
   199   177   204    1
   200   177   205    1
   201   178   179    2
   202   178   180    1
   203   180   181    1
   204   180   182    1
   205   181   206    1
   206   181   207    1
   207   181   208    1
   208   182   183    1
   209   182   209    1
   210   182   210    1
   211   183   184    1
   212   183   211    1
   213   183   212    1
   214   184   185    1
   215   184   213    1
   216   184   214    1
   217   185   186    1
   218   185   215    1
   219   185   216    1
   220   186   187    1
   221   186   217    1
   222   186   218    1
   223   187   219    1
   224   187   220    1
   225   187   221    1
   226   222   223    1
   227   222   224    1
@<TRIPOS>SUBSTRUCTURE
     1 RES1      224 GROUP             0 ****  ****    0  
