@<TRIPOS>MOLECULE
am_c3_9H2O_c0_0_nunpairedes_0_charge_3 Charge: 3 Unpaired_Electrons: 0 XTB_Unpaired_Electrons: 0 XTB_Charge: 3
   394   399     1     0     0
SMALL
NoCharges
****
Generated from Architector

@<TRIPOS>ATOM
     1 La1      -0.0864    0.0043    0.1542   La        1 RES1   0.0000
     2 C1       -9.0537    4.2277   -2.1174   C.3       1 RES1   0.0000
     3 C2       -7.9879    5.3151   -2.0722   C.3       1 RES1   0.0000
     4 C3       -7.6503    5.7091   -0.6349   C.3       1 RES1   0.0000
     5 C4       -6.5643    6.7833   -0.5320   C.3       1 RES1   0.0000
     6 C5       -5.1777    6.3466   -1.0073   C.3       1 RES1   0.0000
     7 C6       -4.6354    5.2196   -0.1380   C.3       1 RES1   0.0000
     8 C7       -3.1808    4.8304   -0.3864   C.3       1 RES1   0.0000
     9 C8       -2.8710    4.1015   -1.7004   C.3       1 RES1   0.0000
    10 N1       -3.5637    2.8181   -1.7684   N.am      1 RES1   0.0000
    11 C9       -4.8873    2.8695   -2.3788   C.3       1 RES1   0.0000
    12 C10      -4.8673    2.5017   -3.8704   C.3       1 RES1   0.0000
    13 C11      -4.2233    3.5301   -4.8009   C.3       1 RES1   0.0000
    14 C12      -4.2316    2.9988   -6.2368   C.3       1 RES1   0.0000
    15 C13      -3.1400    1.9537   -6.4947   C.3       1 RES1   0.0000
    16 C14      -3.5334    0.9512   -7.5798   C.3       1 RES1   0.0000
    17 C15      -2.4613   -0.1125   -7.8102   C.3       1 RES1   0.0000
    18 C16      -2.9153   -1.1672   -8.8109   C.3       1 RES1   0.0000
    19 C17      -2.9613    1.7351   -1.2795   C.2       1 RES1   0.0000
    20 O1       -1.7374    1.7147   -1.0136   O.2       1 RES1   0.0000
    21 C18      -3.7921    0.5038   -0.8936   C.3       1 RES1   0.0000
    22 C19      -4.4108   -0.2832   -2.0664   C.3       1 RES1   0.0000
    23 C20      -3.4686   -0.7978   -3.1526   C.3       1 RES1   0.0000
    24 C21      -4.2900   -1.5735   -4.1834   C.3       1 RES1   0.0000
    25 O2       -2.9239   -0.2727   -0.0546   O.3       1 RES1   0.0000
    26 C22      -3.6009   -0.9942    0.9767   C.3       1 RES1   0.0000
    27 C23      -4.1978   -2.3067    0.4398   C.3       1 RES1   0.0000
    28 C24      -5.7271   -2.3441    0.3555   C.3       1 RES1   0.0000
    29 C25      -6.1897   -3.6978   -0.1757   C.3       1 RES1   0.0000
    30 C26      -2.5998   -1.1854    2.1303   C.2       1 RES1   0.0000
    31 O3       -1.3848   -0.9993    1.9242   O.2       1 RES1   0.0000
    32 N2       -3.0677   -1.4807    3.3459   N.am      1 RES1   0.0000
    33 C27      -4.4028   -1.9887    3.6276   C.3       1 RES1   0.0000
    34 C28      -4.4541   -3.1441    4.6356   C.3       1 RES1   0.0000
    35 C29      -4.0368   -4.5034    4.0674   C.3       1 RES1   0.0000
    36 C30      -2.5284   -4.7350    3.9163   C.3       1 RES1   0.0000
    37 C31      -2.2516   -6.2362    3.7890   C.3       1 RES1   0.0000
    38 C32      -0.7854   -6.6672    3.7054   C.3       1 RES1   0.0000
    39 C33      -0.0630   -6.2009    2.4433   C.3       1 RES1   0.0000
    40 C34       0.5877   -4.8386    2.6126   C.3       1 RES1   0.0000
    41 C35      -2.3013   -1.0572    4.5123   C.3       1 RES1   0.0000
    42 C36      -2.9586    0.1762    5.1437   C.3       1 RES1   0.0000
    43 C37      -2.3729    0.5658    6.4964   C.3       1 RES1   0.0000
    44 C38      -2.8660   -0.3114    7.6560   C.3       1 RES1   0.0000
    45 C39      -3.6728    0.4727    8.6895   C.3       1 RES1   0.0000
    46 C40      -5.0810    0.8583    8.2246   C.3       1 RES1   0.0000
    47 C41      -5.1707    2.1512    7.4094   C.3       1 RES1   0.0000
    48 C42      -6.6114    2.6390    7.3030   C.3       1 RES1   0.0000
    49 H1       -9.2833    3.9522   -3.1434   H         1 RES1   0.0000
    50 H2       -9.9685    4.5752   -1.6465   H         1 RES1   0.0000
    51 H3       -8.7163    3.3368   -1.5892   H         1 RES1   0.0000
    52 H4       -8.3401    6.1959   -2.6108   H         1 RES1   0.0000
    53 H5       -7.0938    4.9537   -2.5848   H         1 RES1   0.0000
    54 H6       -7.3584    4.8178   -0.0718   H         1 RES1   0.0000
    55 H7       -8.5557    6.0976   -0.1635   H         1 RES1   0.0000
    56 H8       -6.4896    7.0992    0.5113   H         1 RES1   0.0000
    57 H9       -6.8747    7.6490   -1.1170   H         1 RES1   0.0000
    58 H10      -4.5063    7.2027   -0.9317   H         1 RES1   0.0000
    59 H11      -5.2227    6.0697   -2.0595   H         1 RES1   0.0000
    60 H12      -5.2658    4.3363   -0.2078   H         1 RES1   0.0000
    61 H13      -4.7004    5.5682    0.8927   H         1 RES1   0.0000
    62 H14      -2.8631    4.1686    0.4243   H         1 RES1   0.0000
    63 H15      -2.5763    5.7388   -0.3615   H         1 RES1   0.0000
    64 H16      -1.8002    3.9081   -1.7525   H         1 RES1   0.0000
    65 H17      -3.1539    4.7195   -2.5466   H         1 RES1   0.0000
    66 H18      -5.2505    3.8908   -2.2969   H         1 RES1   0.0000
    67 H19      -5.5969    2.2312   -1.8426   H         1 RES1   0.0000
    68 H20      -5.9042    2.3725   -4.1847   H         1 RES1   0.0000
    69 H21      -4.3524    1.5529   -3.9990   H         1 RES1   0.0000
    70 H22      -3.1917    3.7121   -4.4994   H         1 RES1   0.0000
    71 H23      -4.7765    4.4722   -4.7556   H         1 RES1   0.0000
    72 H24      -4.1056    3.8316   -6.9259   H         1 RES1   0.0000
    73 H25      -5.2093    2.5588   -6.4371   H         1 RES1   0.0000
    74 H26      -2.9249    1.3937   -5.5805   H         1 RES1   0.0000
    75 H27      -2.2183    2.4565   -6.7899   H         1 RES1   0.0000
    76 H28      -3.7290    1.4798   -8.5136   H         1 RES1   0.0000
    77 H29      -4.4630    0.4539   -7.2934   H         1 RES1   0.0000
    78 H30      -2.2255   -0.5910   -6.8550   H         1 RES1   0.0000
    79 H31      -1.5536    0.3684   -8.1750   H         1 RES1   0.0000
    80 H32      -3.7592   -1.7323   -8.4227   H         1 RES1   0.0000
    81 H33      -2.1110   -1.8629   -9.0356   H         1 RES1   0.0000
    82 H34      -3.2191   -0.7027   -9.7437   H         1 RES1   0.0000
    83 H35      -4.6237    0.8728   -0.2678   H         1 RES1   0.0000
    84 H36      -4.9313   -1.1462   -1.6632   H         1 RES1   0.0000
    85 H37      -5.1729    0.3373   -2.5311   H         1 RES1   0.0000
    86 H38      -2.7075   -1.4351   -2.7009   H         1 RES1   0.0000
    87 H39      -2.9278    0.0219   -3.6315   H         1 RES1   0.0000
    88 H40      -4.8292   -2.3913   -3.7073   H         1 RES1   0.0000
    89 H41      -3.6650   -1.9860   -4.9733   H         1 RES1   0.0000
    90 H42      -5.0352   -0.9185   -4.6304   H         1 RES1   0.0000
    91 H43      -4.3986   -0.3541    1.3765   H         1 RES1   0.0000
    92 H44      -3.7743   -2.4528   -0.5523   H         1 RES1   0.0000
    93 H45      -3.8584   -3.1416    1.0476   H         1 RES1   0.0000
    94 H46      -6.1027   -1.5497   -0.2904   H         1 RES1   0.0000
    95 H47      -6.1769   -2.1722    1.3346   H         1 RES1   0.0000
    96 H48      -5.7640   -3.9046   -1.1579   H         1 RES1   0.0000
    97 H49      -7.2721   -3.7190   -0.2678   H         1 RES1   0.0000
    98 H50      -5.8913   -4.4990    0.4999   H         1 RES1   0.0000
    99 H51      -4.8407   -2.3495    2.7079   H         1 RES1   0.0000
   100 H52      -5.0220   -1.1742    4.0054   H         1 RES1   0.0000
   101 H53      -5.4987   -3.2210    4.9430   H         1 RES1   0.0000
   102 H54      -3.8865   -2.9230    5.5389   H         1 RES1   0.0000
   103 H55      -4.5251   -4.6435    3.0984   H         1 RES1   0.0000
   104 H56      -4.4284   -5.2733    4.7357   H         1 RES1   0.0000
   105 H57      -2.0061   -4.3561    4.7993   H         1 RES1   0.0000
   106 H58      -2.1645   -4.1945    3.0381   H         1 RES1   0.0000
   107 H59      -2.7862   -6.6172    2.9160   H         1 RES1   0.0000
   108 H60      -2.6882   -6.7248    4.6620   H         1 RES1   0.0000
   109 H61      -0.7835   -7.7563    3.7182   H         1 RES1   0.0000
   110 H62      -0.2431   -6.3252    4.5866   H         1 RES1   0.0000
   111 H63      -0.7789   -6.1393    1.6331   H         1 RES1   0.0000
   112 H64       0.6951   -6.9307    2.1546   H         1 RES1   0.0000
   113 H65      -0.0778   -4.1608    3.1326   H         1 RES1   0.0000
   114 H66       0.8015   -4.3959    1.6445   H         1 RES1   0.0000
   115 H67       1.5054   -4.9212    3.1888   H         1 RES1   0.0000
   116 H68      -1.3045   -0.8064    4.1571   H         1 RES1   0.0000
   117 H69      -2.2231   -1.8682    5.2315   H         1 RES1   0.0000
   118 H70      -4.0208    0.0048    5.3014   H         1 RES1   0.0000
   119 H71      -2.8524    1.0061    4.4413   H         1 RES1   0.0000
   120 H72      -2.6543    1.5995    6.6903   H         1 RES1   0.0000
   121 H73      -1.2915    0.5445    6.4303   H         1 RES1   0.0000
   122 H74      -2.0200   -0.7789    8.1597   H         1 RES1   0.0000
   123 H75      -3.4925   -1.1209    7.2782   H         1 RES1   0.0000
   124 H76      -3.1244    1.3708    8.9783   H         1 RES1   0.0000
   125 H77      -3.7684   -0.1473    9.5809   H         1 RES1   0.0000
   126 H78      -5.6993    0.9944    9.1133   H         1 RES1   0.0000
   127 H79      -5.5090    0.0322    7.6497   H         1 RES1   0.0000
   128 H80      -4.7725    2.0062    6.4023   H         1 RES1   0.0000
   129 H81      -4.5745    2.9240    7.9004   H         1 RES1   0.0000
   130 H82      -7.2313    1.9114    6.7830   H         1 RES1   0.0000
   131 H83      -6.6650    3.5865    6.7704   H         1 RES1   0.0000
   132 H84      -7.0306    2.7893    8.2933   H         1 RES1   0.0000
   133 C43       0.5401   -9.8509   -1.9918   C.3       1 RES1   0.0000
   134 C44      -0.9469   -9.5217   -2.0126   C.3       1 RES1   0.0000
   135 C45      -1.5321   -9.4553   -0.6025   C.3       1 RES1   0.0000
   136 C46      -2.9780   -8.9517   -0.5651   C.3       1 RES1   0.0000
   137 C47      -3.1707   -7.5104   -1.0466   C.3       1 RES1   0.0000
   138 C48      -2.3279   -6.5531   -0.2135   C.3       1 RES1   0.0000
   139 C49      -2.6037   -5.0641   -0.4127   C.3       1 RES1   0.0000
   140 C50      -2.0904   -4.4519   -1.7192   C.3       1 RES1   0.0000
   141 N3       -0.6276   -4.3786   -1.7587   N.am      1 RES1   0.0000
   142 C51       0.0252   -5.4635   -2.4862   C.3       1 RES1   0.0000
   143 C52       0.1243   -5.1693   -3.9931   C.3       1 RES1   0.0000
   144 C53      -1.2113   -4.9866   -4.7133   C.3       1 RES1   0.0000
   145 C54      -1.0205   -4.7225   -6.2080   C.3       1 RES1   0.0000
   146 C55      -0.4641   -3.3183   -6.4962   C.3       1 RES1   0.0000
   147 C56       0.9748   -3.3384   -7.0066   C.3       1 RES1   0.0000
   148 C57       1.5039   -1.9391   -7.3104   C.3       1 RES1   0.0000
   149 C58       2.9125   -1.9893   -7.8887   C.3       1 RES1   0.0000
   150 C59      -0.0173   -3.3044   -1.2530   C.2       1 RES1   0.0000
   151 O4       -0.6404   -2.2535   -0.9790   O.2       1 RES1   0.0000
   152 C60       1.4801   -3.3649   -0.8848   C.3       1 RES1   0.0000
   153 C61       2.4401   -3.3200   -2.0835   C.3       1 RES1   0.0000
   154 C62       2.1767   -2.1961   -3.0771   C.3       1 RES1   0.0000
   155 C63       3.2893   -2.2138   -4.1225   C.3       1 RES1   0.0000
   156 O5        1.6882   -2.2659    0.0176   O.3       1 RES1   0.0000
   157 C64       2.6442   -2.4812    1.0648   C.3       1 RES1   0.0000
   158 C65       4.0984   -2.3190    0.5849   C.3       1 RES1   0.0000
   159 C66       4.8863   -3.6320    0.4962   C.3       1 RES1   0.0000
   160 C67       6.3526   -3.3594    0.1725   C.3       1 RES1   0.0000
   161 C68       2.2234   -1.5250    2.2005   C.2       1 RES1   0.0000
   162 O6        1.4525   -0.5796    1.9357   O.2       1 RES1   0.0000
   163 N4        2.6258   -1.7668    3.4497   N.am      1 RES1   0.0000
   164 C69       3.7543   -2.5991    3.8355   C.3       1 RES1   0.0000
   165 C70       4.7557   -1.8911    4.7632   C.3       1 RES1   0.0000
   166 C71       5.6801   -0.8739    4.0831   C.3       1 RES1   0.0000
   167 C72       5.1849    0.5738    3.9686   C.3       1 RES1   0.0000
   168 C73       6.3492    1.4260    3.4497   C.3       1 RES1   0.0000
   169 C74       6.1581    2.9401    3.3346   C.3       1 RES1   0.0000
   170 C75       4.9250    3.3965    2.5492   C.3       1 RES1   0.0000
   171 C76       3.8002    3.7479    3.5084   C.3       1 RES1   0.0000
   172 C77       1.8035   -1.2896    4.5590   C.3       1 RES1   0.0000
   173 C78       1.0190   -2.4560    5.1733   C.3       1 RES1   0.0000
   174 C79       0.2941   -2.1157    6.4723   C.3       1 RES1   0.0000
   175 C80       1.1883   -2.1246    7.7212   C.3       1 RES1   0.0000
   176 C81       0.7893   -3.2045    8.7283   C.3       1 RES1   0.0000
   177 C82       1.1500   -4.6325    8.3025   C.3       1 RES1   0.0000
   178 C83       0.1158   -5.3280    7.4137   C.3       1 RES1   0.0000
   179 C84       0.3864   -6.8246    7.3122   C.3       1 RES1   0.0000
   180 H85       0.9363   -9.9141   -3.0020   H         1 RES1   0.0000
   181 H86       0.7116  -10.8028   -1.4982   H         1 RES1   0.0000
   182 H87       1.0964   -9.0841   -1.4537   H         1 RES1   0.0000
   183 H88      -1.4840  -10.2771   -2.5873   H         1 RES1   0.0000
   184 H89      -1.0879   -8.5651   -2.5213   H         1 RES1   0.0000
   185 H90      -0.8968   -8.8250    0.0260   H         1 RES1   0.0000
   186 H91      -1.5093  -10.4560   -0.1655   H         1 RES1   0.0000
   187 H92      -3.3388   -9.0271    0.4641   H         1 RES1   0.0000
   188 H93      -3.5955   -9.6085   -1.1778   H         1 RES1   0.0000
   189 H94      -4.2242   -7.2527   -0.9301   H         1 RES1   0.0000
   190 H95      -2.9324   -7.4391   -2.1071   H         1 RES1   0.0000
   191 H96      -1.2704   -6.7459   -0.3804   H         1 RES1   0.0000
   192 H97      -2.5468   -6.7898    0.8295   H         1 RES1   0.0000
   193 H98      -2.1442   -4.5057    0.4080   H         1 RES1   0.0000
   194 H99      -3.6836   -4.9153   -0.3865   H         1 RES1   0.0000
   195 H100     -2.4827   -3.4387   -1.8160   H         1 RES1   0.0000
   196 H101     -2.4462   -5.0489   -2.5512   H         1 RES1   0.0000
   197 H102     -0.5546   -6.3764   -2.3491   H         1 RES1   0.0000
   198 H103      1.0262   -5.6454   -2.0892   H         1 RES1   0.0000
   199 H104      0.6561   -6.0037   -4.4523   H         1 RES1   0.0000
   200 H105      0.7228   -4.2728   -4.1333   H         1 RES1   0.0000
   201 H106     -1.7358   -4.1283   -4.2894   H         1 RES1   0.0000
   202 H107     -1.8272   -5.8815   -4.5866   H         1 RES1   0.0000
   203 H108     -1.9880   -4.8382   -6.6967   H         1 RES1   0.0000
   204 H109     -0.3565   -5.4812   -6.6243   H         1 RES1   0.0000
   205 H110     -0.5250   -2.6986   -5.5959   H         1 RES1   0.0000
   206 H111     -1.0785   -2.8280   -7.2500   H         1 RES1   0.0000
   207 H112      1.0128   -3.9307   -7.9213   H         1 RES1   0.0000
   208 H113      1.6288   -3.8260   -6.2797   H         1 RES1   0.0000
   209 H114      1.4885   -1.3380   -6.3965   H         1 RES1   0.0000
   210 H115      0.8360   -1.4569   -8.0257   H         1 RES1   0.0000
   211 H116      3.5898   -2.5125   -7.2183   H         1 RES1   0.0000
   212 H117      2.9110   -2.5122   -8.8406   H         1 RES1   0.0000
   213 H118      3.3035   -0.9890   -8.0546   H         1 RES1   0.0000
   214 H119      1.6542   -4.3079   -0.3452   H         1 RES1   0.0000
   215 H120      3.4503   -3.1906   -1.7019   H         1 RES1   0.0000
   216 H121      2.4291   -4.2772   -2.6038   H         1 RES1   0.0000
   217 H122      2.1366   -1.2432   -2.5450   H         1 RES1   0.0000
   218 H123      1.2034   -2.3181   -3.5554   H         1 RES1   0.0000
   219 H124      4.2697   -2.1560   -3.6498   H         1 RES1   0.0000
   220 H125      3.1959   -1.3946   -4.8300   H         1 RES1   0.0000
   221 H126      3.2574   -3.1506   -4.6751   H         1 RES1   0.0000
   222 H127      2.5281   -3.4982    1.4560   H         1 RES1   0.0000
   223 H128      4.0576   -1.8484   -0.3940   H         1 RES1   0.0000
   224 H129      4.6382   -1.6407    1.2438   H         1 RES1   0.0000
   225 H130      4.4583   -4.2849   -0.2659   H         1 RES1   0.0000
   226 H131      4.8274   -4.1768    1.4411   H         1 RES1   0.0000
   227 H132      6.4593   -2.8938   -0.8060   H         1 RES1   0.0000
   228 H133      6.9205   -4.2859    0.1701   H         1 RES1   0.0000
   229 H134      6.7929   -2.6965    0.9157   H         1 RES1   0.0000
   230 H135      4.2811   -2.9302    2.9483   H         1 RES1   0.0000
   231 H136      3.3825   -3.4832    4.3586   H         1 RES1   0.0000
   232 H137      5.3853   -2.6833    5.1730   H         1 RES1   0.0000
   233 H138      4.2480   -1.4357    5.6139   H         1 RES1   0.0000
   234 H139      5.9418   -1.2465    3.0886   H         1 RES1   0.0000
   235 H140      6.6060   -0.8409    4.6604   H         1 RES1   0.0000
   236 H141      4.8709    0.9309    4.9522   H         1 RES1   0.0000
   237 H142      4.3274    0.6348    3.2918   H         1 RES1   0.0000
   238 H143      6.6322    1.0347    2.4703   H         1 RES1   0.0000
   239 H144      7.2026    1.2659    4.1112   H         1 RES1   0.0000
   240 H145      7.0541    3.3287    2.8504   H         1 RES1   0.0000
   241 H146      6.1201    3.3841    4.3301   H         1 RES1   0.0000
   242 H147      4.6033    2.6122    1.8599   H         1 RES1   0.0000
   243 H148      5.1712    4.2771    1.9533   H         1 RES1   0.0000
   244 H149      3.6015    2.9011    4.1537   H         1 RES1   0.0000
   245 H150      2.8851    4.0193    2.9871   H         1 RES1   0.0000
   246 H151      4.0929    4.5879    4.1315   H         1 RES1   0.0000
   247 H152      1.1076   -0.5656    4.1410   H         1 RES1   0.0000
   248 H153      2.4222   -0.7953    5.3046   H         1 RES1   0.0000
   249 H154      1.6764   -3.2962    5.3846   H         1 RES1   0.0000
   250 H155      0.2918   -2.7801    4.4287   H         1 RES1   0.0000
   251 H156     -0.4952   -2.8535    6.6051   H         1 RES1   0.0000
   252 H157     -0.1977   -1.1559    6.3554   H         1 RES1   0.0000
   253 H158      1.1407   -1.1585    8.2239   H         1 RES1   0.0000
   254 H159      2.2321   -2.2821    7.4454   H         1 RES1   0.0000
   255 H160     -0.2830   -3.1437    8.9246   H         1 RES1   0.0000
   256 H161      1.3008   -2.9936    9.6681   H         1 RES1   0.0000
   257 H162      1.2561   -5.2358    9.2061   H         1 RES1   0.0000
   258 H163      2.1205   -4.6235    7.7983   H         1 RES1   0.0000
   259 H164      0.1206   -4.9002    6.4085   H         1 RES1   0.0000
   260 H165     -0.8790   -5.1780    7.8402   H         1 RES1   0.0000
   261 H166      1.3552   -7.0134    6.8551   H         1 RES1   0.0000
   262 H167     -0.3789   -7.3189    6.7181   H         1 RES1   0.0000
   263 H168      0.3873   -7.2736    8.3005   H         1 RES1   0.0000
   264 C85       7.4418    5.8897   -1.8899   C.3       1 RES1   0.0000
   265 C86       8.0775    4.5066   -1.9321   C.3       1 RES1   0.0000
   266 C87       8.1941    3.8958   -0.5362   C.3       1 RES1   0.0000
   267 C88       8.6499    2.4349   -0.5515   C.3       1 RES1   0.0000
   268 C89       7.6538    1.4596   -1.1834   C.3       1 RES1   0.0000
   269 C90       6.3219    1.4684   -0.4412   C.3       1 RES1   0.0000
   270 C91       5.3365    0.3762   -0.8541   C.3       1 RES1   0.0000
   271 C92       4.5909    0.5872   -2.1760   C.3       1 RES1   0.0000
   272 N5        3.7729    1.7984   -2.1136   N.am      1 RES1   0.0000
   273 C93       4.3796    2.9773   -2.7244   C.3       1 RES1   0.0000
   274 C94       4.0129    3.1727   -4.2055   C.3       1 RES1   0.0000
   275 C95       4.5079    2.1015   -5.1773   C.3       1 RES1   0.0000
   276 C96       4.0285    2.4147   -6.6000   C.3       1 RES1   0.0000
   277 C97       2.5647    2.0263   -6.8402   C.3       1 RES1   0.0000
   278 C98       1.8715    2.9200   -7.8694   C.3       1 RES1   0.0000
   279 C99       0.4336    2.4703   -8.1218   C.3       1 RES1   0.0000
   280 C100     -0.3869    3.5141   -8.8671   C.3       1 RES1   0.0000
   281 C101      2.6106    1.7436   -1.4635   C.2       1 RES1   0.0000
   282 O7        2.0638    0.6567   -1.1631   O.2       1 RES1   0.0000
   283 C102      1.9234    3.0370   -0.9923   C.3       1 RES1   0.0000
   284 C103      1.3340    3.8417   -2.1623   C.3       1 RES1   0.0000
   285 C104      0.5547    3.0111   -3.1761   C.3       1 RES1   0.0000
   286 C105      0.0896    3.9276   -4.3052   C.3       1 RES1   0.0000
   287 O8        0.9416    2.6239   -0.0285   O.3       1 RES1   0.0000
   288 C106      0.7247    3.5452    1.0470   C.3       1 RES1   0.0000
   289 C107     -0.0831    4.7752    0.5977   C.3       1 RES1   0.0000
   290 C108      0.7221    6.0668    0.4196   C.3       1 RES1   0.0000
   291 C109     -0.1842    7.1850   -0.0870   C.3       1 RES1   0.0000
   292 C110      0.0599    2.7393    2.1805   C.2       1 RES1   0.0000
   293 O9       -0.3374    1.5836    1.9312   O.2       1 RES1   0.0000
   294 N6       -0.0211    3.2422    3.4153   N.am      1 RES1   0.0000
   295 C111      0.1067    4.6402    3.8016   C.3       1 RES1   0.0000
   296 C112     -1.0507    5.1549    4.6742   C.3       1 RES1   0.0000
   297 C113     -2.3943    5.3908    3.9708   C.3       1 RES1   0.0000
   298 C114     -3.4037    4.2324    3.9305   C.3       1 RES1   0.0000
   299 C115     -4.7912    4.8348    3.6829   C.3       1 RES1   0.0000
   300 C116     -5.9970    3.8975    3.6402   C.3       1 RES1   0.0000
   301 C117     -5.9974    2.8480    2.5236   C.3       1 RES1   0.0000
   302 C118     -5.5290    1.4841    3.0112   C.3       1 RES1   0.0000
   303 C119     -0.1159    2.3072    4.5363   C.3       1 RES1   0.0000
   304 C120      1.2378    2.2231    5.2522   C.3       1 RES1   0.0000
   305 C121      1.2201    1.4523    6.5691   C.3       1 RES1   0.0000
   306 C122      0.7213    2.2612    7.7752   C.3       1 RES1   0.0000
   307 C123      1.8305    2.6156    8.7671   C.3       1 RES1   0.0000
   308 C124      2.8415    3.6480    8.2547   C.3       1 RES1   0.0000
   309 C125      4.0156    3.0600    7.4691   C.3       1 RES1   0.0000
   310 C126      5.1042    4.0982    7.2286   C.3       1 RES1   0.0000
   311 H169      7.3799    6.3185   -2.8864   H         1 RES1   0.0000
   312 H170      8.0285    6.5586   -1.2671   H         1 RES1   0.0000
   313 H171      6.4349    5.8359   -1.4771   H         1 RES1   0.0000
   314 H172      9.0708    4.5719   -2.3769   H         1 RES1   0.0000
   315 H173      7.4766    3.8598   -2.5748   H         1 RES1   0.0000
   316 H174      7.2352    3.9857   -0.0177   H         1 RES1   0.0000
   317 H175      8.9195    4.4747    0.0396   H         1 RES1   0.0000
   318 H176      8.8411    2.1207    0.4778   H         1 RES1   0.0000
   319 H177      9.5930    2.3677   -1.0941   H         1 RES1   0.0000
   320 H178      8.0810    0.4579   -1.1234   H         1 RES1   0.0000
   321 H179      7.5275    1.6868   -2.2415   H         1 RES1   0.0000
   322 H180      5.8398    2.4411   -0.5191   H         1 RES1   0.0000
   323 H181      6.5535    1.3171    0.6138   H         1 RES1   0.0000
   324 H182      4.5686    0.3005   -0.0799   H         1 RES1   0.0000
   325 H183      5.8769   -0.5707   -0.9154   H         1 RES1   0.0000
   326 H184      3.9329   -0.2617   -2.3488   H         1 RES1   0.0000
   327 H185      5.2835    0.6640   -3.0081   H         1 RES1   0.0000
   328 H186      5.4623    2.8695   -2.6567   H         1 RES1   0.0000
   329 H187      4.1073    3.8791   -2.1704   H         1 RES1   0.0000
   330 H188      4.4470    4.1266   -4.5108   H         1 RES1   0.0000
   331 H189      2.9343    3.2538   -4.3033   H         1 RES1   0.0000
   332 H190      4.1235    1.1229   -4.8852   H         1 RES1   0.0000
   333 H191      5.6005    2.0702   -5.1677   H         1 RES1   0.0000
   334 H192      4.6663    1.8871   -7.3074   H         1 RES1   0.0000
   335 H193      4.1538    3.4824   -6.7875   H         1 RES1   0.0000
   336 H194      2.0017    2.0944   -5.9062   H         1 RES1   0.0000
   337 H195      2.5046    0.9891   -7.1739   H         1 RES1   0.0000
   338 H196      2.4306    2.9171   -8.8055   H         1 RES1   0.0000
   339 H197      1.8610    3.9493   -7.5037   H         1 RES1   0.0000
   340 H198     -0.0365    2.2626   -7.1565   H         1 RES1   0.0000
   341 H199      0.4468    1.5394   -8.6903   H         1 RES1   0.0000
   342 H200     -0.4534    4.4339   -8.2903   H         1 RES1   0.0000
   343 H201     -1.3952    3.1522   -9.0497   H         1 RES1   0.0000
   344 H202      0.0652    3.7461   -9.8259   H         1 RES1   0.0000
   345 H203      2.6743    3.6524   -0.4747   H         1 RES1   0.0000
   346 H204      0.6709    4.6087   -1.7751   H         1 RES1   0.0000
   347 H205      2.1409    4.3633   -2.6738   H         1 RES1   0.0000
   348 H206     -0.2916    2.5300   -2.6830   H         1 RES1   0.0000
   349 H207      1.1784    2.2065   -3.5709   H         1 RES1   0.0000
   350 H208     -0.4881    4.7611   -3.9067   H         1 RES1   0.0000
   351 H209     -0.5226    3.3956   -5.0296   H         1 RES1   0.0000
   352 H210      0.9488    4.3502   -4.8254   H         1 RES1   0.0000
   353 H211      1.7051    3.8636    1.4287   H         1 RES1   0.0000
   354 H212     -0.5490    4.5082   -0.3452   H         1 RES1   0.0000
   355 H213     -0.8962    4.9649    1.2940   H         1 RES1   0.0000
   356 H214      1.5450    5.9192   -0.2804   H         1 RES1   0.0000
   357 H215      1.1742    6.3675    1.3667   H         1 RES1   0.0000
   358 H216     -0.6177    6.9280   -1.0527   H         1 RES1   0.0000
   359 H217      0.3798    8.1051   -0.2055   H         1 RES1   0.0000
   360 H218     -0.9920    7.3666    0.6194   H         1 RES1   0.0000
   361 H219      0.1887    5.2622    2.9181   H         1 RES1   0.0000
   362 H220      1.0251    4.7659    4.3788   H         1 RES1   0.0000
   363 H221     -0.7110    6.1203    5.0538   H         1 RES1   0.0000
   364 H222     -1.1901    4.5202    5.5498   H         1 RES1   0.0000
   365 H223     -2.2102    5.7503    2.9541   H         1 RES1   0.0000
   366 H224     -2.8859    6.2051    4.5075   H         1 RES1   0.0000
   367 H225     -3.4053    3.6999    4.8845   H         1 RES1   0.0000
   368 H226     -3.1388    3.5178    3.1463   H         1 RES1   0.0000
   369 H227     -4.7576    5.3986    2.7497   H         1 RES1   0.0000
   370 H228     -4.9814    5.5562    4.4804   H         1 RES1   0.0000
   371 H229     -6.8689    4.5389    3.5087   H         1 RES1   0.0000
   372 H230     -6.1108    3.4008    4.6031   H         1 RES1   0.0000
   373 H231     -5.3636    3.1844    1.7026   H         1 RES1   0.0000
   374 H232     -7.0109    2.7441    2.1339   H         1 RES1   0.0000
   375 H233     -4.4528    1.4777    3.1636   H         1 RES1   0.0000
   376 H234     -5.7988    0.7027    2.3015   H         1 RES1   0.0000
   377 H235     -6.0135    1.2461    3.9543   H         1 RES1   0.0000
   378 H236     -0.3678    1.3366    4.1154   H         1 RES1   0.0000
   379 H237     -0.9089    2.6080    5.2166   H         1 RES1   0.0000
   380 H238      1.6129    3.2191    5.4727   H         1 RES1   0.0000
   381 H239      1.9306    1.7444    4.5569   H         1 RES1   0.0000
   382 H240      2.2363    1.1171    6.7674   H         1 RES1   0.0000
   383 H241      0.6243    0.5575    6.4360   H         1 RES1   0.0000
   384 H242     -0.0341    1.6883    8.3136   H         1 RES1   0.0000
   385 H243      0.2423    3.1857    7.4480   H         1 RES1   0.0000
   386 H244      2.3604    1.7074    9.0612   H         1 RES1   0.0000
   387 H245      1.3576    3.0193    9.6638   H         1 RES1   0.0000
   388 H246      3.2568    4.1721    9.1177   H         1 RES1   0.0000
   389 H247      2.3216    4.3885    7.6402   H         1 RES1   0.0000
   390 H248      3.6811    2.6759    6.5043   H         1 RES1   0.0000
   391 H249      4.4380    2.2269    8.0353   H         1 RES1   0.0000
   392 H250      4.7077    4.9603    6.6965   H         1 RES1   0.0000
   393 H251      5.9188    3.6757    6.6444   H         1 RES1   0.0000
   394 H252      5.5110    4.4446    8.1734   H         1 RES1   0.0000
@<TRIPOS>BOND
     1     1    20    1
     2     1    25    1
     3     1    31    1
     4     1   151    1
     5     1   156    1
     6     1   162    1
     7     1   282    1
     8     1   287    1
     9     1   293    1
    10     2     3    1
    11     2    49    1
    12     2    50    1
    13     2    51    1
    14     3     4    1
    15     3    52    1
    16     3    53    1
    17     4     5    1
    18     4    54    1
    19     4    55    1
    20     5     6    1
    21     5    56    1
    22     5    57    1
    23     6     7    1
    24     6    58    1
    25     6    59    1
    26     7     8    1
    27     7    60    1
    28     7    61    1
    29     8     9    1
    30     8    62    1
    31     8    63    1
    32     9    10    1
    33     9    64    1
    34     9    65    1
    35    10    11    1
    36    10    19    1
    37    11    12    1
    38    11    66    1
    39    11    67    1
    40    12    13    1
    41    12    68    1
    42    12    69    1
    43    13    14    1
    44    13    70    1
    45    13    71    1
    46    14    15    1
    47    14    72    1
    48    14    73    1
    49    15    16    1
    50    15    74    1
    51    15    75    1
    52    16    17    1
    53    16    76    1
    54    16    77    1
    55    17    18    1
    56    17    78    1
    57    17    79    1
    58    18    80    1
    59    18    81    1
    60    18    82    1
    61    19    20    2
    62    19    21    1
    63    21    22    1
    64    21    25    1
    65    21    83    1
    66    22    23    1
    67    22    84    1
    68    22    85    1
    69    23    24    1
    70    23    86    1
    71    23    87    1
    72    24    88    1
    73    24    89    1
    74    24    90    1
    75    25    26    1
    76    26    27    1
    77    26    30    1
    78    26    91    1
    79    27    28    1
    80    27    92    1
    81    27    93    1
    82    28    29    1
    83    28    94    1
    84    28    95    1
    85    29    96    1
    86    29    97    1
    87    29    98    1
    88    30    31    2
    89    30    32    1
    90    32    33    1
    91    32    41    1
    92    33    34    1
    93    33    99    1
    94    33   100    1
    95    34    35    1
    96    34   101    1
    97    34   102    1
    98    35    36    1
    99    35   103    1
   100    35   104    1
   101    36    37    1
   102    36   105    1
   103    36   106    1
   104    37    38    1
   105    37   107    1
   106    37   108    1
   107    38    39    1
   108    38   109    1
   109    38   110    1
   110    39    40    1
   111    39   111    1
   112    39   112    1
   113    40   113    1
   114    40   114    1
   115    40   115    1
   116    41    42    1
   117    41   116    1
   118    41   117    1
   119    42    43    1
   120    42   118    1
   121    42   119    1
   122    43    44    1
   123    43   120    1
   124    43   121    1
   125    44    45    1
   126    44   122    1
   127    44   123    1
   128    45    46    1
   129    45   124    1
   130    45   125    1
   131    46    47    1
   132    46   126    1
   133    46   127    1
   134    47    48    1
   135    47   128    1
   136    47   129    1
   137    48   130    1
   138    48   131    1
   139    48   132    1
   140   133   134    1
   141   133   180    1
   142   133   181    1
   143   133   182    1
   144   134   135    1
   145   134   183    1
   146   134   184    1
   147   135   136    1
   148   135   185    1
   149   135   186    1
   150   136   137    1
   151   136   187    1
   152   136   188    1
   153   137   138    1
   154   137   189    1
   155   137   190    1
   156   138   139    1
   157   138   191    1
   158   138   192    1
   159   139   140    1
   160   139   193    1
   161   139   194    1
   162   140   141    1
   163   140   195    1
   164   140   196    1
   165   141   142    1
   166   141   150    1
   167   142   143    1
   168   142   197    1
   169   142   198    1
   170   143   144    1
   171   143   199    1
   172   143   200    1
   173   144   145    1
   174   144   201    1
   175   144   202    1
   176   145   146    1
   177   145   203    1
   178   145   204    1
   179   146   147    1
   180   146   205    1
   181   146   206    1
   182   147   148    1
   183   147   207    1
   184   147   208    1
   185   148   149    1
   186   148   209    1
   187   148   210    1
   188   149   211    1
   189   149   212    1
   190   149   213    1
   191   150   151    2
   192   150   152    1
   193   152   153    1
   194   152   156    1
   195   152   214    1
   196   153   154    1
   197   153   215    1
   198   153   216    1
   199   154   155    1
   200   154   217    1
   201   154   218    1
   202   155   219    1
   203   155   220    1
   204   155   221    1
   205   156   157    1
   206   157   158    1
   207   157   161    1
   208   157   222    1
   209   158   159    1
   210   158   223    1
   211   158   224    1
   212   159   160    1
   213   159   225    1
   214   159   226    1
   215   160   227    1
   216   160   228    1
   217   160   229    1
   218   161   162    2
   219   161   163    1
   220   163   164    1
   221   163   172    1
   222   164   165    1
   223   164   230    1
   224   164   231    1
   225   165   166    1
   226   165   232    1
   227   165   233    1
   228   166   167    1
   229   166   234    1
   230   166   235    1
   231   167   168    1
   232   167   236    1
   233   167   237    1
   234   168   169    1
   235   168   238    1
   236   168   239    1
   237   169   170    1
   238   169   240    1
   239   169   241    1
   240   170   171    1
   241   170   242    1
   242   170   243    1
   243   171   244    1
   244   171   245    1
   245   171   246    1
   246   172   173    1
   247   172   247    1
   248   172   248    1
   249   173   174    1
   250   173   249    1
   251   173   250    1
   252   174   175    1
   253   174   251    1
   254   174   252    1
   255   175   176    1
   256   175   253    1
   257   175   254    1
   258   176   177    1
   259   176   255    1
   260   176   256    1
   261   177   178    1
   262   177   257    1
   263   177   258    1
   264   178   179    1
   265   178   259    1
   266   178   260    1
   267   179   261    1
   268   179   262    1
   269   179   263    1
   270   264   265    1
   271   264   311    1
   272   264   312    1
   273   264   313    1
   274   265   266    1
   275   265   314    1
   276   265   315    1
   277   266   267    1
   278   266   316    1
   279   266   317    1
   280   267   268    1
   281   267   318    1
   282   267   319    1
   283   268   269    1
   284   268   320    1
   285   268   321    1
   286   269   270    1
   287   269   322    1
   288   269   323    1
   289   270   271    1
   290   270   324    1
   291   270   325    1
   292   271   272    1
   293   271   326    1
   294   271   327    1
   295   272   273    1
   296   272   281    1
   297   273   274    1
   298   273   328    1
   299   273   329    1
   300   274   275    1
   301   274   330    1
   302   274   331    1
   303   275   276    1
   304   275   332    1
   305   275   333    1
   306   276   277    1
   307   276   334    1
   308   276   335    1
   309   277   278    1
   310   277   336    1
   311   277   337    1
   312   278   279    1
   313   278   338    1
   314   278   339    1
   315   279   280    1
   316   279   340    1
   317   279   341    1
   318   280   342    1
   319   280   343    1
   320   280   344    1
   321   281   282    2
   322   281   283    1
   323   283   284    1
   324   283   287    1
   325   283   345    1
   326   284   285    1
   327   284   346    1
   328   284   347    1
   329   285   286    1
   330   285   348    1
   331   285   349    1
   332   286   350    1
   333   286   351    1
   334   286   352    1
   335   287   288    1
   336   288   289    1
   337   288   292    1
   338   288   353    1
   339   289   290    1
   340   289   354    1
   341   289   355    1
   342   290   291    1
   343   290   356    1
   344   290   357    1
   345   291   358    1
   346   291   359    1
   347   291   360    1
   348   292   293    2
   349   292   294    1
   350   294   295    1
   351   294   303    1
   352   295   296    1
   353   295   361    1
   354   295   362    1
   355   296   297    1
   356   296   363    1
   357   296   364    1
   358   297   298    1
   359   297   365    1
   360   297   366    1
   361   298   299    1
   362   298   367    1
   363   298   368    1
   364   299   300    1
   365   299   369    1
   366   299   370    1
   367   300   301    1
   368   300   371    1
   369   300   372    1
   370   301   302    1
   371   301   373    1
   372   301   374    1
   373   302   375    1
   374   302   376    1
   375   302   377    1
   376   303   304    1
   377   303   378    1
   378   303   379    1
   379   304   305    1
   380   304   380    1
   381   304   381    1
   382   305   306    1
   383   305   382    1
   384   305   383    1
   385   306   307    1
   386   306   384    1
   387   306   385    1
   388   307   308    1
   389   307   386    1
   390   307   387    1
   391   308   309    1
   392   308   388    1
   393   308   389    1
   394   309   310    1
   395   309   390    1
   396   309   391    1
   397   310   392    1
   398   310   393    1
   399   310   394    1
@<TRIPOS>SUBSTRUCTURE
     1 RES1      394 GROUP             0 ****  ****    0  
