@<TRIPOS>MOLECULE
cn9_YICLED_0_nunpairedes_0_charge_3 Charge: 3 Unpaired_Electrons: 0 XTB_Unpaired_Electrons: 0 XTB_Charge: 3
   214   219     1     0     0
SMALL
NoCharges
****
Generated from Architector

@<TRIPOS>ATOM
     1 La1      -0.0735    0.1345    0.0443   La        1 RES1   0.0000
     2 C1       -0.8749   -6.2291   -3.0005   C.3       1 RES1   0.0000
     3 C2       -1.4222   -6.5340   -1.6104   C.3       1 RES1   0.0000
     4 C3       -0.2889   -6.5918   -0.5860   C.3       1 RES1   0.0000
     5 C4       -0.6812   -7.2448    0.7385   C.3       1 RES1   0.0000
     6 C5       -1.8419   -6.5749    1.4711   C.3       1 RES1   0.0000
     7 C6       -1.7717   -5.0517    1.5846   C.3       1 RES1   0.0000
     8 C7       -1.0055   -4.4959    2.7835   C.3       1 RES1   0.0000
     9 C8        0.5011   -4.7224    2.8135   C.3       1 RES1   0.0000
    10 N1        1.3283   -4.2089    1.7076   N.am      1 RES1   0.0000
    11 C9        2.4888   -5.0390    1.4085   C.3       1 RES1   0.0000
    12 C10       1.2186   -3.0112    1.1426   C.2       1 RES1   0.0000
    13 O1        0.3565   -2.1527    1.4142   O.2       1 RES1   0.0000
    14 C11       2.2404   -2.6682    0.0434   C.3       1 RES1   0.0000
    15 O2        2.2216   -1.2610   -0.1045   O.3       1 RES1   0.0000
    16 C12       3.2509   -0.7669   -0.9591   C.3       1 RES1   0.0000
    17 C13       3.1833    0.7376   -0.7437   C.2       1 RES1   0.0000
    18 O3        2.0265    1.2151   -0.6896   O.2       1 RES1   0.0000
    19 N2        4.2659    1.4762   -0.5980   N.am      1 RES1   0.0000
    20 C14       4.1140    2.8855   -0.2769   C.3       1 RES1   0.0000
    21 C15       5.6386    0.9862   -0.6476   C.3       1 RES1   0.0000
    22 C16       6.0991    0.2465    0.6208   C.3       1 RES1   0.0000
    23 C17       5.6739    0.9209    1.9264   C.3       1 RES1   0.0000
    24 C18       6.4651    2.1959    2.2389   C.3       1 RES1   0.0000
    25 C19       5.7174    3.1206    3.1989   C.3       1 RES1   0.0000
    26 C20       5.4271    2.4669    4.5474   C.3       1 RES1   0.0000
    27 C21       4.6151    3.3544    5.4896   C.3       1 RES1   0.0000
    28 C22       3.2285    3.6701    4.9369   C.3       1 RES1   0.0000
    29 H1       -1.6732   -6.2061   -3.7374   H         1 RES1   0.0000
    30 H2       -0.1724   -7.0019   -3.2990   H         1 RES1   0.0000
    31 H3       -0.3529   -5.2725   -3.0040   H         1 RES1   0.0000
    32 H4       -1.9392   -7.4928   -1.6334   H         1 RES1   0.0000
    33 H5       -2.1574   -5.7743   -1.3265   H         1 RES1   0.0000
    34 H6        0.0940   -5.5795   -0.4181   H         1 RES1   0.0000
    35 H7        0.5280   -7.1736   -1.0170   H         1 RES1   0.0000
    36 H8        0.2016   -7.2829    1.3748   H         1 RES1   0.0000
    37 H9       -0.9734   -8.2764    0.5441   H         1 RES1   0.0000
    38 H10      -1.9267   -7.0055    2.4686   H         1 RES1   0.0000
    39 H11      -2.7625   -6.8202    0.9404   H         1 RES1   0.0000
    40 H12      -2.8043   -4.7142    1.6879   H         1 RES1   0.0000
    41 H13      -1.3664   -4.6298    0.6667   H         1 RES1   0.0000
    42 H14      -1.3879   -4.9778    3.6853   H         1 RES1   0.0000
    43 H15      -1.1835   -3.4244    2.8901   H         1 RES1   0.0000
    44 H16       0.6706   -5.7968    2.8461   H         1 RES1   0.0000
    45 H17       0.8776   -4.2941    3.7496   H         1 RES1   0.0000
    46 H18       2.4344   -5.9680    1.9664   H         1 RES1   0.0000
    47 H19       3.4130   -4.5435    1.7103   H         1 RES1   0.0000
    48 H20       2.5328   -5.2900    0.3503   H         1 RES1   0.0000
    49 H21       1.9352   -3.1623   -0.8935   H         1 RES1   0.0000
    50 H22       3.2522   -2.9887    0.3168   H         1 RES1   0.0000
    51 H23       3.0122   -0.9721   -2.0135   H         1 RES1   0.0000
    52 H24       4.2138   -1.2078   -0.6916   H         1 RES1   0.0000
    53 H25       3.0710    3.1606   -0.4022   H         1 RES1   0.0000
    54 H26       4.7421    3.4906   -0.9279   H         1 RES1   0.0000
    55 H27       4.4086    3.0712    0.7557   H         1 RES1   0.0000
    56 H28       6.2768    1.8585   -0.7897   H         1 RES1   0.0000
    57 H29       5.7678    0.3407   -1.5188   H         1 RES1   0.0000
    58 H30       7.1873    0.1958    0.5796   H         1 RES1   0.0000
    59 H31       5.7295   -0.7817    0.6221   H         1 RES1   0.0000
    60 H32       5.8224    0.2093    2.7393   H         1 RES1   0.0000
    61 H33       4.6020    1.1392    1.8845   H         1 RES1   0.0000
    62 H34       6.6777    2.7437    1.3197   H         1 RES1   0.0000
    63 H35       7.4261    1.9218    2.6731   H         1 RES1   0.0000
    64 H36       4.7719    3.4288    2.7441   H         1 RES1   0.0000
    65 H37       6.3099    4.0221    3.3532   H         1 RES1   0.0000
    66 H38       6.3690    2.2101    5.0307   H         1 RES1   0.0000
    67 H39       4.8685    1.5405    4.3960   H         1 RES1   0.0000
    68 H40       5.1497    4.2826    5.6897   H         1 RES1   0.0000
    69 H41       4.4996    2.8276    6.4385   H         1 RES1   0.0000
    70 H42       3.2751    4.4137    4.1453   H         1 RES1   0.0000
    71 H43       2.5915    4.0636    5.7243   H         1 RES1   0.0000
    72 H44       2.7772    2.7624    4.5394   H         1 RES1   0.0000
    73 C23      -5.2826   -0.9663   -3.7802   C.3       1 RES1   0.0000
    74 C24      -4.5662    0.3368   -4.1141   C.3       1 RES1   0.0000
    75 C25      -4.2876    0.5298   -5.6074   C.3       1 RES1   0.0000
    76 C26      -3.3133   -0.4596   -6.2521   C.3       1 RES1   0.0000
    77 C27      -1.8789   -0.3824   -5.7299   C.3       1 RES1   0.0000
    78 C28      -0.9315   -1.3931   -6.3851   C.3       1 RES1   0.0000
    79 C29       0.3505   -1.6053   -5.5709   C.3       1 RES1   0.0000
    80 C30       0.2874   -2.7245   -4.5252   C.3       1 RES1   0.0000
    81 N3       -0.8834   -2.6440   -3.6531   N.am      1 RES1   0.0000
    82 C31      -2.0920   -3.2950   -4.1305   C.3       1 RES1   0.0000
    83 C32      -0.8674   -1.8871   -2.5670   C.2       1 RES1   0.0000
    84 O4        0.1273   -1.2504   -2.1593   O.2       1 RES1   0.0000
    85 C33      -2.1150   -1.8040   -1.6878   C.3       1 RES1   0.0000
    86 O5       -1.5807   -1.8618   -0.3668   O.3       1 RES1   0.0000
    87 C34      -2.5027   -2.1489    0.6717   C.3       1 RES1   0.0000
    88 C35      -3.0355   -0.8799    1.3160   C.2       1 RES1   0.0000
    89 O6       -2.5434    0.2073    0.9426   O.2       1 RES1   0.0000
    90 N4       -4.0132   -1.0094    2.2064   N.am      1 RES1   0.0000
    91 C36      -4.8880    0.1199    2.4165   C.3       1 RES1   0.0000
    92 C37      -4.4222   -2.2824    2.7939   C.3       1 RES1   0.0000
    93 C38      -4.7112   -2.2384    4.3061   C.3       1 RES1   0.0000
    94 C39      -3.5284   -2.6940    5.1590   C.3       1 RES1   0.0000
    95 C40      -2.4277   -1.6480    5.2825   C.3       1 RES1   0.0000
    96 C41      -1.4654   -2.0156    6.4142   C.3       1 RES1   0.0000
    97 C42      -0.5529   -3.2206    6.1195   C.3       1 RES1   0.0000
    98 C43      -1.0568   -4.5659    6.6530   C.3       1 RES1   0.0000
    99 C44      -0.1497   -5.7386    6.2950   C.3       1 RES1   0.0000
   100 H45      -5.5685   -0.9825   -2.7301   H         1 RES1   0.0000
   101 H46      -6.1807   -1.0659   -4.3812   H         1 RES1   0.0000
   102 H47      -4.6538   -1.8319   -3.9710   H         1 RES1   0.0000
   103 H48      -5.1962    1.1676   -3.7892   H         1 RES1   0.0000
   104 H49      -3.6388    0.3927   -3.5363   H         1 RES1   0.0000
   105 H50      -5.2390    0.4479   -6.1342   H         1 RES1   0.0000
   106 H51      -3.9227    1.5462   -5.7603   H         1 RES1   0.0000
   107 H52      -3.7070   -1.4687   -6.1347   H         1 RES1   0.0000
   108 H53      -3.3001   -0.2486   -7.3201   H         1 RES1   0.0000
   109 H54      -1.4875    0.6125   -5.9331   H         1 RES1   0.0000
   110 H55      -1.8658   -0.5246   -4.6474   H         1 RES1   0.0000
   111 H56      -1.4286   -2.3462   -6.5438   H         1 RES1   0.0000
   112 H57      -0.6609   -1.0258   -7.3736   H         1 RES1   0.0000
   113 H58       1.1674   -1.8572   -6.2474   H         1 RES1   0.0000
   114 H59       0.6135   -0.6852   -5.0560   H         1 RES1   0.0000
   115 H60       0.2604   -3.6934   -5.0256   H         1 RES1   0.0000
   116 H61       1.1864   -2.6767   -3.9025   H         1 RES1   0.0000
   117 H62      -2.8213   -2.5582   -4.4664   H         1 RES1   0.0000
   118 H63      -1.8400   -3.9324   -4.9727   H         1 RES1   0.0000
   119 H64      -2.5305   -3.9319   -3.3647   H         1 RES1   0.0000
   120 H65      -2.6050   -0.8392   -1.8818   H         1 RES1   0.0000
   121 H66      -2.8206   -2.6210   -1.8448   H         1 RES1   0.0000
   122 H67      -3.3484   -2.7432    0.3084   H         1 RES1   0.0000
   123 H68      -1.9102   -2.6821    1.4133   H         1 RES1   0.0000
   124 H69      -4.3504    1.0133    2.1267   H         1 RES1   0.0000
   125 H70      -5.7904    0.0219    1.8065   H         1 RES1   0.0000
   126 H71      -5.1821    0.2036    3.4559   H         1 RES1   0.0000
   127 H72      -5.3052   -2.6579    2.2648   H         1 RES1   0.0000
   128 H73      -3.6064   -2.9808    2.6477   H         1 RES1   0.0000
   129 H74      -5.5642   -2.8817    4.5050   H         1 RES1   0.0000
   130 H75      -5.0057   -1.2471    4.6357   H         1 RES1   0.0000
   131 H76      -3.8919   -2.9001    6.1662   H         1 RES1   0.0000
   132 H77      -3.1220   -3.6288    4.7703   H         1 RES1   0.0000
   133 H78      -1.8922   -1.5310    4.3352   H         1 RES1   0.0000
   134 H79      -2.8848   -0.6823    5.5142   H         1 RES1   0.0000
   135 H80      -0.8300   -1.1525    6.6159   H         1 RES1   0.0000
   136 H81      -2.0643   -2.2095    7.3073   H         1 RES1   0.0000
   137 H82      -0.3831   -3.2677    5.0427   H         1 RES1   0.0000
   138 H83       0.4232   -3.0451    6.5782   H         1 RES1   0.0000
   139 H84      -1.1031   -4.4977    7.7396   H         1 RES1   0.0000
   140 H85      -2.0644   -4.7828    6.2996   H         1 RES1   0.0000
   141 H86       0.8821   -5.5276    6.5555   H         1 RES1   0.0000
   142 H87      -0.4633   -6.6164    6.8480   H         1 RES1   0.0000
   143 H88      -0.1900   -5.9907    5.2392   H         1 RES1   0.0000
   144 C45      -4.3795    4.8714    1.1490   C.3       1 RES1   0.0000
   145 C46      -4.9806    3.5164    1.4996   C.3       1 RES1   0.0000
   146 C47      -5.5388    3.4458    2.9233   C.3       1 RES1   0.0000
   147 C48      -4.5320    3.6601    4.0562   C.3       1 RES1   0.0000
   148 C49      -3.3985    2.6395    4.1026   C.3       1 RES1   0.0000
   149 C50      -2.4947    2.7757    5.3283   C.3       1 RES1   0.0000
   150 C51      -1.2710    1.8572    5.2229   C.3       1 RES1   0.0000
   151 C52      -0.0389    2.5228    4.6029   C.3       1 RES1   0.0000
   152 N5       -0.3465    3.2507    3.3736   N.am      1 RES1   0.0000
   153 C53      -0.5740    4.6821    3.4801   C.3       1 RES1   0.0000
   154 C54      -0.4588    2.5725    2.2472   C.2       1 RES1   0.0000
   155 O7       -0.2299    1.3421    2.1613   O.2       1 RES1   0.0000
   156 C55      -0.7994    3.2969    0.9433   C.3       1 RES1   0.0000
   157 O8        0.2395    2.8739    0.0642   O.3       1 RES1   0.0000
   158 C56       0.2257    3.4914   -1.2048   C.3       1 RES1   0.0000
   159 C57      -0.6141    2.6738   -2.1816   C.2       1 RES1   0.0000
   160 O9       -1.0731    1.5735   -1.7927   O.2       1 RES1   0.0000
   161 N6       -0.8568    3.2005   -3.3723   N.am      1 RES1   0.0000
   162 C58      -1.9021    2.6270   -4.1944   C.3       1 RES1   0.0000
   163 C59      -0.1646    4.3594   -3.9244   C.3       1 RES1   0.0000
   164 C60       1.2016    4.0363   -4.5532   C.3       1 RES1   0.0000
   165 C61       1.1627    3.2473   -5.8720   C.3       1 RES1   0.0000
   166 C62       1.3341    1.7327   -5.7074   C.3       1 RES1   0.0000
   167 C63       2.7726    1.2204   -5.8169   C.3       1 RES1   0.0000
   168 C64       3.7007    1.6128   -4.6611   C.3       1 RES1   0.0000
   169 C65       4.5101    2.8752   -4.9683   C.3       1 RES1   0.0000
   170 C66       5.1664    3.4788   -3.7340   C.3       1 RES1   0.0000
   171 H89      -4.1148    4.9112    0.0937   H         1 RES1   0.0000
   172 H90      -5.0954    5.6602    1.3562   H         1 RES1   0.0000
   173 H91      -3.4811    5.0626    1.7322   H         1 RES1   0.0000
   174 H92      -5.8054    3.3037    0.8152   H         1 RES1   0.0000
   175 H93      -4.2194    2.7473    1.3373   H         1 RES1   0.0000
   176 H94      -6.3130    4.2078    3.0178   H         1 RES1   0.0000
   177 H95      -6.0307    2.4810    3.0525   H         1 RES1   0.0000
   178 H96      -4.1230    4.6669    3.9861   H         1 RES1   0.0000
   179 H97      -5.0847    3.6017    4.9923   H         1 RES1   0.0000
   180 H98      -3.8216    1.6397    4.1464   H         1 RES1   0.0000
   181 H99      -2.8011    2.7055    3.1920   H         1 RES1   0.0000
   182 H100     -2.1812    3.8066    5.4737   H         1 RES1   0.0000
   183 H101     -3.0736    2.5008    6.2086   H         1 RES1   0.0000
   184 H102     -0.9762    1.5101    6.2129   H         1 RES1   0.0000
   185 H103     -1.5214    0.9822    4.6234   H         1 RES1   0.0000
   186 H104      0.4046    3.2307    5.3021   H         1 RES1   0.0000
   187 H105      0.6979    1.7505    4.3614   H         1 RES1   0.0000
   188 H106     -0.4685    4.9771    4.5201   H         1 RES1   0.0000
   189 H107      0.1660    5.2425    2.9073   H         1 RES1   0.0000
   190 H108     -1.5786    4.9510    3.1543   H         1 RES1   0.0000
   191 H109     -1.7887    2.9564    0.5969   H         1 RES1   0.0000
   192 H110     -0.7916    4.3857    1.0286   H         1 RES1   0.0000
   193 H111     -0.1751    4.5076   -1.1345   H         1 RES1   0.0000
   194 H112      1.2613    3.5310   -1.5470   H         1 RES1   0.0000
   195 H113     -2.0228    1.5836   -3.9249   H         1 RES1   0.0000
   196 H114     -2.8417    3.1591   -4.0253   H         1 RES1   0.0000
   197 H115     -1.6485    2.7087   -5.2457   H         1 RES1   0.0000
   198 H116     -0.8138    4.7865   -4.6886   H         1 RES1   0.0000
   199 H117     -0.0122    5.1244   -3.1603   H         1 RES1   0.0000
   200 H118      1.6737    5.0017   -4.7407   H         1 RES1   0.0000
   201 H119      1.8123    3.4964   -3.8298   H         1 RES1   0.0000
   202 H120      0.2278    3.4536   -6.3976   H         1 RES1   0.0000
   203 H121      1.9573    3.6106   -6.5236   H         1 RES1   0.0000
   204 H122      0.9150    1.4216   -4.7459   H         1 RES1   0.0000
   205 H123      0.7665    1.2443   -6.5004   H         1 RES1   0.0000
   206 H124      2.7277    0.1327   -5.8733   H         1 RES1   0.0000
   207 H125      3.2028    1.5708   -6.7544   H         1 RES1   0.0000
   208 H126      3.1186    1.7490   -3.7433   H         1 RES1   0.0000
   209 H127      4.4002    0.7954   -4.4673   H         1 RES1   0.0000
   210 H128      5.2807    2.6228   -5.6965   H         1 RES1   0.0000
   211 H129      3.8673    3.6297   -5.4175   H         1 RES1   0.0000
   212 H130      5.8238    2.7566   -3.2561   H         1 RES1   0.0000
   213 H131      5.7576    4.3494   -4.0053   H         1 RES1   0.0000
   214 H132      4.4050    3.7951   -3.0227   H         1 RES1   0.0000
@<TRIPOS>BOND
     1     1    13    1
     2     1    15    1
     3     1    18    1
     4     1    84    1
     5     1    86    1
     6     1    89    1
     7     1   155    1
     8     1   157    1
     9     1   160    1
    10     2     3    1
    11     2    29    1
    12     2    30    1
    13     2    31    1
    14     3     4    1
    15     3    32    1
    16     3    33    1
    17     4     5    1
    18     4    34    1
    19     4    35    1
    20     5     6    1
    21     5    36    1
    22     5    37    1
    23     6     7    1
    24     6    38    1
    25     6    39    1
    26     7     8    1
    27     7    40    1
    28     7    41    1
    29     8     9    1
    30     8    42    1
    31     8    43    1
    32     9    10    1
    33     9    44    1
    34     9    45    1
    35    10    11    1
    36    10    12    1
    37    11    46    1
    38    11    47    1
    39    11    48    1
    40    12    13    2
    41    12    14    1
    42    14    15    1
    43    14    49    1
    44    14    50    1
    45    15    16    1
    46    16    17    1
    47    16    51    1
    48    16    52    1
    49    17    18    2
    50    17    19    1
    51    19    20    1
    52    19    21    1
    53    20    53    1
    54    20    54    1
    55    20    55    1
    56    21    22    1
    57    21    56    1
    58    21    57    1
    59    22    23    1
    60    22    58    1
    61    22    59    1
    62    23    24    1
    63    23    60    1
    64    23    61    1
    65    24    25    1
    66    24    62    1
    67    24    63    1
    68    25    26    1
    69    25    64    1
    70    25    65    1
    71    26    27    1
    72    26    66    1
    73    26    67    1
    74    27    28    1
    75    27    68    1
    76    27    69    1
    77    28    70    1
    78    28    71    1
    79    28    72    1
    80    73    74    1
    81    73   100    1
    82    73   101    1
    83    73   102    1
    84    74    75    1
    85    74   103    1
    86    74   104    1
    87    75    76    1
    88    75   105    1
    89    75   106    1
    90    76    77    1
    91    76   107    1
    92    76   108    1
    93    77    78    1
    94    77   109    1
    95    77   110    1
    96    78    79    1
    97    78   111    1
    98    78   112    1
    99    79    80    1
   100    79   113    1
   101    79   114    1
   102    80    81    1
   103    80   115    1
   104    80   116    1
   105    81    82    1
   106    81    83    1
   107    82   117    1
   108    82   118    1
   109    82   119    1
   110    83    84    2
   111    83    85    1
   112    85    86    1
   113    85   120    1
   114    85   121    1
   115    86    87    1
   116    87    88    1
   117    87   122    1
   118    87   123    1
   119    88    89    2
   120    88    90    1
   121    90    91    1
   122    90    92    1
   123    91   124    1
   124    91   125    1
   125    91   126    1
   126    92    93    1
   127    92   127    1
   128    92   128    1
   129    93    94    1
   130    93   129    1
   131    93   130    1
   132    94    95    1
   133    94   131    1
   134    94   132    1
   135    95    96    1
   136    95   133    1
   137    95   134    1
   138    96    97    1
   139    96   135    1
   140    96   136    1
   141    97    98    1
   142    97   137    1
   143    97   138    1
   144    98    99    1
   145    98   139    1
   146    98   140    1
   147    99   141    1
   148    99   142    1
   149    99   143    1
   150   144   145    1
   151   144   171    1
   152   144   172    1
   153   144   173    1
   154   145   146    1
   155   145   174    1
   156   145   175    1
   157   146   147    1
   158   146   176    1
   159   146   177    1
   160   147   148    1
   161   147   178    1
   162   147   179    1
   163   148   149    1
   164   148   180    1
   165   148   181    1
   166   149   150    1
   167   149   182    1
   168   149   183    1
   169   150   151    1
   170   150   184    1
   171   150   185    1
   172   151   152    1
   173   151   186    1
   174   151   187    1
   175   152   153    1
   176   152   154    1
   177   153   188    1
   178   153   189    1
   179   153   190    1
   180   154   155    2
   181   154   156    1
   182   156   157    1
   183   156   191    1
   184   156   192    1
   185   157   158    1
   186   158   159    1
   187   158   193    1
   188   158   194    1
   189   159   160    2
   190   159   161    1
   191   161   162    1
   192   161   163    1
   193   162   195    1
   194   162   196    1
   195   162   197    1
   196   163   164    1
   197   163   198    1
   198   163   199    1
   199   164   165    1
   200   164   200    1
   201   164   201    1
   202   165   166    1
   203   165   202    1
   204   165   203    1
   205   166   167    1
   206   166   204    1
   207   166   205    1
   208   167   168    1
   209   167   206    1
   210   167   207    1
   211   168   169    1
   212   168   208    1
   213   168   209    1
   214   169   170    1
   215   169   210    1
   216   169   211    1
   217   170   212    1
   218   170   213    1
   219   170   214    1
@<TRIPOS>SUBSTRUCTURE
     1 RES1      214 GROUP             0 ****  ****    0  
