@<TRIPOS>MOLECULE
am_c3_9H2O_c0_0_nunpairedes_0_charge_3 Charge: 3 Unpaired_Electrons: 0 XTB_Unpaired_Electrons: 0 XTB_Charge: 3
   196   209     1     0     0
SMALL
NoCharges
****
Generated from Architector

@<TRIPOS>ATOM
     1 La1       0.0461   -0.0787    0.0139   La        1 RES1   0.0000
     2 C1       -1.7410   -7.6704    3.0977   C.3       1 RES1   0.0000
     3 C2       -1.4732   -8.7255    2.0303   C.3       1 RES1   0.0000
     4 C3       -1.0059   -8.1041    0.7143   C.3       1 RES1   0.0000
     5 C4       -0.8418   -9.1604   -0.3734   C.3       1 RES1   0.0000
     6 C5       -0.4206   -8.5821   -1.7230   C.3       1 RES1   0.0000
     7 C6        1.0514   -8.1458   -1.8208   C.3       1 RES1   0.0000
     8 C7        1.4397   -6.9310   -1.0372   C.ar      1 RES1   0.0000
     9 C8        2.3793   -7.0027   -0.0135   C.ar      1 RES1   0.0000
    10 C9        2.7689   -5.8918    0.7059   C.ar      1 RES1   0.0000
    11 C10       2.2489   -4.6159    0.4510   C.ar      1 RES1   0.0000
    12 N1        2.6825   -3.4828    1.2332   N.am      1 RES1   0.0000
    13 C11       3.6533   -3.8150    2.2773   C.3       1 RES1   0.0000
    14 C12       5.0775   -3.9226    1.7284   C.3       1 RES1   0.0000
    15 C13       2.2124   -2.2289    1.0553   C.2       1 RES1   0.0000
    16 O1        1.2488   -2.0090    0.2869   O.2       1 RES1   0.0000
    17 C14       2.7731   -0.9658    1.7256   C.ar      1 RES1   0.0000
    18 C15       3.9171   -0.8104    2.5126   C.ar      1 RES1   0.0000
    19 C16       4.2287    0.4347    3.0398   C.ar      1 RES1   0.0000
    20 C17       3.4572    1.5344    2.7220   C.ar      1 RES1   0.0000
    21 C18       2.3921    1.3484    1.8360   C.ar      1 RES1   0.0000
    22 C19       1.6453    2.5391    1.3298   C.ar      1 RES1   0.0000
    23 C20       1.7967    3.8062    1.9130   C.ar      1 RES1   0.0000
    24 C21       1.0205    4.8534    1.4468   C.ar      1 RES1   0.0000
    25 C22       0.1267    4.6380    0.4059   C.ar      1 RES1   0.0000
    26 C23       0.1058    3.3821   -0.2030   C.ar      1 RES1   0.0000
    27 C24      -0.8256    2.9078   -1.2988   C.2       1 RES1   0.0000
    28 O2       -1.1548    1.7012   -1.1935   O.2       1 RES1   0.0000
    29 N2       -1.2770    3.7018   -2.2795   N.am      1 RES1   0.0000
    30 C25      -0.5678    4.9293   -2.6454   C.3       1 RES1   0.0000
    31 C26       0.5520    4.6138   -3.6356   C.3       1 RES1   0.0000
    32 C27      -2.3026    3.2760   -3.1827   C.ar      1 RES1   0.0000
    33 C28      -2.4933    3.9064   -4.4130   C.ar      1 RES1   0.0000
    34 C29      -3.4891    3.5017   -5.2782   C.ar      1 RES1   0.0000
    35 C30      -4.3514    2.4557   -4.9632   C.ar      1 RES1   0.0000
    36 C31      -5.4089    2.0138   -5.9225   C.3       1 RES1   0.0000
    37 C32      -6.8447    1.9929   -5.3761   C.3       1 RES1   0.0000
    38 C33      -7.4152    3.3565   -4.9928   C.3       1 RES1   0.0000
    39 C34      -6.7778    3.9544   -3.7419   C.3       1 RES1   0.0000
    40 C35      -7.4927    5.2231   -3.2792   C.3       1 RES1   0.0000
    41 C36      -6.8411    5.8013   -2.0275   C.3       1 RES1   0.0000
    42 C37      -4.1636    1.8337   -3.7346   C.ar      1 RES1   0.0000
    43 C38      -3.1805    2.2410   -2.8573   C.ar      1 RES1   0.0000
    44 N3        0.8236    2.3578    0.2903   N.ar      1 RES1   0.0000
    45 N4        2.0532    0.1292    1.3974   N.ar      1 RES1   0.0000
    46 C39       1.3262   -4.5431   -0.5991   C.ar      1 RES1   0.0000
    47 C40       0.9440   -5.6637   -1.3152   C.ar      1 RES1   0.0000
    48 H1       -2.0666   -8.1434    4.0204   H         1 RES1   0.0000
    49 H2       -2.5239   -6.9885    2.7678   H         1 RES1   0.0000
    50 H3       -0.8395   -7.0928    3.3010   H         1 RES1   0.0000
    51 H4       -2.3867   -9.2994    1.8553   H         1 RES1   0.0000
    52 H5       -0.7072   -9.4163    2.3901   H         1 RES1   0.0000
    53 H6       -0.0542   -7.5907    0.8753   H         1 RES1   0.0000
    54 H7       -1.7369   -7.3577    0.3843   H         1 RES1   0.0000
    55 H8       -1.7969   -9.6764   -0.5024   H         1 RES1   0.0000
    56 H9       -0.1212   -9.9109   -0.0443   H         1 RES1   0.0000
    57 H10      -1.0744   -7.7472   -1.9821   H         1 RES1   0.0000
    58 H11      -0.5656   -9.3591   -2.4732   H         1 RES1   0.0000
    59 H12       1.2564   -7.9465   -2.8765   H         1 RES1   0.0000
    60 H13       1.6801   -8.9816   -1.5143   H         1 RES1   0.0000
    61 H14       2.8361   -7.9469    0.2381   H         1 RES1   0.0000
    62 H15       3.5063   -6.0911    1.4601   H         1 RES1   0.0000
    63 H16       3.3566   -4.7619    2.7337   H         1 RES1   0.0000
    64 H17       3.5821   -3.0897    3.0839   H         1 RES1   0.0000
    65 H18       5.1593   -4.7060    0.9808   H         1 RES1   0.0000
    66 H19       5.7660   -4.1639    2.5332   H         1 RES1   0.0000
    67 H20       5.4067   -3.0044    1.2488   H         1 RES1   0.0000
    68 H21       4.6174   -1.5972    2.7147   H         1 RES1   0.0000
    69 H22       5.1013    0.5526    3.6631   H         1 RES1   0.0000
    70 H23       3.7144    2.5035    3.1203   H         1 RES1   0.0000
    71 H24       2.4560    3.9804    2.7507   H         1 RES1   0.0000
    72 H25       1.0845    5.8273    1.9097   H         1 RES1   0.0000
    73 H26      -0.5411    5.4337    0.1167   H         1 RES1   0.0000
    74 H27      -0.1321    5.3995   -1.7713   H         1 RES1   0.0000
    75 H28      -1.2852    5.6365   -3.0634   H         1 RES1   0.0000
    76 H29       1.2758    3.9387   -3.1836   H         1 RES1   0.0000
    77 H30       1.0685    5.5265   -3.9168   H         1 RES1   0.0000
    78 H31       0.1640    4.1466   -4.5359   H         1 RES1   0.0000
    79 H32      -1.8920    4.7370   -4.7320   H         1 RES1   0.0000
    80 H33      -3.5930    4.0285   -6.2144   H         1 RES1   0.0000
    81 H34      -5.1668    0.9956   -6.2429   H         1 RES1   0.0000
    82 H35      -5.3758    2.6528   -6.8041   H         1 RES1   0.0000
    83 H36      -6.9064    1.3241   -4.5162   H         1 RES1   0.0000
    84 H37      -7.4733    1.5740   -6.1618   H         1 RES1   0.0000
    85 H38      -8.4857    3.2348   -4.8123   H         1 RES1   0.0000
    86 H39      -7.3083    4.0549   -5.8241   H         1 RES1   0.0000
    87 H40      -5.7317    4.1995   -3.9417   H         1 RES1   0.0000
    88 H41      -6.8019    3.2156   -2.9334   H         1 RES1   0.0000
    89 H42      -8.5407    4.9959   -3.0698   H         1 RES1   0.0000
    90 H43      -7.4604    5.9651   -4.0804   H         1 RES1   0.0000
    91 H44      -6.8796    5.0815   -1.2109   H         1 RES1   0.0000
    92 H45      -7.3582    6.7035   -1.7130   H         1 RES1   0.0000
    93 H46      -5.7980    6.0515   -2.2200   H         1 RES1   0.0000
    94 H47      -4.8166    1.0276   -3.4395   H         1 RES1   0.0000
    95 H48      -3.1122    1.7505   -1.9042   H         1 RES1   0.0000
    96 H49       0.8835   -3.6094   -0.8936   H         1 RES1   0.0000
    97 H50       0.2424   -5.5362   -2.1255   H         1 RES1   0.0000
    98 C41      -0.4386   -4.2245   -6.6190   C.3       1 RES1   0.0000
    99 C42       0.0073   -3.8221   -8.0212   C.3       1 RES1   0.0000
   100 C43      -0.5073   -2.4373   -8.4163   C.3       1 RES1   0.0000
   101 C44      -0.1355   -2.0300   -9.8440   C.3       1 RES1   0.0000
   102 C45       1.3603   -1.8767  -10.1244   C.3       1 RES1   0.0000
   103 C46       2.0262   -0.6398   -9.4989   C.3       1 RES1   0.0000
   104 C47       2.1373   -0.6548   -8.0083   C.ar      1 RES1   0.0000
   105 C48       1.5688    0.3579   -7.2391   C.ar      1 RES1   0.0000
   106 C49       1.6440    0.3393   -5.8612   C.ar      1 RES1   0.0000
   107 C50       2.2670   -0.7232   -5.2126   C.ar      1 RES1   0.0000
   108 N5        2.3516   -0.7431   -3.7975   N.am      1 RES1   0.0000
   109 C51       3.7036   -0.7935   -3.2420   C.3       1 RES1   0.0000
   110 C52       3.9414   -2.0745   -2.4497   C.3       1 RES1   0.0000
   111 C53       1.3651   -0.5401   -2.9228   C.2       1 RES1   0.0000
   112 O3        1.6289   -0.1637   -1.7558   O.2       1 RES1   0.0000
   113 C54      -0.0638   -0.8633   -3.2385   C.ar      1 RES1   0.0000
   114 C55      -0.6088   -1.1179   -4.4933   C.ar      1 RES1   0.0000
   115 C56      -1.9718   -1.3376   -4.5909   C.ar      1 RES1   0.0000
   116 C57      -2.7489   -1.3394   -3.4466   C.ar      1 RES1   0.0000
   117 C58      -2.1149   -1.1951   -2.2067   C.ar      1 RES1   0.0000
   118 C59      -2.8188   -1.4064   -0.9152   C.ar      1 RES1   0.0000
   119 C60      -4.1580   -1.7999   -0.8927   C.ar      1 RES1   0.0000
   120 C61      -4.6906   -2.2384    0.3025   C.ar      1 RES1   0.0000
   121 C62      -3.9122   -2.2244    1.4537   C.ar      1 RES1   0.0000
   122 C63      -2.6307   -1.6681    1.3989   C.ar      1 RES1   0.0000
   123 C64      -1.6276   -1.4753    2.5261   C.2       1 RES1   0.0000
   124 O4       -0.5152   -1.0143    2.1849   O.2       1 RES1   0.0000
   125 N6       -1.8666   -1.7796    3.8149   N.am      1 RES1   0.0000
   126 C65      -3.1972   -1.8520    4.4102   C.3       1 RES1   0.0000
   127 C66      -3.5739   -3.2730    4.8187   C.3       1 RES1   0.0000
   128 C67      -0.7749   -1.9730    4.7248   C.ar      1 RES1   0.0000
   129 C68      -0.9167   -1.7786    6.0975   C.ar      1 RES1   0.0000
   130 C69       0.1216   -2.0302    6.9726   C.ar      1 RES1   0.0000
   131 C70       1.3650   -2.4546    6.5185   C.ar      1 RES1   0.0000
   132 C71       2.5050   -2.7040    7.4562   C.3       1 RES1   0.0000
   133 C72       2.9946   -1.4944    8.2696   C.3       1 RES1   0.0000
   134 C73       3.7983   -0.4576    7.4847   C.3       1 RES1   0.0000
   135 C74       3.0458    0.2526    6.3589   C.3       1 RES1   0.0000
   136 C75       1.8193    1.0335    6.8287   C.3       1 RES1   0.0000
   137 C76       1.1024    1.6945    5.6554   C.3       1 RES1   0.0000
   138 C77       1.4870   -2.6881    5.1535   C.ar      1 RES1   0.0000
   139 C78       0.4490   -2.4627    4.2722   C.ar      1 RES1   0.0000
   140 N7       -2.1081   -1.3014    0.2151   N.ar      1 RES1   0.0000
   141 N8       -0.8070   -0.9443   -2.1266   N.ar      1 RES1   0.0000
   142 C79       2.9125   -1.6933   -5.9695   C.ar      1 RES1   0.0000
   143 C80       2.8495   -1.6515   -7.3479   C.ar      1 RES1   0.0000
   144 H51      -0.0900   -5.2288   -6.3906   H         1 RES1   0.0000
   145 H52      -1.5245   -4.2162   -6.5474   H         1 RES1   0.0000
   146 H53      -0.0314   -3.5423   -5.8709   H         1 RES1   0.0000
   147 H54      -0.3605   -4.5596   -8.7376   H         1 RES1   0.0000
   148 H55       1.0978   -3.8374   -8.0551   H         1 RES1   0.0000
   149 H56      -0.1283   -1.6904   -7.7132   H         1 RES1   0.0000
   150 H57      -1.5988   -2.4366   -8.3378   H         1 RES1   0.0000
   151 H58      -0.6419   -1.0930  -10.0838   H         1 RES1   0.0000
   152 H59      -0.5284   -2.7850  -10.5272   H         1 RES1   0.0000
   153 H60       1.4839   -1.7852  -11.2039   H         1 RES1   0.0000
   154 H61       1.8899   -2.7773   -9.8204   H         1 RES1   0.0000
   155 H62       1.4827    0.2514   -9.8130   H         1 RES1   0.0000
   156 H63       3.0376   -0.5719   -9.9088   H         1 RES1   0.0000
   157 H64       1.0615    1.1729   -7.7291   H         1 RES1   0.0000
   158 H65       1.2228    1.1445   -5.2799   H         1 RES1   0.0000
   159 H66       3.8283    0.0686   -2.5821   H         1 RES1   0.0000
   160 H67       4.4060   -0.7158   -4.0712   H         1 RES1   0.0000
   161 H68       3.2722   -2.1330   -1.5944   H         1 RES1   0.0000
   162 H69       4.9686   -2.0722   -2.0984   H         1 RES1   0.0000
   163 H70       3.7857   -2.9592   -3.0612   H         1 RES1   0.0000
   164 H71      -0.0049   -1.1209   -5.3828   H         1 RES1   0.0000
   165 H72      -2.4210   -1.5075   -5.5556   H         1 RES1   0.0000
   166 H73      -3.8165   -1.4608   -3.5331   H         1 RES1   0.0000
   167 H74      -4.7515   -1.7923   -1.7935   H         1 RES1   0.0000
   168 H75      -5.6994   -2.6220    0.3319   H         1 RES1   0.0000
   169 H76      -4.3309   -2.6546    2.3433   H         1 RES1   0.0000
   170 H77      -3.9237   -1.4006    3.7381   H         1 RES1   0.0000
   171 H78      -3.2039   -1.2144    5.2966   H         1 RES1   0.0000
   172 H79      -3.5616   -3.9629    3.9786   H         1 RES1   0.0000
   173 H80      -4.5664   -3.2696    5.2585   H         1 RES1   0.0000
   174 H81      -2.8808   -3.6582    5.5618   H         1 RES1   0.0000
   175 H82      -1.8376   -1.4400    6.5349   H         1 RES1   0.0000
   176 H83      -0.0575   -1.9063    8.0289   H         1 RES1   0.0000
   177 H84       3.3500   -3.1187    6.9053   H         1 RES1   0.0000
   178 H85       2.1812   -3.4611    8.1741   H         1 RES1   0.0000
   179 H86       3.6529   -1.8848    9.0463   H         1 RES1   0.0000
   180 H87       2.1591   -1.0148    8.7755   H         1 RES1   0.0000
   181 H88       4.6793   -0.9436    7.0592   H         1 RES1   0.0000
   182 H89       4.1583    0.2928    8.1911   H         1 RES1   0.0000
   183 H90       2.7366   -0.4786    5.6066   H         1 RES1   0.0000
   184 H91       3.7380    0.9493    5.8750   H         1 RES1   0.0000
   185 H92       2.1246    1.7961    7.5483   H         1 RES1   0.0000
   186 H93       1.1199    0.3628    7.3294   H         1 RES1   0.0000
   187 H94       1.7650    2.4014    5.1584   H         1 RES1   0.0000
   188 H95       0.2254    2.2322    6.0075   H         1 RES1   0.0000
   189 H96       0.7855    0.9428    4.9294   H         1 RES1   0.0000
   190 H97       2.4151   -3.0883    4.7782   H         1 RES1   0.0000
   191 H98       0.5840   -2.6792    3.2265   H         1 RES1   0.0000
   192 H99       3.4720   -2.4737   -5.4848   H         1 RES1   0.0000
   193 H100      3.3586   -2.4047   -7.9263   H         1 RES1   0.0000
   194 O5       -1.6767    1.4017    1.5149   O.3       1 RES1   0.0000
   195 H101     -1.3924    1.7852    2.3551   H         1 RES1   0.0000
   196 H102     -2.2396    2.0541    1.0753   H         1 RES1   0.0000
@<TRIPOS>BOND
     1     1    16    1
     2     1    28    1
     3     1    44    1
     4     1    45    1
     5     1   112    1
     6     1   124    1
     7     1   140    1
     8     1   141    1
     9     1   194    1
    10     2     3    1
    11     2    48    1
    12     2    49    1
    13     2    50    1
    14     3     4    1
    15     3    51    1
    16     3    52    1
    17     4     5    1
    18     4    53    1
    19     4    54    1
    20     5     6    1
    21     5    55    1
    22     5    56    1
    23     6     7    1
    24     6    57    1
    25     6    58    1
    26     7     8    1
    27     7    59    1
    28     7    60    1
    29     8     9    1
    30     8    47    2
    31     9    10    2
    32     9    61    1
    33    10    11    1
    34    10    62    1
    35    11    12    1
    36    11    46    2
    37    12    13    1
    38    12    15    1
    39    13    14    1
    40    13    63    1
    41    13    64    1
    42    14    65    1
    43    14    66    1
    44    14    67    1
    45    15    16    2
    46    15    17    1
    47    17    18    1
    48    17    45    2
    49    18    19    2
    50    18    68    1
    51    19    20    1
    52    19    69    1
    53    20    21    2
    54    20    70    1
    55    21    22    1
    56    21    45    1
    57    22    23    1
    58    22    44    2
    59    23    24    2
    60    23    71    1
    61    24    25    1
    62    24    72    1
    63    25    26    2
    64    25    73    1
    65    26    27    1
    66    26    44    1
    67    27    28    2
    68    27    29    1
    69    29    30    1
    70    29    32    1
    71    30    31    1
    72    30    74    1
    73    30    75    1
    74    31    76    1
    75    31    77    1
    76    31    78    1
    77    32    33    1
    78    32    43    2
    79    33    34    2
    80    33    79    1
    81    34    35    1
    82    34    80    1
    83    35    36    1
    84    35    42    2
    85    36    37    1
    86    36    81    1
    87    36    82    1
    88    37    38    1
    89    37    83    1
    90    37    84    1
    91    38    39    1
    92    38    85    1
    93    38    86    1
    94    39    40    1
    95    39    87    1
    96    39    88    1
    97    40    41    1
    98    40    89    1
    99    40    90    1
   100    41    91    1
   101    41    92    1
   102    41    93    1
   103    42    43    1
   104    42    94    1
   105    43    95    1
   106    46    47    1
   107    46    96    1
   108    47    97    1
   109    98    99    1
   110    98   144    1
   111    98   145    1
   112    98   146    1
   113    99   100    1
   114    99   147    1
   115    99   148    1
   116   100   101    1
   117   100   149    1
   118   100   150    1
   119   101   102    1
   120   101   151    1
   121   101   152    1
   122   102   103    1
   123   102   153    1
   124   102   154    1
   125   103   104    1
   126   103   155    1
   127   103   156    1
   128   104   105    1
   129   104   143    2
   130   105   106    2
   131   105   157    1
   132   106   107    1
   133   106   158    1
   134   107   108    1
   135   107   142    2
   136   108   109    1
   137   108   111    1
   138   109   110    1
   139   109   159    1
   140   109   160    1
   141   110   161    1
   142   110   162    1
   143   110   163    1
   144   111   112    2
   145   111   113    1
   146   113   114    1
   147   113   141    2
   148   114   115    2
   149   114   164    1
   150   115   116    1
   151   115   165    1
   152   116   117    2
   153   116   166    1
   154   117   118    1
   155   117   141    1
   156   118   119    1
   157   118   140    2
   158   119   120    2
   159   119   167    1
   160   120   121    1
   161   120   168    1
   162   121   122    2
   163   121   169    1
   164   122   123    1
   165   122   140    1
   166   123   124    2
   167   123   125    1
   168   125   126    1
   169   125   128    1
   170   126   127    1
   171   126   170    1
   172   126   171    1
   173   127   172    1
   174   127   173    1
   175   127   174    1
   176   128   129    1
   177   128   139    2
   178   129   130    2
   179   129   175    1
   180   130   131    1
   181   130   176    1
   182   131   132    1
   183   131   138    2
   184   132   133    1
   185   132   177    1
   186   132   178    1
   187   133   134    1
   188   133   179    1
   189   133   180    1
   190   134   135    1
   191   134   181    1
   192   134   182    1
   193   135   136    1
   194   135   183    1
   195   135   184    1
   196   136   137    1
   197   136   185    1
   198   136   186    1
   199   137   187    1
   200   137   188    1
   201   137   189    1
   202   138   139    1
   203   138   190    1
   204   139   191    1
   205   142   143    1
   206   142   192    1
   207   143   193    1
   208   194   195    1
   209   194   196    1
@<TRIPOS>SUBSTRUCTURE
     1 RES1      196 GROUP             0 ****  ****    0  
