@<TRIPOS>MOLECULE
am_c3_9H2O_c0_0_nunpairedes_0_charge_3 Charge: 3 Unpaired_Electrons: 0 XTB_Unpaired_Electrons: 0 XTB_Charge: 3
   440   443     1     0     0
SMALL
NoCharges
****
Generated from Architector

@<TRIPOS>ATOM
     1 La1       0.2890   -0.1289   -0.1586   La        1 RES1   0.0000
     2 C1       -6.8140    1.5515   -5.2432   C.3       1 RES1   0.0000
     3 C2       -6.9117    0.2959   -6.1124   C.3       1 RES1   0.0000
     4 C3       -6.6413   -1.0093   -5.3381   C.3       1 RES1   0.0000
     5 C4       -5.2980   -1.6687   -5.6761   C.3       1 RES1   0.0000
     6 C5       -5.0605   -2.9528   -4.8581   C.3       1 RES1   0.0000
     7 C6       -3.6836   -3.0346   -4.1729   C.3       1 RES1   0.0000
     8 C7       -3.7919   -3.7829   -2.8432   C.3       1 RES1   0.0000
     9 C8       -2.5842   -3.5719   -1.9185   C.3       1 RES1   0.0000
    10 N1       -2.8684   -3.9100   -0.5220   N.am      1 RES1   0.0000
    11 C9       -3.3396   -5.2836   -0.3441   C.3       1 RES1   0.0000
    12 C10      -2.1744   -6.2483   -0.0462   C.3       1 RES1   0.0000
    13 C11      -2.1185   -7.4870   -0.9461   C.3       1 RES1   0.0000
    14 C12      -3.2067   -8.5195   -0.6467   C.3       1 RES1   0.0000
    15 C13      -2.9029   -9.8870   -1.2686   C.3       1 RES1   0.0000
    16 C14      -3.0315   -9.9143   -2.7912   C.3       1 RES1   0.0000
    17 C15      -2.7706  -11.3054   -3.3768   C.3       1 RES1   0.0000
    18 C16      -1.2976  -11.6998   -3.3634   C.3       1 RES1   0.0000
    19 C17      -2.4598   -3.0948    0.4671   C.2       1 RES1   0.0000
    20 O1       -1.8077   -2.0580    0.2531   O.2       1 RES1   0.0000
    21 C18      -2.9387   -3.5184    1.8650   C.3       1 RES1   0.0000
    22 C19      -2.2544   -2.8328    3.0477   C.2       1 RES1   0.0000
    23 O2       -1.5659   -1.8346    2.8572   O.2       1 RES1   0.0000
    24 N2       -2.3869   -3.3900    4.2719   N.am      1 RES1   0.0000
    25 C20      -3.3946   -4.3687    4.6467   C.3       1 RES1   0.0000
    26 C21      -4.6727   -3.7967    5.2903   C.3       1 RES1   0.0000
    27 C22      -4.5983   -3.2395    6.7307   C.3       1 RES1   0.0000
    28 C23      -4.7260   -1.7089    6.8059   C.3       1 RES1   0.0000
    29 C24      -4.5488   -1.1347    8.2176   C.3       1 RES1   0.0000
    30 C25      -3.0975   -1.1407    8.7278   C.3       1 RES1   0.0000
    31 C26      -2.8435   -2.1746    9.8280   C.3       1 RES1   0.0000
    32 C27      -3.4482   -1.7446   11.1606   C.3       1 RES1   0.0000
    33 C28      -1.6011   -2.8933    5.4053   C.3       1 RES1   0.0000
    34 C29      -0.7205   -3.9770    6.0633   C.3       1 RES1   0.0000
    35 C30      -0.0583   -3.5530    7.3827   C.3       1 RES1   0.0000
    36 C31       1.2979   -2.8622    7.2205   C.3       1 RES1   0.0000
    37 C32       2.4334   -3.8322    6.8794   C.3       1 RES1   0.0000
    38 C33       3.6673   -3.1202    6.3146   C.3       1 RES1   0.0000
    39 C34       4.6190   -2.5674    7.3730   C.3       1 RES1   0.0000
    40 C35       5.8218   -1.8871    6.7278   C.3       1 RES1   0.0000
    41 H1       -6.9156    2.4499   -5.8531   H         1 RES1   0.0000
    42 H2       -5.8585    1.6001   -4.7191   H         1 RES1   0.0000
    43 H3       -7.6081    1.5629   -4.5007   H         1 RES1   0.0000
    44 H4       -6.2283    0.3769   -6.9642   H         1 RES1   0.0000
    45 H5       -7.9212    0.2673   -6.5218   H         1 RES1   0.0000
    46 H6       -7.4330   -1.7272   -5.5458   H         1 RES1   0.0000
    47 H7       -6.6828   -0.8044   -4.2690   H         1 RES1   0.0000
    48 H8       -4.4872   -0.9606   -5.4886   H         1 RES1   0.0000
    49 H9       -5.2825   -1.9052   -6.7375   H         1 RES1   0.0000
    50 H10      -5.1854   -3.8315   -5.4990   H         1 RES1   0.0000
    51 H11      -5.8344   -3.0093   -4.0862   H         1 RES1   0.0000
    52 H12      -3.2785   -2.0377   -3.9962   H         1 RES1   0.0000
    53 H13      -2.9879   -3.5576   -4.8253   H         1 RES1   0.0000
    54 H14      -3.9479   -4.8359   -3.0752   H         1 RES1   0.0000
    55 H15      -4.6862   -3.4299   -2.3280   H         1 RES1   0.0000
    56 H16      -2.2930   -2.5263   -1.9330   H         1 RES1   0.0000
    57 H17      -1.7400   -4.1638   -2.2636   H         1 RES1   0.0000
    58 H18      -3.8041   -5.5794   -1.2807   H         1 RES1   0.0000
    59 H19      -4.1206   -5.3242    0.4157   H         1 RES1   0.0000
    60 H20      -2.2213   -6.5838    0.9901   H         1 RES1   0.0000
    61 H21      -1.2386   -5.6993   -0.1835   H         1 RES1   0.0000
    62 H22      -1.1504   -7.9654   -0.7808   H         1 RES1   0.0000
    63 H23      -2.1617   -7.1879   -1.9939   H         1 RES1   0.0000
    64 H24      -4.1740   -8.1670   -1.0094   H         1 RES1   0.0000
    65 H25      -3.2789   -8.6509    0.4355   H         1 RES1   0.0000
    66 H26      -3.5986  -10.6209   -0.8558   H         1 RES1   0.0000
    67 H27      -1.8947  -10.1869   -0.9746   H         1 RES1   0.0000
    68 H28      -2.3295   -9.2079   -3.2415   H         1 RES1   0.0000
    69 H29      -4.0439   -9.5980   -3.0600   H         1 RES1   0.0000
    70 H30      -3.1247  -11.3204   -4.4089   H         1 RES1   0.0000
    71 H31      -3.3525  -12.0448   -2.8232   H         1 RES1   0.0000
    72 H32      -0.7052  -11.0005   -3.9501   H         1 RES1   0.0000
    73 H33      -1.1750  -12.6891   -3.7947   H         1 RES1   0.0000
    74 H34      -0.9015  -11.7231   -2.3518   H         1 RES1   0.0000
    75 H35      -2.8224   -4.5950    1.9560   H         1 RES1   0.0000
    76 H36      -4.0052   -3.2809    1.9133   H         1 RES1   0.0000
    77 H37      -2.9477   -5.0790    5.3417   H         1 RES1   0.0000
    78 H38      -3.6898   -4.9354    3.7671   H         1 RES1   0.0000
    79 H39      -5.3722   -4.6350    5.2884   H         1 RES1   0.0000
    80 H40      -5.0781   -3.0290    4.6306   H         1 RES1   0.0000
    81 H41      -3.6930   -3.5820    7.2388   H         1 RES1   0.0000
    82 H42      -5.4354   -3.6549    7.2965   H         1 RES1   0.0000
    83 H43      -5.7274   -1.4374    6.4598   H         1 RES1   0.0000
    84 H44      -4.0096   -1.2204    6.1372   H         1 RES1   0.0000
    85 H45      -5.1820   -1.6864    8.9118   H         1 RES1   0.0000
    86 H46      -4.9132   -0.1056    8.2053   H         1 RES1   0.0000
    87 H47      -2.8358   -0.1572    9.1277   H         1 RES1   0.0000
    88 H48      -2.4192   -1.3231    7.8889   H         1 RES1   0.0000
    89 H49      -1.7670   -2.3060    9.9610   H         1 RES1   0.0000
    90 H50      -3.2600   -3.1404    9.5356   H         1 RES1   0.0000
    91 H51      -3.0468   -0.7805   11.4686   H         1 RES1   0.0000
    92 H52      -3.2231   -2.4714   11.9391   H         1 RES1   0.0000
    93 H53      -4.5285   -1.6514   11.0899   H         1 RES1   0.0000
    94 H54      -2.2866   -2.5039    6.1548   H         1 RES1   0.0000
    95 H55      -1.0060   -2.0600    5.0419   H         1 RES1   0.0000
    96 H56       0.0529   -4.3092    5.3720   H         1 RES1   0.0000
    97 H57      -1.3352   -4.8457    6.2972   H         1 RES1   0.0000
    98 H58       0.0996   -4.4422    7.9909   H         1 RES1   0.0000
    99 H59      -0.7407   -2.9142    7.9426   H         1 RES1   0.0000
   100 H60       1.5348   -2.3373    8.1469   H         1 RES1   0.0000
   101 H61       1.2213   -2.1157    6.4323   H         1 RES1   0.0000
   102 H62       2.0738   -4.5636    6.1506   H         1 RES1   0.0000
   103 H63       2.7158   -4.3946    7.7685   H         1 RES1   0.0000
   104 H64       3.3495   -2.2881    5.6775   H         1 RES1   0.0000
   105 H65       4.2280   -3.8225    5.6934   H         1 RES1   0.0000
   106 H66       4.9627   -3.3852    8.0061   H         1 RES1   0.0000
   107 H67       4.0986   -1.8523    8.0100   H         1 RES1   0.0000
   108 H68       6.3067   -2.5581    6.0212   H         1 RES1   0.0000
   109 H69       6.5528   -1.5970    7.4756   H         1 RES1   0.0000
   110 H70       5.5234   -0.9882    6.1923   H         1 RES1   0.0000
   111 C36      -7.2154   -4.7074   -1.5844   C.3       1 RES1   0.0000
   112 C37      -8.2453   -3.7558   -0.9945   C.3       1 RES1   0.0000
   113 C38      -8.0089   -2.3008   -1.4032   C.3       1 RES1   0.0000
   114 C39      -6.7595   -1.6930   -0.7692   C.3       1 RES1   0.0000
   115 C40      -6.6130   -0.1972   -1.0611   C.3       1 RES1   0.0000
   116 C41      -5.1535    0.2591   -0.9719   C.3       1 RES1   0.0000
   117 C42      -4.3662   -0.1337   -2.2286   C.3       1 RES1   0.0000
   118 C43      -2.9611    0.4732   -2.1729   C.3       1 RES1   0.0000
   119 N3       -2.0758    0.2413   -3.3254   N.am      1 RES1   0.0000
   120 C44      -2.4633    0.9586   -4.5376   C.3       1 RES1   0.0000
   121 C45      -2.0769    2.4407   -4.5190   C.3       1 RES1   0.0000
   122 C46      -2.8403    3.2899   -5.5415   C.3       1 RES1   0.0000
   123 C47      -2.3471    3.1085   -6.9853   C.3       1 RES1   0.0000
   124 C48      -2.1747    4.4444   -7.7119   C.3       1 RES1   0.0000
   125 C49      -3.4862    5.2013   -7.9131   C.3       1 RES1   0.0000
   126 C50      -3.2895    6.5741   -8.5619   C.3       1 RES1   0.0000
   127 C51      -2.5274    7.5578   -7.6798   C.3       1 RES1   0.0000
   128 C52      -0.9181   -0.3907   -3.1211   C.2       1 RES1   0.0000
   129 O3       -0.7147   -1.0233   -2.0609   O.2       1 RES1   0.0000
   130 C53       0.2231   -0.3748   -4.1322   C.3       1 RES1   0.0000
   131 C54       1.5503   -0.1889   -3.3694   C.2       1 RES1   0.0000
   132 O4        1.5637    0.1229   -2.1615   O.2       1 RES1   0.0000
   133 N4        2.7005   -0.3216   -4.0223   N.am      1 RES1   0.0000
   134 C55       2.8616   -0.5683   -5.4444   C.3       1 RES1   0.0000
   135 C56       3.0116   -2.0651   -5.7878   C.3       1 RES1   0.0000
   136 C57       4.4577   -2.5274   -6.0511   C.3       1 RES1   0.0000
   137 C58       5.1084   -3.3469   -4.9202   C.3       1 RES1   0.0000
   138 C59       5.3470   -4.7952   -5.3575   C.3       1 RES1   0.0000
   139 C60       5.8151   -5.7294   -4.2392   C.3       1 RES1   0.0000
   140 C61       7.2080   -5.4174   -3.6865   C.3       1 RES1   0.0000
   141 C62       8.3350   -5.7419   -4.6591   C.3       1 RES1   0.0000
   142 C63       3.9273   -0.0980   -3.2537   C.3       1 RES1   0.0000
   143 C64       4.2583    1.3972   -3.2240   C.3       1 RES1   0.0000
   144 C65       5.6648    1.7254   -2.7208   C.3       1 RES1   0.0000
   145 C66       5.9100    1.4939   -1.2283   C.3       1 RES1   0.0000
   146 C67       4.9605    2.2791   -0.3246   C.3       1 RES1   0.0000
   147 C68       5.4392    2.3763    1.1276   C.3       1 RES1   0.0000
   148 C69       6.6295    3.3199    1.3198   C.3       1 RES1   0.0000
   149 C70       6.7891    3.7730    2.7642   C.3       1 RES1   0.0000
   150 H71      -7.4614   -5.7341   -1.3418   H         1 RES1   0.0000
   151 H72      -6.2284   -4.4986   -1.1889   H         1 RES1   0.0000
   152 H73      -7.1951   -4.6158   -2.6647   H         1 RES1   0.0000
   153 H74      -8.2378   -3.8277    0.0918   H         1 RES1   0.0000
   154 H75      -9.2365   -4.0530   -1.3318   H         1 RES1   0.0000
   155 H76      -8.8735   -1.7015   -1.1067   H         1 RES1   0.0000
   156 H77      -7.9325   -2.2459   -2.4906   H         1 RES1   0.0000
   157 H78      -5.8736   -2.2146   -1.1382   H         1 RES1   0.0000
   158 H79      -6.8032   -1.8481    0.3076   H         1 RES1   0.0000
   159 H80      -7.2173    0.3625   -0.3456   H         1 RES1   0.0000
   160 H81      -7.0069    0.0254   -2.0550   H         1 RES1   0.0000
   161 H82      -4.6986   -0.2051   -0.0950   H         1 RES1   0.0000
   162 H83      -5.1145    1.3418   -0.8428   H         1 RES1   0.0000
   163 H84      -4.9207    0.2333   -3.0946   H         1 RES1   0.0000
   164 H85      -4.3085   -1.2179   -2.2916   H         1 RES1   0.0000
   165 H86      -2.4552    0.0973   -1.2707   H         1 RES1   0.0000
   166 H87      -3.0661    1.5564   -2.0787   H         1 RES1   0.0000
   167 H88      -3.5501    0.8965   -4.5951   H         1 RES1   0.0000
   168 H89      -2.0604    0.4584   -5.4167   H         1 RES1   0.0000
   169 H90      -2.2801    2.8389   -3.5227   H         1 RES1   0.0000
   170 H91      -1.0113    2.5526   -4.7135   H         1 RES1   0.0000
   171 H92      -2.7026    4.3356   -5.2573   H         1 RES1   0.0000
   172 H93      -3.9080    3.0753   -5.4792   H         1 RES1   0.0000
   173 H94      -3.0246    2.4687   -7.5528   H         1 RES1   0.0000
   174 H95      -1.3708    2.6204   -6.9683   H         1 RES1   0.0000
   175 H96      -1.7280    4.2582   -8.6890   H         1 RES1   0.0000
   176 H97      -1.4762    5.0600   -7.1400   H         1 RES1   0.0000
   177 H98      -3.9869    5.3368   -6.9525   H         1 RES1   0.0000
   178 H99      -4.1475    4.6041   -8.5457   H         1 RES1   0.0000
   179 H100     -4.2718    6.9987   -8.7772   H         1 RES1   0.0000
   180 H101     -2.7630    6.4588   -9.5104   H         1 RES1   0.0000
   181 H102     -3.0152    7.6610   -6.7115   H         1 RES1   0.0000
   182 H103     -2.5039    8.5375   -8.1495   H         1 RES1   0.0000
   183 H104     -1.5000    7.2359   -7.5215   H         1 RES1   0.0000
   184 H105      0.1193    0.4263   -4.8614   H         1 RES1   0.0000
   185 H106      0.2271   -1.3318   -4.6578   H         1 RES1   0.0000
   186 H107      3.7599   -0.0407   -5.7719   H         1 RES1   0.0000
   187 H108      2.0243   -0.1328   -5.9910   H         1 RES1   0.0000
   188 H109      2.4153   -2.2511   -6.6817   H         1 RES1   0.0000
   189 H110      2.5800   -2.6517   -4.9747   H         1 RES1   0.0000
   190 H111      5.0745   -1.6586   -6.2814   H         1 RES1   0.0000
   191 H112      4.4537   -3.1436   -6.9483   H         1 RES1   0.0000
   192 H113      4.4730   -3.3437   -4.0314   H         1 RES1   0.0000
   193 H114      6.0578   -2.8959   -4.6361   H         1 RES1   0.0000
   194 H115      6.0757   -4.8083   -6.1666   H         1 RES1   0.0000
   195 H116      4.4107   -5.1911   -5.7552   H         1 RES1   0.0000
   196 H117      5.8117   -6.7548   -4.6160   H         1 RES1   0.0000
   197 H118      5.0844   -5.6867   -3.4247   H         1 RES1   0.0000
   198 H119      7.3635   -6.0020   -2.7752   H         1 RES1   0.0000
   199 H120      7.2590   -4.3637   -3.4103   H         1 RES1   0.0000
   200 H121      8.3148   -6.7937   -4.9289   H         1 RES1   0.0000
   201 H122      9.2962   -5.5305   -4.1985   H         1 RES1   0.0000
   202 H123      8.2619   -5.1518   -5.5682   H         1 RES1   0.0000
   203 H124      4.7273   -0.6777   -3.7159   H         1 RES1   0.0000
   204 H125      3.7481   -0.4606   -2.2395   H         1 RES1   0.0000
   205 H126      3.5054    1.8866   -2.6038   H         1 RES1   0.0000
   206 H127      4.1735    1.7803   -4.2452   H         1 RES1   0.0000
   207 H128      5.8517    2.7797   -2.9345   H         1 RES1   0.0000
   208 H129      6.3886    1.1440   -3.3007   H         1 RES1   0.0000
   209 H130      6.9325    1.8094   -1.0262   H         1 RES1   0.0000
   210 H131      5.8410    0.4298   -0.9996   H         1 RES1   0.0000
   211 H132      3.9717    1.8137   -0.3418   H         1 RES1   0.0000
   212 H133      4.8578    3.2933   -0.7175   H         1 RES1   0.0000
   213 H134      5.6988    1.3822    1.5002   H         1 RES1   0.0000
   214 H135      4.6070    2.7342    1.7396   H         1 RES1   0.0000
   215 H136      6.4904    4.2001    0.6909   H         1 RES1   0.0000
   216 H137      7.5499    2.8300    1.0030   H         1 RES1   0.0000
   217 H138      5.8997    4.2953    3.1032   H         1 RES1   0.0000
   218 H139      7.6314    4.4511    2.8523   H         1 RES1   0.0000
   219 H140      6.9636    2.9316    3.4271   H         1 RES1   0.0000
   220 C71      -0.0855    5.9571    8.1098   C.3       1 RES1   0.0000
   221 C72      -0.5437    4.8267    9.0225   C.3       1 RES1   0.0000
   222 C73      -0.0179    3.4446    8.6204   C.3       1 RES1   0.0000
   223 C74      -0.7682    2.8197    7.4400   C.3       1 RES1   0.0000
   224 C75      -0.1033    1.5197    6.9516   C.3       1 RES1   0.0000
   225 C76      -0.0570    1.4061    5.4259   C.3       1 RES1   0.0000
   226 C77       0.8518    0.2653    4.9669   C.3       1 RES1   0.0000
   227 C78       0.5977   -0.1096    3.5129   C.3       1 RES1   0.0000
   228 N5        1.5784   -1.0679    3.0001   N.am      1 RES1   0.0000
   229 C79       1.4905   -2.4766    3.3743   C.3       1 RES1   0.0000
   230 C80       1.0232   -3.3347    2.1853   C.3       1 RES1   0.0000
   231 C81       0.3947   -4.6733    2.5706   C.3       1 RES1   0.0000
   232 C82       1.4111   -5.7224    3.0220   C.3       1 RES1   0.0000
   233 C83       0.7771   -7.1100    3.1799   C.3       1 RES1   0.0000
   234 C84      -0.1515   -7.2207    4.3867   C.3       1 RES1   0.0000
   235 C85      -0.8576   -8.5722    4.4552   C.3       1 RES1   0.0000
   236 C86      -2.0124   -8.6936    3.4679   C.3       1 RES1   0.0000
   237 C87       2.3256   -0.6722    1.9733   C.2       1 RES1   0.0000
   238 O5        2.0648    0.3687    1.3268   O.2       1 RES1   0.0000
   239 C88       3.5009   -1.5061    1.5268   C.3       1 RES1   0.0000
   240 C89       3.0920   -2.2726    0.2736   C.2       1 RES1   0.0000
   241 O6        2.1162   -1.8768   -0.3977   O.2       1 RES1   0.0000
   242 N6        3.8062   -3.3354   -0.0804   N.am      1 RES1   0.0000
   243 C90       4.6498   -4.0723    0.8598   C.3       1 RES1   0.0000
   244 C91       6.0447   -3.5180    1.1779   C.3       1 RES1   0.0000
   245 C92       7.0945   -3.6413    0.0696   C.3       1 RES1   0.0000
   246 C93       7.0595   -2.5235   -0.9755   C.3       1 RES1   0.0000
   247 C94       8.4412   -2.3142   -1.6017   C.3       1 RES1   0.0000
   248 C95       8.4436   -1.1763   -2.6366   C.3       1 RES1   0.0000
   249 C96       8.9412   -1.6065   -4.0174   C.3       1 RES1   0.0000
   250 C97      10.4365   -1.8882   -4.0491   C.3       1 RES1   0.0000
   251 C98       3.4242   -4.0307   -1.3077   C.3       1 RES1   0.0000
   252 C99       2.2660   -5.0100   -1.0740   C.3       1 RES1   0.0000
   253 C100      2.1096   -6.0289   -2.2077   C.3       1 RES1   0.0000
   254 C101      1.7723   -5.4512   -3.5846   C.3       1 RES1   0.0000
   255 C102      0.4101   -4.7625   -3.6299   C.3       1 RES1   0.0000
   256 C103     -0.0193   -4.3603   -5.0443   C.3       1 RES1   0.0000
   257 C104     -0.4250   -5.5350   -5.9348   C.3       1 RES1   0.0000
   258 C105     -0.8779   -5.0536   -7.3056   C.3       1 RES1   0.0000
   259 H141     -0.4998    6.8982    8.4568   H         1 RES1   0.0000
   260 H142     -0.4076    5.8063    7.0844   H         1 RES1   0.0000
   261 H143      0.9950    6.0443    8.1284   H         1 RES1   0.0000
   262 H144     -1.6336    4.8016    9.0532   H         1 RES1   0.0000
   263 H145     -0.1909    5.0547   10.0269   H         1 RES1   0.0000
   264 H146     -0.1012    2.7748    9.4783   H         1 RES1   0.0000
   265 H147      1.0412    3.5240    8.3688   H         1 RES1   0.0000
   266 H148     -0.8095    3.5424    6.6201   H         1 RES1   0.0000
   267 H149     -1.7995    2.6189    7.7338   H         1 RES1   0.0000
   268 H150     -0.6336    0.6570    7.3474   H         1 RES1   0.0000
   269 H151      0.9074    1.4687    7.3453   H         1 RES1   0.0000
   270 H152      0.3193    2.3377    4.9969   H         1 RES1   0.0000
   271 H153     -1.0657    1.2397    5.0443   H         1 RES1   0.0000
   272 H154      0.6801   -0.5827    5.6192   H         1 RES1   0.0000
   273 H155      1.8871    0.5624    5.0663   H         1 RES1   0.0000
   274 H156      0.6836    0.8002    2.9152   H         1 RES1   0.0000
   275 H157     -0.4069   -0.5188    3.4067   H         1 RES1   0.0000
   276 H158      0.7523   -2.5471    4.1677   H         1 RES1   0.0000
   277 H159      2.4429   -2.8335    3.7689   H         1 RES1   0.0000
   278 H160      1.8590   -3.5569    1.5207   H         1 RES1   0.0000
   279 H161      0.2883   -2.7423    1.6127   H         1 RES1   0.0000
   280 H162     -0.1246   -5.0620    1.6930   H         1 RES1   0.0000
   281 H163     -0.3445   -4.5153    3.3492   H         1 RES1   0.0000
   282 H164      1.8760   -5.4264    3.9656   H         1 RES1   0.0000
   283 H165      2.2059   -5.7886    2.2731   H         1 RES1   0.0000
   284 H166      1.5687   -7.8536    3.2918   H         1 RES1   0.0000
   285 H167      0.2213   -7.3478    2.2693   H         1 RES1   0.0000
   286 H168     -0.9047   -6.4328    4.3534   H         1 RES1   0.0000
   287 H169      0.4350   -7.0785    5.2947   H         1 RES1   0.0000
   288 H170     -1.2464   -8.7218    5.4624   H         1 RES1   0.0000
   289 H171     -0.1375   -9.3652    4.2598   H         1 RES1   0.0000
   290 H172     -2.7382   -7.8940    3.6224   H         1 RES1   0.0000
   291 H173     -2.5283   -9.6391    3.6137   H         1 RES1   0.0000
   292 H174     -1.6648   -8.6583    2.4367   H         1 RES1   0.0000
   293 H175      3.8878   -2.1435    2.3187   H         1 RES1   0.0000
   294 H176      4.2758   -0.7904    1.2297   H         1 RES1   0.0000
   295 H177      4.7667   -5.0790    0.4552   H         1 RES1   0.0000
   296 H178      4.1039   -4.1676    1.8070   H         1 RES1   0.0000
   297 H179      6.3935   -4.1110    2.0275   H         1 RES1   0.0000
   298 H180      5.9906   -2.4780    1.5016   H         1 RES1   0.0000
   299 H181      7.0109   -4.6171   -0.4146   H         1 RES1   0.0000
   300 H182      8.0714   -3.6049    0.5572   H         1 RES1   0.0000
   301 H183      6.7558   -1.5888   -0.4981   H         1 RES1   0.0000
   302 H184      6.3289   -2.7468   -1.7570   H         1 RES1   0.0000
   303 H185      8.7676   -3.2440   -2.0678   H         1 RES1   0.0000
   304 H186      9.1495   -2.0945   -0.8021   H         1 RES1   0.0000
   305 H187      9.0599   -0.3498   -2.2814   H         1 RES1   0.0000
   306 H188      7.4231   -0.7957   -2.7318   H         1 RES1   0.0000
   307 H189      8.7184   -0.8122   -4.7326   H         1 RES1   0.0000
   308 H190      8.4008   -2.4995   -4.3366   H         1 RES1   0.0000
   309 H191     10.9990   -0.9960   -3.7866   H         1 RES1   0.0000
   310 H192     10.7400   -2.1997   -5.0450   H         1 RES1   0.0000
   311 H193     10.7030   -2.6767   -3.3513   H         1 RES1   0.0000
   312 H194      4.3040   -4.5628   -1.6703   H         1 RES1   0.0000
   313 H195      3.1347   -3.2693   -2.0347   H         1 RES1   0.0000
   314 H196      1.3415   -4.4456   -0.9363   H         1 RES1   0.0000
   315 H197      2.4551   -5.5656   -0.1502   H         1 RES1   0.0000
   316 H198      1.3211   -6.7317   -1.9285   H         1 RES1   0.0000
   317 H199      3.0361   -6.5998   -2.2909   H         1 RES1   0.0000
   318 H200      1.7707   -6.2793   -4.2934   H         1 RES1   0.0000
   319 H201      2.5489   -4.7559   -3.9044   H         1 RES1   0.0000
   320 H202      0.4464   -3.8640   -3.0030   H         1 RES1   0.0000
   321 H203     -0.3390   -5.4466   -3.2188   H         1 RES1   0.0000
   322 H204      0.7959   -3.8207   -5.5301   H         1 RES1   0.0000
   323 H205     -0.8675   -3.6727   -4.9676   H         1 RES1   0.0000
   324 H206     -1.2321   -6.0950   -5.4581   H         1 RES1   0.0000
   325 H207      0.4216   -6.2108   -6.0559   H         1 RES1   0.0000
   326 H208     -1.7477   -4.4073   -7.2220   H         1 RES1   0.0000
   327 H209     -1.1393   -5.8969   -7.9342   H         1 RES1   0.0000
   328 H210     -0.0828   -4.4999   -7.7965   H         1 RES1   0.0000
   329 C106      5.3560    6.6909   -2.6829   C.3       1 RES1   0.0000
   330 C107      5.4138    7.1328   -4.1409   C.3       1 RES1   0.0000
   331 C108      4.1350    6.8150   -4.9181   C.3       1 RES1   0.0000
   332 C109      3.9633    5.3260   -5.2169   C.3       1 RES1   0.0000
   333 C110      2.5815    4.9999   -5.8096   C.3       1 RES1   0.0000
   334 C111      1.8083    3.9010   -5.0721   C.3       1 RES1   0.0000
   335 C112      1.0403    4.3395   -3.8196   C.3       1 RES1   0.0000
   336 C113      1.9261    4.7764   -2.6524   C.3       1 RES1   0.0000
   337 N7        1.2394    4.8126   -1.3641   N.am      1 RES1   0.0000
   338 C114      0.2965    5.8999   -1.1324   C.3       1 RES1   0.0000
   339 C115     -1.0873    5.3704   -0.7008   C.3       1 RES1   0.0000
   340 C116     -2.2582    5.8070   -1.5876   C.3       1 RES1   0.0000
   341 C117     -2.7748    7.2086   -1.2336   C.3       1 RES1   0.0000
   342 C118     -4.2958    7.3134   -1.3577   C.3       1 RES1   0.0000
   343 C119     -4.7979    7.2167   -2.7965   C.3       1 RES1   0.0000
   344 C120     -6.3039    7.4639   -2.9073   C.3       1 RES1   0.0000
   345 C121     -7.1510    6.3000   -2.4072   C.3       1 RES1   0.0000
   346 C122      1.4256    3.7977   -0.4993   C.2       1 RES1   0.0000
   347 O7        1.8121    2.6820   -0.8717   O.2       1 RES1   0.0000
   348 C123      1.1693    4.0562    0.9681   C.3       1 RES1   0.0000
   349 C124      0.0391    3.2218    1.5356   C.2       1 RES1   0.0000
   350 O8       -0.2768    2.1122    1.0414   O.2       1 RES1   0.0000
   351 N8       -0.6204    3.7114    2.5839   N.am      1 RES1   0.0000
   352 C125     -0.5266    5.0719    3.1319   C.3       1 RES1   0.0000
   353 C126      0.7846    5.7149    3.6401   C.3       1 RES1   0.0000
   354 C127      1.5687    5.0239    4.7651   C.3       1 RES1   0.0000
   355 C128      2.7003    4.1012    4.3027   C.3       1 RES1   0.0000
   356 C129      3.7608    3.9163    5.4020   C.3       1 RES1   0.0000
   357 C130      4.4199    2.5297    5.3804   C.3       1 RES1   0.0000
   358 C131      3.7627    1.5792    6.3853   C.3       1 RES1   0.0000
   359 C132      4.2822    1.7186    7.8092   C.3       1 RES1   0.0000
   360 C133     -1.8304    2.9809    2.9627   C.3       1 RES1   0.0000
   361 C134     -2.9713    3.2636    1.9827   C.3       1 RES1   0.0000
   362 C135     -4.3022    2.7535    2.5276   C.3       1 RES1   0.0000
   363 C136     -4.3196    1.2401    2.7327   C.3       1 RES1   0.0000
   364 C137     -5.7513    0.7481    2.9326   C.3       1 RES1   0.0000
   365 C138     -5.8752   -0.7709    2.9966   C.3       1 RES1   0.0000
   366 C139     -7.3462   -1.1776    3.0962   C.3       1 RES1   0.0000
   367 C140     -7.6039   -2.6794    3.0590   C.3       1 RES1   0.0000
   368 H211      6.2590    6.9940   -2.1626   H         1 RES1   0.0000
   369 H212      5.2653    5.6110   -2.5962   H         1 RES1   0.0000
   370 H213      4.5075    7.1532   -2.1830   H         1 RES1   0.0000
   371 H214      6.2630    6.6577   -4.6342   H         1 RES1   0.0000
   372 H215      5.5809    8.2113   -4.1684   H         1 RES1   0.0000
   373 H216      4.1506    7.3554   -5.8667   H         1 RES1   0.0000
   374 H217      3.2783    7.1832   -4.3477   H         1 RES1   0.0000
   375 H218      4.1264    4.7407   -4.3121   H         1 RES1   0.0000
   376 H219      4.7417    5.0364   -5.9223   H         1 RES1   0.0000
   377 H220      2.7148    4.6724   -6.8428   H         1 RES1   0.0000
   378 H221      1.9720    5.9046   -5.8447   H         1 RES1   0.0000
   379 H222      2.4958    3.0941   -4.8113   H         1 RES1   0.0000
   380 H223      1.0710    3.4908   -5.7678   H         1 RES1   0.0000
   381 H224      0.4446    3.4857   -3.4896   H         1 RES1   0.0000
   382 H225      0.3573    5.1468   -4.0913   H         1 RES1   0.0000
   383 H226      2.3264    5.7759   -2.8337   H         1 RES1   0.0000
   384 H227      2.7623    4.0823   -2.5448   H         1 RES1   0.0000
   385 H228      0.1893    6.4420   -2.0730   H         1 RES1   0.0000
   386 H229      0.6833    6.6100   -0.3952   H         1 RES1   0.0000
   387 H230     -1.3024    5.6839    0.3222   H         1 RES1   0.0000
   388 H231     -1.0427    4.2799   -0.6846   H         1 RES1   0.0000
   389 H232     -3.0788    5.0969   -1.4442   H         1 RES1   0.0000
   390 H233     -1.9613    5.7551   -2.6368   H         1 RES1   0.0000
   391 H234     -2.3059    7.9607   -1.8702   H         1 RES1   0.0000
   392 H235     -2.5066    7.4385   -0.1992   H         1 RES1   0.0000
   393 H236     -4.6171    8.2702   -0.9459   H         1 RES1   0.0000
   394 H237     -4.7552    6.5312   -0.7489   H         1 RES1   0.0000
   395 H238     -4.5614    6.2337   -3.2132   H         1 RES1   0.0000
   396 H239     -4.2744    7.9652   -3.3938   H         1 RES1   0.0000
   397 H240     -6.5574    7.6488   -3.9512   H         1 RES1   0.0000
   398 H241     -6.5640    8.3617   -2.3461   H         1 RES1   0.0000
   399 H242     -6.9254    5.3929   -2.9670   H         1 RES1   0.0000
   400 H243     -8.2065    6.5263   -2.5365   H         1 RES1   0.0000
   401 H244     -6.9790    6.1075   -1.3502   H         1 RES1   0.0000
   402 H245      1.0089    5.1092    1.1578   H         1 RES1   0.0000
   403 H246      2.0803    3.7337    1.4816   H         1 RES1   0.0000
   404 H247     -1.2062    5.0774    3.9855   H         1 RES1   0.0000
   405 H248     -0.9526    5.7628    2.3941   H         1 RES1   0.0000
   406 H249      0.4283    6.6702    4.0356   H         1 RES1   0.0000
   407 H250      1.4796    5.9601    2.8378   H         1 RES1   0.0000
   408 H251      0.8918    4.4767    5.4192   H         1 RES1   0.0000
   409 H252      2.0232    5.8130    5.3634   H         1 RES1   0.0000
   410 H253      3.1909    4.5417    3.4287   H         1 RES1   0.0000
   411 H254      2.3013    3.1295    4.0004   H         1 RES1   0.0000
   412 H255      3.2929    4.0591    6.3744   H         1 RES1   0.0000
   413 H256      4.5153    4.6936    5.2975   H         1 RES1   0.0000
   414 H257      5.4822    2.6067    5.6044   H         1 RES1   0.0000
   415 H258      4.3366    2.1118    4.3720   H         1 RES1   0.0000
   416 H259      3.9144    0.5449    6.0668   H         1 RES1   0.0000
   417 H260      2.6945    1.7861    6.3931   H         1 RES1   0.0000
   418 H261      5.3412    1.4870    7.8650   H         1 RES1   0.0000
   419 H262      3.7504    1.0268    8.4591   H         1 RES1   0.0000
   420 H263      4.1340    2.7238    8.1927   H         1 RES1   0.0000
   421 H264     -1.6107    1.9124    2.9484   H         1 RES1   0.0000
   422 H265     -2.1259    3.2733    3.9678   H         1 RES1   0.0000
   423 H266     -2.7564    2.7631    1.0338   H         1 RES1   0.0000
   424 H267     -3.0375    4.3395    1.7987   H         1 RES1   0.0000
   425 H268     -5.0877    3.0198    1.8190   H         1 RES1   0.0000
   426 H269     -4.5317    3.2538    3.4697   H         1 RES1   0.0000
   427 H270     -3.8791    0.7531    1.8576   H         1 RES1   0.0000
   428 H271     -3.7168    0.9758    3.6008   H         1 RES1   0.0000
   429 H272     -6.3617    1.1155    2.1040   H         1 RES1   0.0000
   430 H273     -6.1528    1.1761    3.8529   H         1 RES1   0.0000
   431 H274     -5.4205   -1.2027    2.0995   H         1 RES1   0.0000
   432 H275     -5.3235   -1.1380    3.8639   H         1 RES1   0.0000
   433 H276     -7.8835   -0.7075    2.2729   H         1 RES1   0.0000
   434 H277     -7.7553   -0.7709    4.0216   H         1 RES1   0.0000
   435 H278     -7.1156   -3.1514    2.2096   H         1 RES1   0.0000
   436 H279     -8.6690   -2.8604    2.9631   H         1 RES1   0.0000
   437 H280     -7.2543   -3.1579    3.9674   H         1 RES1   0.0000
   438 O9       -0.4842    1.8515   -1.7471   O.3       1 RES1   0.0000
   439 H281      0.4697    2.1027   -1.7835   H         1 RES1   0.0000
   440 H282     -0.9433    2.6273   -1.3983   H         1 RES1   0.0000
@<TRIPOS>BOND
     1     1    20    1
     2     1    23    1
     3     1   129    1
     4     1   132    1
     5     1   238    1
     6     1   241    1
     7     1   347    1
     8     1   350    1
     9     1   438    1
    10     2     3    1
    11     2    41    1
    12     2    42    1
    13     2    43    1
    14     3     4    1
    15     3    44    1
    16     3    45    1
    17     4     5    1
    18     4    46    1
    19     4    47    1
    20     5     6    1
    21     5    48    1
    22     5    49    1
    23     6     7    1
    24     6    50    1
    25     6    51    1
    26     7     8    1
    27     7    52    1
    28     7    53    1
    29     8     9    1
    30     8    54    1
    31     8    55    1
    32     9    10    1
    33     9    56    1
    34     9    57    1
    35    10    11    1
    36    10    19    1
    37    11    12    1
    38    11    58    1
    39    11    59    1
    40    12    13    1
    41    12    60    1
    42    12    61    1
    43    13    14    1
    44    13    62    1
    45    13    63    1
    46    14    15    1
    47    14    64    1
    48    14    65    1
    49    15    16    1
    50    15    66    1
    51    15    67    1
    52    16    17    1
    53    16    68    1
    54    16    69    1
    55    17    18    1
    56    17    70    1
    57    17    71    1
    58    18    72    1
    59    18    73    1
    60    18    74    1
    61    19    20    2
    62    19    21    1
    63    21    22    1
    64    21    75    1
    65    21    76    1
    66    22    23    2
    67    22    24    1
    68    24    25    1
    69    24    33    1
    70    25    26    1
    71    25    77    1
    72    25    78    1
    73    26    27    1
    74    26    79    1
    75    26    80    1
    76    27    28    1
    77    27    81    1
    78    27    82    1
    79    28    29    1
    80    28    83    1
    81    28    84    1
    82    29    30    1
    83    29    85    1
    84    29    86    1
    85    30    31    1
    86    30    87    1
    87    30    88    1
    88    31    32    1
    89    31    89    1
    90    31    90    1
    91    32    91    1
    92    32    92    1
    93    32    93    1
    94    33    34    1
    95    33    94    1
    96    33    95    1
    97    34    35    1
    98    34    96    1
    99    34    97    1
   100    35    36    1
   101    35    98    1
   102    35    99    1
   103    36    37    1
   104    36   100    1
   105    36   101    1
   106    37    38    1
   107    37   102    1
   108    37   103    1
   109    38    39    1
   110    38   104    1
   111    38   105    1
   112    39    40    1
   113    39   106    1
   114    39   107    1
   115    40   108    1
   116    40   109    1
   117    40   110    1
   118   111   112    1
   119   111   150    1
   120   111   151    1
   121   111   152    1
   122   112   113    1
   123   112   153    1
   124   112   154    1
   125   113   114    1
   126   113   155    1
   127   113   156    1
   128   114   115    1
   129   114   157    1
   130   114   158    1
   131   115   116    1
   132   115   159    1
   133   115   160    1
   134   116   117    1
   135   116   161    1
   136   116   162    1
   137   117   118    1
   138   117   163    1
   139   117   164    1
   140   118   119    1
   141   118   165    1
   142   118   166    1
   143   119   120    1
   144   119   128    1
   145   120   121    1
   146   120   167    1
   147   120   168    1
   148   121   122    1
   149   121   169    1
   150   121   170    1
   151   122   123    1
   152   122   171    1
   153   122   172    1
   154   123   124    1
   155   123   173    1
   156   123   174    1
   157   124   125    1
   158   124   175    1
   159   124   176    1
   160   125   126    1
   161   125   177    1
   162   125   178    1
   163   126   127    1
   164   126   179    1
   165   126   180    1
   166   127   181    1
   167   127   182    1
   168   127   183    1
   169   128   129    2
   170   128   130    1
   171   130   131    1
   172   130   184    1
   173   130   185    1
   174   131   132    2
   175   131   133    1
   176   133   134    1
   177   133   142    1
   178   134   135    1
   179   134   186    1
   180   134   187    1
   181   135   136    1
   182   135   188    1
   183   135   189    1
   184   136   137    1
   185   136   190    1
   186   136   191    1
   187   137   138    1
   188   137   192    1
   189   137   193    1
   190   138   139    1
   191   138   194    1
   192   138   195    1
   193   139   140    1
   194   139   196    1
   195   139   197    1
   196   140   141    1
   197   140   198    1
   198   140   199    1
   199   141   200    1
   200   141   201    1
   201   141   202    1
   202   142   143    1
   203   142   203    1
   204   142   204    1
   205   143   144    1
   206   143   205    1
   207   143   206    1
   208   144   145    1
   209   144   207    1
   210   144   208    1
   211   145   146    1
   212   145   209    1
   213   145   210    1
   214   146   147    1
   215   146   211    1
   216   146   212    1
   217   147   148    1
   218   147   213    1
   219   147   214    1
   220   148   149    1
   221   148   215    1
   222   148   216    1
   223   149   217    1
   224   149   218    1
   225   149   219    1
   226   220   221    1
   227   220   259    1
   228   220   260    1
   229   220   261    1
   230   221   222    1
   231   221   262    1
   232   221   263    1
   233   222   223    1
   234   222   264    1
   235   222   265    1
   236   223   224    1
   237   223   266    1
   238   223   267    1
   239   224   225    1
   240   224   268    1
   241   224   269    1
   242   225   226    1
   243   225   270    1
   244   225   271    1
   245   226   227    1
   246   226   272    1
   247   226   273    1
   248   227   228    1
   249   227   274    1
   250   227   275    1
   251   228   229    1
   252   228   237    1
   253   229   230    1
   254   229   276    1
   255   229   277    1
   256   230   231    1
   257   230   278    1
   258   230   279    1
   259   231   232    1
   260   231   280    1
   261   231   281    1
   262   232   233    1
   263   232   282    1
   264   232   283    1
   265   233   234    1
   266   233   284    1
   267   233   285    1
   268   234   235    1
   269   234   286    1
   270   234   287    1
   271   235   236    1
   272   235   288    1
   273   235   289    1
   274   236   290    1
   275   236   291    1
   276   236   292    1
   277   237   238    2
   278   237   239    1
   279   239   240    1
   280   239   293    1
   281   239   294    1
   282   240   241    2
   283   240   242    1
   284   242   243    1
   285   242   251    1
   286   243   244    1
   287   243   295    1
   288   243   296    1
   289   244   245    1
   290   244   297    1
   291   244   298    1
   292   245   246    1
   293   245   299    1
   294   245   300    1
   295   246   247    1
   296   246   301    1
   297   246   302    1
   298   247   248    1
   299   247   303    1
   300   247   304    1
   301   248   249    1
   302   248   305    1
   303   248   306    1
   304   249   250    1
   305   249   307    1
   306   249   308    1
   307   250   309    1
   308   250   310    1
   309   250   311    1
   310   251   252    1
   311   251   312    1
   312   251   313    1
   313   252   253    1
   314   252   314    1
   315   252   315    1
   316   253   254    1
   317   253   316    1
   318   253   317    1
   319   254   255    1
   320   254   318    1
   321   254   319    1
   322   255   256    1
   323   255   320    1
   324   255   321    1
   325   256   257    1
   326   256   322    1
   327   256   323    1
   328   257   258    1
   329   257   324    1
   330   257   325    1
   331   258   326    1
   332   258   327    1
   333   258   328    1
   334   329   330    1
   335   329   368    1
   336   329   369    1
   337   329   370    1
   338   330   331    1
   339   330   371    1
   340   330   372    1
   341   331   332    1
   342   331   373    1
   343   331   374    1
   344   332   333    1
   345   332   375    1
   346   332   376    1
   347   333   334    1
   348   333   377    1
   349   333   378    1
   350   334   335    1
   351   334   379    1
   352   334   380    1
   353   335   336    1
   354   335   381    1
   355   335   382    1
   356   336   337    1
   357   336   383    1
   358   336   384    1
   359   337   338    1
   360   337   346    1
   361   338   339    1
   362   338   385    1
   363   338   386    1
   364   339   340    1
   365   339   387    1
   366   339   388    1
   367   340   341    1
   368   340   389    1
   369   340   390    1
   370   341   342    1
   371   341   391    1
   372   341   392    1
   373   342   343    1
   374   342   393    1
   375   342   394    1
   376   343   344    1
   377   343   395    1
   378   343   396    1
   379   344   345    1
   380   344   397    1
   381   344   398    1
   382   345   399    1
   383   345   400    1
   384   345   401    1
   385   346   347    2
   386   346   348    1
   387   348   349    1
   388   348   402    1
   389   348   403    1
   390   349   350    2
   391   349   351    1
   392   351   352    1
   393   351   360    1
   394   352   353    1
   395   352   404    1
   396   352   405    1
   397   353   354    1
   398   353   406    1
   399   353   407    1
   400   354   355    1
   401   354   408    1
   402   354   409    1
   403   355   356    1
   404   355   410    1
   405   355   411    1
   406   356   357    1
   407   356   412    1
   408   356   413    1
   409   357   358    1
   410   357   414    1
   411   357   415    1
   412   358   359    1
   413   358   416    1
   414   358   417    1
   415   359   418    1
   416   359   419    1
   417   359   420    1
   418   360   361    1
   419   360   421    1
   420   360   422    1
   421   361   362    1
   422   361   423    1
   423   361   424    1
   424   362   363    1
   425   362   425    1
   426   362   426    1
   427   363   364    1
   428   363   427    1
   429   363   428    1
   430   364   365    1
   431   364   429    1
   432   364   430    1
   433   365   366    1
   434   365   431    1
   435   365   432    1
   436   366   367    1
   437   366   433    1
   438   366   434    1
   439   367   435    1
   440   367   436    1
   441   367   437    1
   442   438   439    1
   443   438   440    1
@<TRIPOS>SUBSTRUCTURE
     1 RES1      440 GROUP             0 ****  ****    0  
