@<TRIPOS>MOLECULE
am_c3_9H2O_c0_0_nunpairedes_0_charge_3 Charge: 3 Unpaired_Electrons: 0 XTB_Unpaired_Electrons: 0 XTB_Charge: 3
   196   201     1     0     0
SMALL
NoCharges
****
Generated from Architector

@<TRIPOS>ATOM
     1 La1      -0.0529    0.0364   -0.1031   La        1 RES1   0.0000
     2 C1        0.2590    3.1737   -6.7210   C.3       1 RES1   0.0000
     3 C2        0.7979    2.4654   -5.4827   C.3       1 RES1   0.0000
     4 C3       -0.2413    1.5336   -4.8589   C.3       1 RES1   0.0000
     5 C4       -1.3691    2.3420   -4.2177   C.3       1 RES1   0.0000
     6 N1       -2.4163    1.5190   -3.6087   N.am      1 RES1   0.0000
     7 C5       -3.7491    1.5330   -4.2070   C.3       1 RES1   0.0000
     8 C6       -3.7985    1.3321   -5.7316   C.3       1 RES1   0.0000
     9 C7       -3.9035   -0.1314   -6.1669   C.3       1 RES1   0.0000
    10 C8       -2.5794   -0.8788   -6.0716   C.3       1 RES1   0.0000
    11 C9       -2.1297    0.9838   -2.4318   C.2       1 RES1   0.0000
    12 O1       -0.9667    1.0135   -1.9728   O.2       1 RES1   0.0000
    13 C10      -3.2045    0.3372   -1.5474   C.3       1 RES1   0.0000
    14 O2       -2.7216    0.3115   -0.2086   O.3       1 RES1   0.0000
    15 C11      -3.2479    1.3674    0.5855   C.3       1 RES1   0.0000
    16 C12      -2.3067    1.6154    1.7631   C.2       1 RES1   0.0000
    17 O3       -1.0889    1.3763    1.6190   O.2       1 RES1   0.0000
    18 N2       -2.7928    2.1014    2.8934   N.am      1 RES1   0.0000
    19 C13      -1.8376    2.2693    3.9930   C.3       1 RES1   0.0000
    20 C14      -0.9981    3.5439    3.8898   C.3       1 RES1   0.0000
    21 C15      -0.1726    3.7960    5.1527   C.3       1 RES1   0.0000
    22 C16       0.8769    2.7288    5.4339   C.3       1 RES1   0.0000
    23 C17      -4.2131    2.3207    3.1830   C.3       1 RES1   0.0000
    24 C18      -4.9664    3.3791    2.3696   C.3       1 RES1   0.0000
    25 C19      -4.3928    4.7943    2.4663   C.3       1 RES1   0.0000
    26 C20      -3.2897    5.0643    1.4471   C.3       1 RES1   0.0000
    27 H1        1.0601    3.6853   -7.2437   H         1 RES1   0.0000
    28 H2       -0.1853    2.4575   -7.4084   H         1 RES1   0.0000
    29 H3       -0.4913    3.9132   -6.4593   H         1 RES1   0.0000
    30 H4        1.6674    1.8709   -5.7677   H         1 RES1   0.0000
    31 H5        1.1236    3.1983   -4.7396   H         1 RES1   0.0000
    32 H6       -0.6449    0.8962   -5.6433   H         1 RES1   0.0000
    33 H7        0.2168    0.9014   -4.0909   H         1 RES1   0.0000
    34 H8       -0.9357    2.9683   -3.4297   H         1 RES1   0.0000
    35 H9       -1.8488    2.9898   -4.9493   H         1 RES1   0.0000
    36 H10      -4.3469    0.7385   -3.7559   H         1 RES1   0.0000
    37 H11      -4.2056    2.4995   -3.9553   H         1 RES1   0.0000
    38 H12      -4.6889    1.8558   -6.0863   H         1 RES1   0.0000
    39 H13      -2.9391    1.7874   -6.2220   H         1 RES1   0.0000
    40 H14      -4.6633   -0.6315   -5.5651   H         1 RES1   0.0000
    41 H15      -4.2412   -0.1670   -7.2039   H         1 RES1   0.0000
    42 H16      -2.1554   -0.8002   -5.0712   H         1 RES1   0.0000
    43 H17      -2.7208   -1.9292   -6.3114   H         1 RES1   0.0000
    44 H18      -1.8697   -0.4742   -6.7895   H         1 RES1   0.0000
    45 H19      -4.1626    0.8663   -1.5958   H         1 RES1   0.0000
    46 H20      -3.3514   -0.7103   -1.8393   H         1 RES1   0.0000
    47 H21      -3.2902    2.3056    0.0147   H         1 RES1   0.0000
    48 H22      -4.2548    1.0882    0.9174   H         1 RES1   0.0000
    49 H23      -2.3980    2.2668    4.9277   H         1 RES1   0.0000
    50 H24      -1.1739    1.3991    3.9680   H         1 RES1   0.0000
    51 H25      -0.3372    3.4611    3.0238   H         1 RES1   0.0000
    52 H26      -1.6550    4.3996    3.7396   H         1 RES1   0.0000
    53 H27       0.3243    4.7602    5.0403   H         1 RES1   0.0000
    54 H28      -0.8374    3.8758    6.0137   H         1 RES1   0.0000
    55 H29       1.5376    2.5992    4.5780   H         1 RES1   0.0000
    56 H30       1.4820    3.0274    6.2849   H         1 RES1   0.0000
    57 H31       0.4206    1.7709    5.6676   H         1 RES1   0.0000
    58 H32      -4.7367    1.3618    3.0996   H         1 RES1   0.0000
    59 H33      -4.2655    2.6283    4.2269   H         1 RES1   0.0000
    60 H34      -5.0498    3.0996    1.3202   H         1 RES1   0.0000
    61 H35      -5.9796    3.3854    2.7751   H         1 RES1   0.0000
    62 H36      -5.1999    5.5068    2.2846   H         1 RES1   0.0000
    63 H37      -4.0225    4.9776    3.4780   H         1 RES1   0.0000
    64 H38      -3.6896    4.9989    0.4338   H         1 RES1   0.0000
    65 H39      -2.8958    6.0685    1.5907   H         1 RES1   0.0000
    66 H40      -2.4710    4.3508    1.5473   H         1 RES1   0.0000
    67 C21       2.7760   -3.2919   -5.8398   C.3       1 RES1   0.0000
    68 C22       3.2350   -1.8996   -5.4184   C.3       1 RES1   0.0000
    69 C23       3.2489   -1.7353   -3.8984   C.3       1 RES1   0.0000
    70 C24       3.6325   -0.3125   -3.4839   C.3       1 RES1   0.0000
    71 N3        4.0374   -0.1854   -2.0783   N.am      1 RES1   0.0000
    72 C25       5.4673    0.0006   -1.8212   C.3       1 RES1   0.0000
    73 C26       6.1932   -0.9958   -0.9101   C.3       1 RES1   0.0000
    74 C27       6.1526   -2.4576   -1.3657   C.3       1 RES1   0.0000
    75 C28       4.9291   -3.2074   -0.8462   C.3       1 RES1   0.0000
    76 C29       3.0697   -0.0713   -1.1777   C.2       1 RES1   0.0000
    77 O4        1.8678   -0.2119   -1.4804   O.2       1 RES1   0.0000
    78 C30       3.4504    0.2667    0.2657   C.3       1 RES1   0.0000
    79 O5        2.2984    0.4440    1.0871   O.3       1 RES1   0.0000
    80 C31       2.2499    1.7157    1.7220   C.3       1 RES1   0.0000
    81 C32       1.5510    2.7354    0.8105   C.2       1 RES1   0.0000
    82 O6        0.8214    2.2822   -0.0888   O.2       1 RES1   0.0000
    83 N4        1.6914    4.0338    1.0432   N.am      1 RES1   0.0000
    84 C33       0.7634    4.9490    0.3688   C.3       1 RES1   0.0000
    85 C34       1.0532    5.1989   -1.1110   C.3       1 RES1   0.0000
    86 C35       0.1418    6.2826   -1.6921   C.3       1 RES1   0.0000
    87 C36      -1.3319    5.8933   -1.6850   C.3       1 RES1   0.0000
    88 C37       2.6195    4.5783    2.0317   C.3       1 RES1   0.0000
    89 C38       4.1142    4.5001    1.6880   C.3       1 RES1   0.0000
    90 C39       4.4966    5.0901    0.3269   C.3       1 RES1   0.0000
    91 C40       4.4672    4.0645   -0.8081   C.3       1 RES1   0.0000
    92 H41       2.8529   -3.3917   -6.9190   H         1 RES1   0.0000
    93 H42       3.3967   -4.0645   -5.3907   H         1 RES1   0.0000
    94 H43       1.7397   -3.4673   -5.5534   H         1 RES1   0.0000
    95 H44       4.2377   -1.7256   -5.8100   H         1 RES1   0.0000
    96 H45       2.5716   -1.1536   -5.8591   H         1 RES1   0.0000
    97 H46       2.2513   -1.9537   -3.5122   H         1 RES1   0.0000
    98 H47       3.9609   -2.4454   -3.4772   H         1 RES1   0.0000
    99 H48       4.4614    0.0419   -4.0975   H         1 RES1   0.0000
   100 H49       2.7788    0.3557   -3.6398   H         1 RES1   0.0000
   101 H50       5.9577   -0.0551   -2.7928   H         1 RES1   0.0000
   102 H51       5.6232    1.0166   -1.4431   H         1 RES1   0.0000
   103 H52       7.2310   -0.6622   -0.9050   H         1 RES1   0.0000
   104 H53       5.8461   -0.9380    0.1199   H         1 RES1   0.0000
   105 H54       6.1909   -2.5130   -2.4560   H         1 RES1   0.0000
   106 H55       7.0439   -2.9612   -0.9865   H         1 RES1   0.0000
   107 H56       4.0103   -2.7172   -1.1656   H         1 RES1   0.0000
   108 H57       4.9288   -4.2316   -1.2152   H         1 RES1   0.0000
   109 H58       4.9406   -3.2417    0.2438   H         1 RES1   0.0000
   110 H59       4.0372   -0.5483    0.7045   H         1 RES1   0.0000
   111 H60       4.0632    1.1739    0.2520   H         1 RES1   0.0000
   112 H61       1.6293    1.5814    2.6190   H         1 RES1   0.0000
   113 H62       3.2520    2.0241    2.0266   H         1 RES1   0.0000
   114 H63      -0.2342    4.5093    0.4660   H         1 RES1   0.0000
   115 H64       0.7820    5.8965    0.9087   H         1 RES1   0.0000
   116 H65       2.0866    5.5172   -1.2394   H         1 RES1   0.0000
   117 H66       0.9028    4.2655   -1.6571   H         1 RES1   0.0000
   118 H67       0.2720    7.2174   -1.1426   H         1 RES1   0.0000
   119 H68       0.4549    6.4683   -2.7201   H         1 RES1   0.0000
   120 H69      -1.7402    5.9306   -0.6792   H         1 RES1   0.0000
   121 H70      -1.9007    6.5820   -2.3051   H         1 RES1   0.0000
   122 H71      -1.4604    4.8848   -2.0791   H         1 RES1   0.0000
   123 H72       2.3700    5.6326    2.1478   H         1 RES1   0.0000
   124 H73       2.4362    4.0939    2.9947   H         1 RES1   0.0000
   125 H74       4.6214    5.0560    2.4776   H         1 RES1   0.0000
   126 H75       4.4916    3.4776    1.7423   H         1 RES1   0.0000
   127 H76       3.8372    5.9288    0.0897   H         1 RES1   0.0000
   128 H77       5.5125    5.4866    0.3928   H         1 RES1   0.0000
   129 H78       3.5018    3.5594   -0.8747   H         1 RES1   0.0000
   130 H79       4.6613    4.5564   -1.7593   H         1 RES1   0.0000
   131 H80       5.2483    3.3143   -0.6581   H         1 RES1   0.0000
   132 C41      -2.2679   -0.2622    6.7876   C.3       1 RES1   0.0000
   133 C42      -2.6603   -1.1385    5.6043   C.3       1 RES1   0.0000
   134 C43      -1.4467   -1.6728    4.8484   C.3       1 RES1   0.0000
   135 C44      -1.8742   -2.5995    3.7102   C.3       1 RES1   0.0000
   136 N5       -0.7322   -3.2240    3.0392   N.am      1 RES1   0.0000
   137 C45      -0.3983   -4.6004    3.4187   C.3       1 RES1   0.0000
   138 C46       0.9886   -4.9147    3.9926   C.3       1 RES1   0.0000
   139 C47       1.3907   -4.1120    5.2322   C.3       1 RES1   0.0000
   140 C48       2.0113   -2.7550    4.9077   C.3       1 RES1   0.0000
   141 C49      -0.1649   -2.5325    2.0656   C.2       1 RES1   0.0000
   142 O7       -0.5724   -1.4028    1.7179   O.2       1 RES1   0.0000
   143 C50       1.0552   -3.1166    1.3601   C.3       1 RES1   0.0000
   144 O8        1.3622   -2.3805    0.1842   O.3       1 RES1   0.0000
   145 C51       1.2038   -3.1104   -1.0203   C.3       1 RES1   0.0000
   146 C52      -0.1634   -2.8809   -1.6626   C.2       1 RES1   0.0000
   147 O9       -0.8353   -1.8915   -1.3054   O.2       1 RES1   0.0000
   148 N6       -0.5569   -3.7142   -2.6126   N.am      1 RES1   0.0000
   149 C53      -1.7856   -3.3852   -3.3397   C.3       1 RES1   0.0000
   150 C54      -3.0457   -3.9818   -2.7117   C.3       1 RES1   0.0000
   151 C55      -4.3017   -3.6802   -3.5331   C.3       1 RES1   0.0000
   152 C56      -4.8785   -2.3080   -3.2177   C.3       1 RES1   0.0000
   153 C57       0.2539   -4.8336   -3.0998   C.3       1 RES1   0.0000
   154 C58       0.3695   -6.0921   -2.2247   C.3       1 RES1   0.0000
   155 C59      -0.9588   -6.7352   -1.8181   C.3       1 RES1   0.0000
   156 C60      -1.5172   -6.1886   -0.5021   C.3       1 RES1   0.0000
   157 H81      -3.1593    0.1264    7.2713   H         1 RES1   0.0000
   158 H82      -1.7116   -0.8354    7.5245   H         1 RES1   0.0000
   159 H83      -1.6485    0.5756    6.4741   H         1 RES1   0.0000
   160 H84      -3.2447   -1.9815    5.9768   H         1 RES1   0.0000
   161 H85      -3.2970   -0.5755    4.9174   H         1 RES1   0.0000
   162 H86      -0.8702   -0.8449    4.4256   H         1 RES1   0.0000
   163 H87      -0.8068   -2.2127    5.5457   H         1 RES1   0.0000
   164 H88      -2.5296   -3.3893    4.0837   H         1 RES1   0.0000
   165 H89      -2.4189   -2.0212    2.9551   H         1 RES1   0.0000
   166 H90      -1.1234   -4.8791    4.1829   H         1 RES1   0.0000
   167 H91      -0.5799   -5.2468    2.5531   H         1 RES1   0.0000
   168 H92       0.9384   -5.9691    4.2693   H         1 RES1   0.0000
   169 H93       1.7710   -4.8290    3.2397   H         1 RES1   0.0000
   170 H94       0.5240   -3.9838    5.8851   H         1 RES1   0.0000
   171 H95       2.1261   -4.6931    5.7923   H         1 RES1   0.0000
   172 H96       1.3343   -2.1327    4.3238   H         1 RES1   0.0000
   173 H97       2.2530   -2.2289    5.8286   H         1 RES1   0.0000
   174 H98       2.9384   -2.8881    4.3484   H         1 RES1   0.0000
   175 H99       1.9126   -3.0188    2.0371   H         1 RES1   0.0000
   176 H100      0.9015   -4.1743    1.1342   H         1 RES1   0.0000
   177 H101      1.9593   -2.7243   -1.7147   H         1 RES1   0.0000
   178 H102      1.3992   -4.1690   -0.8467   H         1 RES1   0.0000
   179 H103     -1.8510   -2.2932   -3.3567   H         1 RES1   0.0000
   180 H104     -1.6735   -3.7398   -4.3650   H         1 RES1   0.0000
   181 H105     -2.9315   -5.0604   -2.6422   H         1 RES1   0.0000
   182 H106     -3.1639   -3.5850   -1.7018   H         1 RES1   0.0000
   183 H107     -4.0751   -3.7468   -4.5991   H         1 RES1   0.0000
   184 H108     -5.0576   -4.4345   -3.3139   H         1 RES1   0.0000
   185 H109     -4.1591   -1.5393   -3.4886   H         1 RES1   0.0000
   186 H110     -5.7939   -2.1383   -3.7778   H         1 RES1   0.0000
   187 H111     -5.1124   -2.2347   -2.1562   H         1 RES1   0.0000
   188 H112     -0.1888   -5.1415   -4.0457   H         1 RES1   0.0000
   189 H113      1.2590   -4.4586   -3.3184   H         1 RES1   0.0000
   190 H114      0.9395   -6.8010   -2.8270   H         1 RES1   0.0000
   191 H115      0.9585   -5.9134   -1.3251   H         1 RES1   0.0000
   192 H116     -1.6847   -6.6069   -2.6234   H         1 RES1   0.0000
   193 H117     -0.8039   -7.8086   -1.6972   H         1 RES1   0.0000
   194 H118     -1.5110   -5.0976   -0.4832   H         1 RES1   0.0000
   195 H119     -2.5414   -6.5285   -0.3604   H         1 RES1   0.0000
   196 H120     -0.9267   -6.5546    0.3402   H         1 RES1   0.0000
@<TRIPOS>BOND
     1     1    12    1
     2     1    14    1
     3     1    17    1
     4     1    77    1
     5     1    79    1
     6     1    82    1
     7     1   142    1
     8     1   144    1
     9     1   147    1
    10     2     3    1
    11     2    27    1
    12     2    28    1
    13     2    29    1
    14     3     4    1
    15     3    30    1
    16     3    31    1
    17     4     5    1
    18     4    32    1
    19     4    33    1
    20     5     6    1
    21     5    34    1
    22     5    35    1
    23     6     7    1
    24     6    11    1
    25     7     8    1
    26     7    36    1
    27     7    37    1
    28     8     9    1
    29     8    38    1
    30     8    39    1
    31     9    10    1
    32     9    40    1
    33     9    41    1
    34    10    42    1
    35    10    43    1
    36    10    44    1
    37    11    12    2
    38    11    13    1
    39    13    14    1
    40    13    45    1
    41    13    46    1
    42    14    15    1
    43    15    16    1
    44    15    47    1
    45    15    48    1
    46    16    17    2
    47    16    18    1
    48    18    19    1
    49    18    23    1
    50    19    20    1
    51    19    49    1
    52    19    50    1
    53    20    21    1
    54    20    51    1
    55    20    52    1
    56    21    22    1
    57    21    53    1
    58    21    54    1
    59    22    55    1
    60    22    56    1
    61    22    57    1
    62    23    24    1
    63    23    58    1
    64    23    59    1
    65    24    25    1
    66    24    60    1
    67    24    61    1
    68    25    26    1
    69    25    62    1
    70    25    63    1
    71    26    64    1
    72    26    65    1
    73    26    66    1
    74    67    68    1
    75    67    92    1
    76    67    93    1
    77    67    94    1
    78    68    69    1
    79    68    95    1
    80    68    96    1
    81    69    70    1
    82    69    97    1
    83    69    98    1
    84    70    71    1
    85    70    99    1
    86    70   100    1
    87    71    72    1
    88    71    76    1
    89    72    73    1
    90    72   101    1
    91    72   102    1
    92    73    74    1
    93    73   103    1
    94    73   104    1
    95    74    75    1
    96    74   105    1
    97    74   106    1
    98    75   107    1
    99    75   108    1
   100    75   109    1
   101    76    77    2
   102    76    78    1
   103    78    79    1
   104    78   110    1
   105    78   111    1
   106    79    80    1
   107    80    81    1
   108    80   112    1
   109    80   113    1
   110    81    82    2
   111    81    83    1
   112    83    84    1
   113    83    88    1
   114    84    85    1
   115    84   114    1
   116    84   115    1
   117    85    86    1
   118    85   116    1
   119    85   117    1
   120    86    87    1
   121    86   118    1
   122    86   119    1
   123    87   120    1
   124    87   121    1
   125    87   122    1
   126    88    89    1
   127    88   123    1
   128    88   124    1
   129    89    90    1
   130    89   125    1
   131    89   126    1
   132    90    91    1
   133    90   127    1
   134    90   128    1
   135    91   129    1
   136    91   130    1
   137    91   131    1
   138   132   133    1
   139   132   157    1
   140   132   158    1
   141   132   159    1
   142   133   134    1
   143   133   160    1
   144   133   161    1
   145   134   135    1
   146   134   162    1
   147   134   163    1
   148   135   136    1
   149   135   164    1
   150   135   165    1
   151   136   137    1
   152   136   141    1
   153   137   138    1
   154   137   166    1
   155   137   167    1
   156   138   139    1
   157   138   168    1
   158   138   169    1
   159   139   140    1
   160   139   170    1
   161   139   171    1
   162   140   172    1
   163   140   173    1
   164   140   174    1
   165   141   142    2
   166   141   143    1
   167   143   144    1
   168   143   175    1
   169   143   176    1
   170   144   145    1
   171   145   146    1
   172   145   177    1
   173   145   178    1
   174   146   147    2
   175   146   148    1
   176   148   149    1
   177   148   153    1
   178   149   150    1
   179   149   179    1
   180   149   180    1
   181   150   151    1
   182   150   181    1
   183   150   182    1
   184   151   152    1
   185   151   183    1
   186   151   184    1
   187   152   185    1
   188   152   186    1
   189   152   187    1
   190   153   154    1
   191   153   188    1
   192   153   189    1
   193   154   155    1
   194   154   190    1
   195   154   191    1
   196   155   156    1
   197   155   192    1
   198   155   193    1
   199   156   194    1
   200   156   195    1
   201   156   196    1
@<TRIPOS>SUBSTRUCTURE
     1 RES1      196 GROUP             0 ****  ****    0  
