@<TRIPOS>MOLECULE
am_c3_9H2O_c0_0_nunpairedes_0_charge_3 Charge: 3 Unpaired_Electrons: 0 XTB_Unpaired_Electrons: 0 XTB_Charge: 3
   268   273     1     0     0
SMALL
NoCharges
****
Generated from Architector

@<TRIPOS>ATOM
     1 La1      -0.0111    0.0130   -0.0253   La        1 RES1   0.0000
     2 C1       -2.2768    1.0355   -7.5378   C.3       1 RES1   0.0000
     3 C2       -3.0733   -0.1120   -6.9376   C.3       1 RES1   0.0000
     4 C3       -3.5002    0.1058   -5.4835   C.3       1 RES1   0.0000
     5 C4       -4.6154    1.1427   -5.2903   C.3       1 RES1   0.0000
     6 C5       -4.1637    2.5427   -4.8596   C.3       1 RES1   0.0000
     7 C6       -3.8005    2.7224   -3.3743   C.3       1 RES1   0.0000
     8 N1       -2.4187    2.4269   -2.9904   N.am      1 RES1   0.0000
     9 C7       -1.3843    3.2704   -3.5916   C.3       1 RES1   0.0000
    10 C8       -1.4891    4.6858   -3.0051   C.3       1 RES1   0.0000
    11 C9       -0.2853    5.6003   -3.2477   C.3       1 RES1   0.0000
    12 C10       0.9731    5.1900   -2.4835   C.3       1 RES1   0.0000
    13 C11       2.0871    6.2283   -2.6123   C.3       1 RES1   0.0000
    14 C12       3.3544    5.8044   -1.8789   C.3       1 RES1   0.0000
    15 C13      -2.0763    1.7230   -1.9165   C.2       1 RES1   0.0000
    16 O1       -0.8971    1.5963   -1.5347   O.2       1 RES1   0.0000
    17 C14      -3.1782    1.0555   -1.0909   C.3       1 RES1   0.0000
    18 O2       -2.5801    0.2249   -0.0964   O.3       1 RES1   0.0000
    19 C15      -3.0731    0.4133    1.2200   C.3       1 RES1   0.0000
    20 C16      -2.2056    1.4373    1.9639   C.2       1 RES1   0.0000
    21 O3       -1.0113    1.5336    1.5931   O.2       1 RES1   0.0000
    22 N2       -2.6885    2.1423    2.9749   N.am      1 RES1   0.0000
    23 C17      -1.7693    2.9947    3.7294   C.3       1 RES1   0.0000
    24 C18      -0.9582    2.2050    4.7610   C.3       1 RES1   0.0000
    25 C19      -0.1153    3.1310    5.6480   C.3       1 RES1   0.0000
    26 C20       0.9521    3.9006    4.8686   C.3       1 RES1   0.0000
    27 C21       2.0019    4.5710    5.7603   C.3       1 RES1   0.0000
    28 C22       1.4441    5.7298    6.5771   C.3       1 RES1   0.0000
    29 C23      -4.0674    2.1130    3.4408   C.3       1 RES1   0.0000
    30 C24      -4.8455    3.4188    3.2314   C.3       1 RES1   0.0000
    31 C25      -4.9463    3.9220    1.7883   C.3       1 RES1   0.0000
    32 C26      -3.7321    4.7351    1.3419   C.3       1 RES1   0.0000
    33 C27      -3.9322    5.3858   -0.0246   C.3       1 RES1   0.0000
    34 C28      -2.8384    6.4062   -0.3117   C.3       1 RES1   0.0000
    35 H1       -1.9544    0.7774   -8.5432   H         1 RES1   0.0000
    36 H2       -2.8771    1.9382   -7.6051   H         1 RES1   0.0000
    37 H3       -1.3932    1.2364   -6.9346   H         1 RES1   0.0000
    38 H4       -3.9598   -0.2943   -7.5456   H         1 RES1   0.0000
    39 H5       -2.4606   -1.0163   -6.9789   H         1 RES1   0.0000
    40 H6       -3.8682   -0.8564   -5.1331   H         1 RES1   0.0000
    41 H7       -2.6306    0.3818   -4.8809   H         1 RES1   0.0000
    42 H8       -5.1483    1.2489   -6.2360   H         1 RES1   0.0000
    43 H9       -5.3406    0.7749   -4.5611   H         1 RES1   0.0000
    44 H10      -3.3457    2.8746   -5.4933   H         1 RES1   0.0000
    45 H11      -5.0056    3.2181   -5.0276   H         1 RES1   0.0000
    46 H12      -3.9817    3.7695   -3.1107   H         1 RES1   0.0000
    47 H13      -4.4846    2.1211   -2.7808   H         1 RES1   0.0000
    48 H14      -0.4187    2.8211   -3.3551   H         1 RES1   0.0000
    49 H15      -1.5161    3.2858   -4.6726   H         1 RES1   0.0000
    50 H16      -2.3669    5.1772   -3.4317   H         1 RES1   0.0000
    51 H17      -1.6367    4.5855   -1.9273   H         1 RES1   0.0000
    52 H18      -0.0765    5.6511   -4.3181   H         1 RES1   0.0000
    53 H19      -0.5710    6.6039   -2.9248   H         1 RES1   0.0000
    54 H20       0.7263    5.0549   -1.4268   H         1 RES1   0.0000
    55 H21       1.3300    4.2336   -2.8708   H         1 RES1   0.0000
    56 H22       2.3152    6.3890   -3.6666   H         1 RES1   0.0000
    57 H23       1.7447    7.1794   -2.2051   H         1 RES1   0.0000
    58 H24       3.7689    4.8909   -2.3055   H         1 RES1   0.0000
    59 H25       4.1138    6.5759   -1.9587   H         1 RES1   0.0000
    60 H26       3.1522    5.6391   -0.8216   H         1 RES1   0.0000
    61 H27      -3.7911    1.8417   -0.6353   H         1 RES1   0.0000
    62 H28      -3.8120    0.4234   -1.7256   H         1 RES1   0.0000
    63 H29      -4.1356    0.6552    1.1875   H         1 RES1   0.0000
    64 H30      -2.9159   -0.5469    1.7319   H         1 RES1   0.0000
    65 H31      -1.0877    3.4746    3.0260   H         1 RES1   0.0000
    66 H32      -2.3510    3.7649    4.2329   H         1 RES1   0.0000
    67 H33      -1.6366    1.6346    5.4008   H         1 RES1   0.0000
    68 H34      -0.3097    1.4960    4.2352   H         1 RES1   0.0000
    69 H35      -0.7717    3.8283    6.1687   H         1 RES1   0.0000
    70 H36       0.3717    2.5186    6.4096   H         1 RES1   0.0000
    71 H37       1.4435    3.1941    4.1945   H         1 RES1   0.0000
    72 H38       0.4793    4.6739    4.2615   H         1 RES1   0.0000
    73 H39       2.4391    3.8345    6.4379   H         1 RES1   0.0000
    74 H40       2.8010    4.9575    5.1235   H         1 RES1   0.0000
    75 H41       0.6957    5.3895    7.2864   H         1 RES1   0.0000
    76 H42       2.2432    6.2074    7.1376   H         1 RES1   0.0000
    77 H43       0.9963    6.4762    5.9251   H         1 RES1   0.0000
    78 H44      -4.6071    1.2992    2.9587   H         1 RES1   0.0000
    79 H45      -4.0401    1.9028    4.5133   H         1 RES1   0.0000
    80 H46      -5.8493    3.2105    3.6052   H         1 RES1   0.0000
    81 H47      -4.4291    4.2112    3.8538   H         1 RES1   0.0000
    82 H48      -5.1244    3.0851    1.1066   H         1 RES1   0.0000
    83 H49      -5.8224    4.5699    1.7329   H         1 RES1   0.0000
    84 H50      -3.5590    5.5241    2.0758   H         1 RES1   0.0000
    85 H51      -2.8393    4.1057    1.3080   H         1 RES1   0.0000
    86 H52      -3.9392    4.6138   -0.7998   H         1 RES1   0.0000
    87 H53      -4.8986    5.8882   -0.0549   H         1 RES1   0.0000
    88 H54      -1.8506    5.9567   -0.2234   H         1 RES1   0.0000
    89 H55      -2.9475    6.8136   -1.3124   H         1 RES1   0.0000
    90 H56      -2.8963    7.2318    0.3919   H         1 RES1   0.0000
    91 C29       1.6685    1.6851   -7.5777   C.3       1 RES1   0.0000
    92 C30       1.1799    2.9114   -6.8238   C.3       1 RES1   0.0000
    93 C31       1.6609    2.9982   -5.3723   C.3       1 RES1   0.0000
    94 C32       3.1409    3.3740   -5.2115   C.3       1 RES1   0.0000
    95 C33       4.1092    2.2158   -4.9417   C.3       1 RES1   0.0000
    96 C34       4.2123    1.7275   -3.4850   C.3       1 RES1   0.0000
    97 N3        3.2329    0.7293   -3.0583   N.am      1 RES1   0.0000
    98 C35       3.3731   -0.6018   -3.6515   C.3       1 RES1   0.0000
    99 C36       4.5858   -1.3039   -3.0220   C.3       1 RES1   0.0000
   100 C37       4.6879   -2.8171   -3.2361   C.3       1 RES1   0.0000
   101 C38       3.6237   -3.6188   -2.4860   C.3       1 RES1   0.0000
   102 C39       3.9291   -5.1178   -2.4637   C.3       1 RES1   0.0000
   103 C40       2.9421   -5.9028   -1.6058   C.3       1 RES1   0.0000
   104 C41       2.4712    0.8374   -1.9777   C.2       1 RES1   0.0000
   105 O4        1.7170   -0.0753   -1.5884   O.2       1 RES1   0.0000
   106 C42       2.5584    2.1116   -1.1396   C.3       1 RES1   0.0000
   107 O5        1.5356    2.0838   -0.1462   O.3       1 RES1   0.0000
   108 C43       1.9679    2.4917    1.1424   C.3       1 RES1   0.0000
   109 C44       2.3806    1.2579    1.9561   C.2       1 RES1   0.0000
   110 O6        1.8776    0.1634    1.6074   O.2       1 RES1   0.0000
   111 N4        3.1946    1.3742    2.9921   N.am      1 RES1   0.0000
   112 C45       3.4586    0.1870    3.8062   C.3       1 RES1   0.0000
   113 C46       2.3011   -0.1206    4.7610   C.3       1 RES1   0.0000
   114 C47       2.6088   -1.3199    5.6657   C.3       1 RES1   0.0000
   115 C48       2.7305   -2.6372    4.8983   C.3       1 RES1   0.0000
   116 C49       2.7457   -3.8719    5.8045   C.3       1 RES1   0.0000
   117 C50       4.0006   -3.9787    6.6614   C.3       1 RES1   0.0000
   118 C51       3.8462    2.6061    3.4243   C.3       1 RES1   0.0000
   119 C52       5.3684    2.6375    3.2293   C.3       1 RES1   0.0000
   120 C53       5.8659    2.4765    1.7912   C.3       1 RES1   0.0000
   121 C54       5.9096    1.0200    1.3335   C.3       1 RES1   0.0000
   122 C55       6.5223    0.8536   -0.0536   C.3       1 RES1   0.0000
   123 C56       6.7569   -0.6181   -0.3647   C.3       1 RES1   0.0000
   124 H57       1.2445    1.6720   -8.5784   H         1 RES1   0.0000
   125 H58       2.7501    1.6889   -7.6766   H         1 RES1   0.0000
   126 H59       1.3593    0.7782   -7.0619   H         1 RES1   0.0000
   127 H60       1.4921    3.8110   -7.3550   H         1 RES1   0.0000
   128 H61       0.0870    2.9004   -6.8197   H         1 RES1   0.0000
   129 H62       1.0606    3.7784   -4.9089   H         1 RES1   0.0000
   130 H63       1.4585    2.0555   -4.8568   H         1 RES1   0.0000
   131 H64       3.4653    3.8612   -6.1316   H         1 RES1   0.0000
   132 H65       3.2506    4.1099   -4.4120   H         1 RES1   0.0000
   133 H66       3.8822    1.3846   -5.6050   H         1 RES1   0.0000
   134 H67       5.1133    2.5694   -5.1852   H         1 RES1   0.0000
   135 H68       5.1971    1.2704   -3.3498   H         1 RES1   0.0000
   136 H69       4.1688    2.5937   -2.8289   H         1 RES1   0.0000
   137 H70       2.4546   -1.1535   -3.4470   H         1 RES1   0.0000
   138 H71       3.5026   -0.4969   -4.7275   H         1 RES1   0.0000
   139 H72       5.4961   -0.8533   -3.4240   H         1 RES1   0.0000
   140 H73       4.5513   -1.1129   -1.9470   H         1 RES1   0.0000
   141 H74       4.6505   -3.0457   -4.3025   H         1 RES1   0.0000
   142 H75       5.6711   -3.1230   -2.8712   H         1 RES1   0.0000
   143 H76       3.5642   -3.2497   -1.4573   H         1 RES1   0.0000
   144 H77       2.6577   -3.4530   -2.9667   H         1 RES1   0.0000
   145 H78       3.9121   -5.5096   -3.4812   H         1 RES1   0.0000
   146 H79       4.9338   -5.2761   -2.0718   H         1 RES1   0.0000
   147 H80       1.9331   -5.8550   -2.0150   H         1 RES1   0.0000
   148 H81       3.2256   -6.9500   -1.5657   H         1 RES1   0.0000
   149 H82       2.9306   -5.5235   -0.5843   H         1 RES1   0.0000
   150 H83       3.5543    2.1332   -0.6790   H         1 RES1   0.0000
   151 H84       2.4187    3.0102   -1.7531   H         1 RES1   0.0000
   152 H85       2.7484    3.2490    1.0514   H         1 RES1   0.0000
   153 H86       1.0816    2.9146    1.6355   H         1 RES1   0.0000
   154 H87       3.6163   -0.6619    3.1384   H         1 RES1   0.0000
   155 H88       4.3710    0.3600    4.3745   H         1 RES1   0.0000
   156 H89       2.1095    0.7527    5.3906   H         1 RES1   0.0000
   157 H90       1.4005   -0.3206    4.1699   H         1 RES1   0.0000
   158 H91       3.5256   -1.1273    6.2230   H         1 RES1   0.0000
   159 H92       1.8002   -1.4071    6.3939   H         1 RES1   0.0000
   160 H93       1.8831   -2.7033    4.2092   H         1 RES1   0.0000
   161 H94       3.6474   -2.6361    4.3071   H         1 RES1   0.0000
   162 H95       1.8689   -3.8643    6.4557   H         1 RES1   0.0000
   163 H96       2.6902   -4.7631    5.1756   H         1 RES1   0.0000
   164 H97       4.0684   -3.1580    7.3689   H         1 RES1   0.0000
   165 H98       3.9835   -4.9070    7.2261   H         1 RES1   0.0000
   166 H99       4.8910   -3.9792    6.0372   H         1 RES1   0.0000
   167 H100      3.4049    3.4655    2.9200   H         1 RES1   0.0000
   168 H101      3.6466    2.7116    4.4934   H         1 RES1   0.0000
   169 H102      5.6864    3.6100    3.6097   H         1 RES1   0.0000
   170 H103      5.8434    1.8791    3.8523   H         1 RES1   0.0000
   171 H104      5.2588    3.0814    1.1115   H         1 RES1   0.0000
   172 H105      6.8815    2.8734    1.7517   H         1 RES1   0.0000
   173 H106      6.5133    0.4552    2.0458   H         1 RES1   0.0000
   174 H107      4.9068    0.5863    1.3286   H         1 RES1   0.0000
   175 H108      5.8609    1.2942   -0.8059   H         1 RES1   0.0000
   176 H109      7.4725    1.3837   -0.1034   H         1 RES1   0.0000
   177 H110      5.8374   -1.1900   -0.2473   H         1 RES1   0.0000
   178 H111      7.1200   -0.7445   -1.3800   H         1 RES1   0.0000
   179 H112      7.4997   -1.0343    0.3095   H         1 RES1   0.0000
   180 C57       0.3674   -2.0652   -7.6786   C.3       1 RES1   0.0000
   181 C58       1.7016   -2.2538   -6.9736   C.3       1 RES1   0.0000
   182 C59       1.5951   -2.8082   -5.5498   C.3       1 RES1   0.0000
   183 C60       1.2129   -4.2929   -5.4642   C.3       1 RES1   0.0000
   184 C61      -0.2382   -4.5953   -5.0722   C.3       1 RES1   0.0000
   185 C62      -0.5831   -4.4669   -3.5756   C.3       1 RES1   0.0000
   186 N5       -1.0160   -3.1445   -3.1201   N.am      1 RES1   0.0000
   187 C63      -2.2434   -2.6271   -3.7321   C.3       1 RES1   0.0000
   188 C64      -3.4223   -3.5183   -3.3111   C.3       1 RES1   0.0000
   189 C65      -4.8226   -2.9480   -3.5555   C.3       1 RES1   0.0000
   190 C66      -5.1501   -1.7098   -2.7225   C.3       1 RES1   0.0000
   191 C67      -6.6213   -1.3083   -2.8231   C.3       1 RES1   0.0000
   192 C68      -6.9151   -0.0413   -2.0277   C.3       1 RES1   0.0000
   193 C69      -0.5915   -2.5557   -2.0068   C.2       1 RES1   0.0000
   194 O7       -1.0026   -1.4399   -1.6310   O.2       1 RES1   0.0000
   195 C70       0.3774   -3.2982   -1.0884   C.3       1 RES1   0.0000
   196 O8        0.9282   -2.3705   -0.1535   O.3       1 RES1   0.0000
   197 C71       1.1176   -2.9183    1.1425   C.3       1 RES1   0.0000
   198 C72      -0.1462   -2.6541    1.9702   C.2       1 RES1   0.0000
   199 O9       -0.8196   -1.6506    1.6346   O.2       1 RES1   0.0000
   200 N6       -0.4846   -3.4320    2.9835   N.am      1 RES1   0.0000
   201 C73      -1.6664   -3.0717    3.7690   C.3       1 RES1   0.0000
   202 C74      -1.3927   -1.9218    4.7424   C.3       1 RES1   0.0000
   203 C75      -2.6158   -1.6106    5.6152   C.3       1 RES1   0.0000
   204 C76      -3.8096   -1.0830    4.8171   C.3       1 RES1   0.0000
   205 C77      -4.9001   -0.4478    5.6863   C.3       1 RES1   0.0000
   206 C78      -5.6542   -1.4538    6.5463   C.3       1 RES1   0.0000
   207 C79       0.2373   -4.6249    3.4117   C.3       1 RES1   0.0000
   208 C80      -0.5075   -5.9481    3.1851   C.3       1 RES1   0.0000
   209 C81      -0.8957   -6.2664    1.7391   C.3       1 RES1   0.0000
   210 C82      -2.1818   -5.5717    1.2944   C.3       1 RES1   0.0000
   211 C83      -2.6451   -6.0159   -0.0902   C.3       1 RES1   0.0000
   212 C84      -4.0382   -5.4804   -0.3928   C.3       1 RES1   0.0000
   213 H113      0.5264   -1.6223   -8.6586   H         1 RES1   0.0000
   214 H114     -0.1398   -3.0148   -7.8222   H         1 RES1   0.0000
   215 H115     -0.2744   -1.4006   -7.1028   H         1 RES1   0.0000
   216 H116      2.3339   -2.9154   -7.5664   H         1 RES1   0.0000
   217 H117      2.2040   -1.2843   -6.9232   H         1 RES1   0.0000
   218 H118      2.5822   -2.6924   -5.1076   H         1 RES1   0.0000
   219 H119      0.8852   -2.2079   -4.9743   H         1 RES1   0.0000
   220 H120      1.3892   -4.7453   -6.4405   H         1 RES1   0.0000
   221 H121      1.8725   -4.8033   -4.7586   H         1 RES1   0.0000
   222 H122     -0.9132   -3.9941   -5.6760   H         1 RES1   0.0000
   223 H123     -0.4230   -5.6431   -5.3162   H         1 RES1   0.0000
   224 H124     -1.3953   -5.1636   -3.3475   H         1 RES1   0.0000
   225 H125      0.2816   -4.7904   -3.0020   H         1 RES1   0.0000
   226 H126     -2.3814   -1.6053   -3.3771   H         1 RES1   0.0000
   227 H127     -2.1328   -2.6125   -4.8151   H         1 RES1   0.0000
   228 H128     -3.3610   -4.4636   -3.8547   H         1 RES1   0.0000
   229 H129     -3.3143   -3.7230   -2.2440   H         1 RES1   0.0000
   230 H130     -4.9501   -2.7328   -4.6179   H         1 RES1   0.0000
   231 H131     -5.5354   -3.7347   -3.2986   H         1 RES1   0.0000
   232 H132     -4.9065   -1.9067   -1.6748   H         1 RES1   0.0000
   233 H133     -4.5350   -0.8752   -3.0662   H         1 RES1   0.0000
   234 H134     -6.8881   -1.1503   -3.8687   H         1 RES1   0.0000
   235 H135     -7.2465   -2.1171   -2.4458   H         1 RES1   0.0000
   236 H136     -6.3523    0.8063   -2.4187   H         1 RES1   0.0000
   237 H137     -7.9698    0.2080   -2.0874   H         1 RES1   0.0000
   238 H138     -6.6596   -0.1771   -0.9778   H         1 RES1   0.0000
   239 H139     -0.2139   -4.0711   -0.5777   H         1 RES1   0.0000
   240 H140      1.2017   -3.7697   -1.6313   H         1 RES1   0.0000
   241 H141      1.3994   -3.9703    1.0675   H         1 RES1   0.0000
   242 H142      1.9292   -2.3346    1.5990   H         1 RES1   0.0000
   243 H143     -2.4611   -2.7822    3.0784   H         1 RES1   0.0000
   244 H144     -1.9861   -3.9530    4.3219   H         1 RES1   0.0000
   245 H145     -0.5574   -2.1905    5.3946   H         1 RES1   0.0000
   246 H146     -1.1060   -1.0328    4.1701   H         1 RES1   0.0000
   247 H147     -2.9036   -2.5040    6.1695   H         1 RES1   0.0000
   248 H148     -2.3199   -0.8580    6.3481   H         1 RES1   0.0000
   249 H149     -3.4331   -0.3382    4.1104   H         1 RES1   0.0000
   250 H150     -4.2601   -1.8958    4.2457   H         1 RES1   0.0000
   251 H151     -4.4614    0.3145    6.3339   H         1 RES1   0.0000
   252 H152     -5.6221    0.0444    5.0307   H         1 RES1   0.0000
   253 H153     -4.9988   -1.9218    7.2743   H         1 RES1   0.0000
   254 H154     -6.4518   -0.9520    7.0879   H         1 RES1   0.0000
   255 H155     -6.1018   -2.2275    5.9269   H         1 RES1   0.0000
   256 H156      1.2104   -4.6717    2.9228   H         1 RES1   0.0000
   257 H157      0.4125   -4.5196    4.4851   H         1 RES1   0.0000
   258 H158      0.1683   -6.7230    3.5515   H         1 RES1   0.0000
   259 H159     -1.4036   -5.9856    3.8052   H         1 RES1   0.0000
   260 H160     -0.0692   -6.0266    1.0642   H         1 RES1   0.0000
   261 H161     -1.0568   -7.3436    1.6766   H         1 RES1   0.0000
   262 H162     -2.9678   -5.8131    2.0120   H         1 RES1   0.0000
   263 H163     -2.0549   -4.4861    1.2929   H         1 RES1   0.0000
   264 H164     -1.9371   -5.6670   -0.8488   H         1 RES1   0.0000
   265 H165     -2.6653   -7.1039   -0.1396   H         1 RES1   0.0000
   266 H166     -4.0668   -4.3952   -0.2969   H         1 RES1   0.0000
   267 H167     -4.3455   -5.7533   -1.3982   H         1 RES1   0.0000
   268 H168     -4.7626   -5.8979    0.3007   H         1 RES1   0.0000
@<TRIPOS>BOND
     1     1    16    1
     2     1    18    1
     3     1    21    1
     4     1   105    1
     5     1   107    1
     6     1   110    1
     7     1   194    1
     8     1   196    1
     9     1   199    1
    10     2     3    1
    11     2    35    1
    12     2    36    1
    13     2    37    1
    14     3     4    1
    15     3    38    1
    16     3    39    1
    17     4     5    1
    18     4    40    1
    19     4    41    1
    20     5     6    1
    21     5    42    1
    22     5    43    1
    23     6     7    1
    24     6    44    1
    25     6    45    1
    26     7     8    1
    27     7    46    1
    28     7    47    1
    29     8     9    1
    30     8    15    1
    31     9    10    1
    32     9    48    1
    33     9    49    1
    34    10    11    1
    35    10    50    1
    36    10    51    1
    37    11    12    1
    38    11    52    1
    39    11    53    1
    40    12    13    1
    41    12    54    1
    42    12    55    1
    43    13    14    1
    44    13    56    1
    45    13    57    1
    46    14    58    1
    47    14    59    1
    48    14    60    1
    49    15    16    2
    50    15    17    1
    51    17    18    1
    52    17    61    1
    53    17    62    1
    54    18    19    1
    55    19    20    1
    56    19    63    1
    57    19    64    1
    58    20    21    2
    59    20    22    1
    60    22    23    1
    61    22    29    1
    62    23    24    1
    63    23    65    1
    64    23    66    1
    65    24    25    1
    66    24    67    1
    67    24    68    1
    68    25    26    1
    69    25    69    1
    70    25    70    1
    71    26    27    1
    72    26    71    1
    73    26    72    1
    74    27    28    1
    75    27    73    1
    76    27    74    1
    77    28    75    1
    78    28    76    1
    79    28    77    1
    80    29    30    1
    81    29    78    1
    82    29    79    1
    83    30    31    1
    84    30    80    1
    85    30    81    1
    86    31    32    1
    87    31    82    1
    88    31    83    1
    89    32    33    1
    90    32    84    1
    91    32    85    1
    92    33    34    1
    93    33    86    1
    94    33    87    1
    95    34    88    1
    96    34    89    1
    97    34    90    1
    98    91    92    1
    99    91   124    1
   100    91   125    1
   101    91   126    1
   102    92    93    1
   103    92   127    1
   104    92   128    1
   105    93    94    1
   106    93   129    1
   107    93   130    1
   108    94    95    1
   109    94   131    1
   110    94   132    1
   111    95    96    1
   112    95   133    1
   113    95   134    1
   114    96    97    1
   115    96   135    1
   116    96   136    1
   117    97    98    1
   118    97   104    1
   119    98    99    1
   120    98   137    1
   121    98   138    1
   122    99   100    1
   123    99   139    1
   124    99   140    1
   125   100   101    1
   126   100   141    1
   127   100   142    1
   128   101   102    1
   129   101   143    1
   130   101   144    1
   131   102   103    1
   132   102   145    1
   133   102   146    1
   134   103   147    1
   135   103   148    1
   136   103   149    1
   137   104   105    2
   138   104   106    1
   139   106   107    1
   140   106   150    1
   141   106   151    1
   142   107   108    1
   143   108   109    1
   144   108   152    1
   145   108   153    1
   146   109   110    2
   147   109   111    1
   148   111   112    1
   149   111   118    1
   150   112   113    1
   151   112   154    1
   152   112   155    1
   153   113   114    1
   154   113   156    1
   155   113   157    1
   156   114   115    1
   157   114   158    1
   158   114   159    1
   159   115   116    1
   160   115   160    1
   161   115   161    1
   162   116   117    1
   163   116   162    1
   164   116   163    1
   165   117   164    1
   166   117   165    1
   167   117   166    1
   168   118   119    1
   169   118   167    1
   170   118   168    1
   171   119   120    1
   172   119   169    1
   173   119   170    1
   174   120   121    1
   175   120   171    1
   176   120   172    1
   177   121   122    1
   178   121   173    1
   179   121   174    1
   180   122   123    1
   181   122   175    1
   182   122   176    1
   183   123   177    1
   184   123   178    1
   185   123   179    1
   186   180   181    1
   187   180   213    1
   188   180   214    1
   189   180   215    1
   190   181   182    1
   191   181   216    1
   192   181   217    1
   193   182   183    1
   194   182   218    1
   195   182   219    1
   196   183   184    1
   197   183   220    1
   198   183   221    1
   199   184   185    1
   200   184   222    1
   201   184   223    1
   202   185   186    1
   203   185   224    1
   204   185   225    1
   205   186   187    1
   206   186   193    1
   207   187   188    1
   208   187   226    1
   209   187   227    1
   210   188   189    1
   211   188   228    1
   212   188   229    1
   213   189   190    1
   214   189   230    1
   215   189   231    1
   216   190   191    1
   217   190   232    1
   218   190   233    1
   219   191   192    1
   220   191   234    1
   221   191   235    1
   222   192   236    1
   223   192   237    1
   224   192   238    1
   225   193   194    2
   226   193   195    1
   227   195   196    1
   228   195   239    1
   229   195   240    1
   230   196   197    1
   231   197   198    1
   232   197   241    1
   233   197   242    1
   234   198   199    2
   235   198   200    1
   236   200   201    1
   237   200   207    1
   238   201   202    1
   239   201   243    1
   240   201   244    1
   241   202   203    1
   242   202   245    1
   243   202   246    1
   244   203   204    1
   245   203   247    1
   246   203   248    1
   247   204   205    1
   248   204   249    1
   249   204   250    1
   250   205   206    1
   251   205   251    1
   252   205   252    1
   253   206   253    1
   254   206   254    1
   255   206   255    1
   256   207   208    1
   257   207   256    1
   258   207   257    1
   259   208   209    1
   260   208   258    1
   261   208   259    1
   262   209   210    1
   263   209   260    1
   264   209   261    1
   265   210   211    1
   266   210   262    1
   267   210   263    1
   268   211   212    1
   269   211   264    1
   270   211   265    1
   271   212   266    1
   272   212   267    1
   273   212   268    1
@<TRIPOS>SUBSTRUCTURE
     1 RES1      268 GROUP             0 ****  ****    0  
