@<TRIPOS>MOLECULE
cn9_YICLED_0_nunpairedes_0_charge_3 Charge: 3 Unpaired_Electrons: 0 XTB_Unpaired_Electrons: 0 XTB_Charge: 3
   430   435     1     0     0
SMALL
NoCharges
****
Generated from Architector

@<TRIPOS>ATOM
     1 La1      -0.5774   -0.3369   -0.2518   La        1 RES1   0.0000
     2 C1        5.3231   -8.5767    1.1867   C.3       1 RES1   0.0000
     3 C2        5.2401   -8.7069   -0.3272   C.3       1 RES1   0.0000
     4 C3        4.7798   -7.4217   -1.0225   C.3       1 RES1   0.0000
     5 C4        3.2664   -7.1894   -0.9282   C.3       1 RES1   0.0000
     6 C5        2.4948   -8.0660   -1.9159   C.3       1 RES1   0.0000
     7 C6        0.9712   -8.0007   -1.7791   C.3       1 RES1   0.0000
     8 C7        0.4582   -8.4876   -0.4143   C.3       1 RES1   0.0000
     9 C8       -0.0273   -7.3640    0.5060   C.3       1 RES1   0.0000
    10 C9       -1.3662   -6.7812    0.0503   C.3       1 RES1   0.0000
    11 C10      -2.0831   -5.9395    1.1162   C.3       1 RES1   0.0000
    12 N1       -1.4777   -4.6412    1.3760   N.am      1 RES1   0.0000
    13 C11      -0.4350   -4.6175    2.4013   C.3       1 RES1   0.0000
    14 C12      -1.0266   -4.3642    3.7844   C.3       1 RES1   0.0000
    15 C13       0.0423   -4.5425    4.8582   C.3       1 RES1   0.0000
    16 C14      -0.5742   -4.5060    6.2552   C.3       1 RES1   0.0000
    17 C15       0.4668   -4.2850    7.3538   C.3       1 RES1   0.0000
    18 C16       1.3899   -5.4797    7.6421   C.3       1 RES1   0.0000
    19 C17       2.8601   -5.0566    7.7011   C.3       1 RES1   0.0000
    20 C18       3.1766   -4.0541    8.8147   C.3       1 RES1   0.0000
    21 C19       4.5996   -3.4803    8.7442   C.3       1 RES1   0.0000
    22 C20       5.7024   -4.5062    8.5104   C.3       1 RES1   0.0000
    23 C21      -1.7672   -3.4941    0.7648   C.2       1 RES1   0.0000
    24 O1       -1.0858   -2.4739    0.9571   O.2       1 RES1   0.0000
    25 C22      -2.9772   -3.3829   -0.1778   C.3       1 RES1   0.0000
    26 C23      -4.2593   -3.4260    0.6491   C.3       1 RES1   0.0000
    27 O2       -2.7513   -2.1356   -0.8381   O.3       1 RES1   0.0000
    28 C24      -3.7597   -1.6524   -1.7199   C.3       1 RES1   0.0000
    29 C25      -4.8552   -0.8712   -0.9697   C.3       1 RES1   0.0000
    30 C26      -2.9658   -0.7374   -2.6661   C.2       1 RES1   0.0000
    31 O3       -1.8646   -0.2906   -2.2559   O.2       1 RES1   0.0000
    32 N2       -3.4139   -0.4888   -3.8855   N.am      1 RES1   0.0000
    33 C27      -2.5006    0.1299   -4.8479   C.3       1 RES1   0.0000
    34 C28      -2.8250    1.5697   -5.2405   C.3       1 RES1   0.0000
    35 C29      -2.0072    1.9518   -6.4765   C.3       1 RES1   0.0000
    36 C30      -2.1323    3.4147   -6.8987   C.3       1 RES1   0.0000
    37 C31      -3.5665    3.8308   -7.2129   C.3       1 RES1   0.0000
    38 C32      -3.6569    5.2662   -7.7583   C.3       1 RES1   0.0000
    39 C33      -4.1282    6.3149   -6.7486   C.3       1 RES1   0.0000
    40 C34      -3.2166    6.4800   -5.5343   C.3       1 RES1   0.0000
    41 C35      -3.5514    7.7510   -4.7509   C.3       1 RES1   0.0000
    42 C36      -2.7971    7.8516   -3.4251   C.3       1 RES1   0.0000
    43 C37      -4.7956   -0.6942   -4.3201   C.3       1 RES1   0.0000
    44 C38      -4.9810   -1.4585   -5.6326   C.3       1 RES1   0.0000
    45 C39      -4.6453   -2.9438   -5.5094   C.3       1 RES1   0.0000
    46 C40      -5.1499   -3.7616   -6.7126   C.3       1 RES1   0.0000
    47 C41      -5.7671   -5.0908   -6.2681   C.3       1 RES1   0.0000
    48 C42      -7.1274   -4.9084   -5.5931   C.3       1 RES1   0.0000
    49 C43      -7.5963   -6.1437   -4.8243   C.3       1 RES1   0.0000
    50 C44      -6.7658   -6.4018   -3.5680   C.3       1 RES1   0.0000
    51 C45      -7.2986   -7.5809   -2.7574   C.3       1 RES1   0.0000
    52 C46      -6.4533   -7.8341   -1.5130   C.3       1 RES1   0.0000
    53 H1        5.6215   -9.5234    1.6259   H         1 RES1   0.0000
    54 H2        6.0568   -7.8251    1.4643   H         1 RES1   0.0000
    55 H3        4.3637   -8.2973    1.6128   H         1 RES1   0.0000
    56 H4        6.2242   -8.9769   -0.7074   H         1 RES1   0.0000
    57 H5        4.5661   -9.5242   -0.5802   H         1 RES1   0.0000
    58 H6        5.0612   -7.4630   -2.0774   H         1 RES1   0.0000
    59 H7        5.3103   -6.5745   -0.5772   H         1 RES1   0.0000
    60 H8        2.9430   -7.4102    0.0898   H         1 RES1   0.0000
    61 H9        3.0454   -6.1335   -1.1308   H         1 RES1   0.0000
    62 H10       2.7670   -7.7784   -2.9352   H         1 RES1   0.0000
    63 H11       2.7998   -9.1027   -1.7795   H         1 RES1   0.0000
    64 H12       0.6340   -6.9778   -1.9619   H         1 RES1   0.0000
    65 H13       0.5438   -8.6304   -2.5615   H         1 RES1   0.0000
    66 H14      -0.3550   -9.2029   -0.5489   H         1 RES1   0.0000
    67 H15       1.2587   -9.0264    0.0922   H         1 RES1   0.0000
    68 H16      -0.1459   -7.7765    1.5123   H         1 RES1   0.0000
    69 H17       0.7375   -6.5835    0.5349   H         1 RES1   0.0000
    70 H18      -1.2296   -6.1939   -0.8575   H         1 RES1   0.0000
    71 H19      -2.0355   -7.6099   -0.1923   H         1 RES1   0.0000
    72 H20      -3.1210   -5.8139    0.8210   H         1 RES1   0.0000
    73 H21      -2.0829   -6.4966    2.0539   H         1 RES1   0.0000
    74 H22       0.0769   -5.5808    2.3895   H         1 RES1   0.0000
    75 H23       0.2694   -3.8184    2.1619   H         1 RES1   0.0000
    76 H24      -1.4235   -3.3484    3.8353   H         1 RES1   0.0000
    77 H25      -1.8542   -5.0532    3.9675   H         1 RES1   0.0000
    78 H26       0.5609   -5.4893    4.7085   H         1 RES1   0.0000
    79 H27       0.7801   -3.7425    4.7721   H         1 RES1   0.0000
    80 H28      -1.2945   -3.6826    6.2851   H         1 RES1   0.0000
    81 H29      -1.1285   -5.4257    6.4467   H         1 RES1   0.0000
    82 H30       1.0838   -3.4365    7.0510   H         1 RES1   0.0000
    83 H31      -0.0520   -4.0003    8.2692   H         1 RES1   0.0000
    84 H32       1.1056   -5.9537    8.5817   H         1 RES1   0.0000
    85 H33       1.2918   -6.2412    6.8664   H         1 RES1   0.0000
    86 H34       3.4723   -5.9488    7.8397   H         1 RES1   0.0000
    87 H35       3.1359   -4.6219    6.7355   H         1 RES1   0.0000
    88 H36       2.4866   -3.2057    8.7686   H         1 RES1   0.0000
    89 H37       3.0234   -4.5352    9.7833   H         1 RES1   0.0000
    90 H38       4.6472   -2.7383    7.9413   H         1 RES1   0.0000
    91 H39       4.7983   -2.9639    9.6851   H         1 RES1   0.0000
    92 H40       5.5929   -5.3870    9.1383   H         1 RES1   0.0000
    93 H41       5.7019   -4.8327    7.4751   H         1 RES1   0.0000
    94 H42       6.6737   -4.0618    8.7228   H         1 RES1   0.0000
    95 H43      -2.9811   -4.1879   -0.9219   H         1 RES1   0.0000
    96 H44      -4.3327   -2.5309    1.2546   H         1 RES1   0.0000
    97 H45      -5.1318   -3.5208    0.0115   H         1 RES1   0.0000
    98 H46      -4.2575   -4.2786    1.3163   H         1 RES1   0.0000
    99 H47      -4.1783   -2.4834   -2.3031   H         1 RES1   0.0000
   100 H48      -4.4389   -0.5070   -0.0307   H         1 RES1   0.0000
   101 H49      -5.2159   -0.0257   -1.5516   H         1 RES1   0.0000
   102 H50      -5.7100   -1.5006   -0.7402   H         1 RES1   0.0000
   103 H51      -1.4988    0.0814   -4.4137   H         1 RES1   0.0000
   104 H52      -2.5178   -0.4843   -5.7494   H         1 RES1   0.0000
   105 H53      -3.8803    1.6612   -5.4871   H         1 RES1   0.0000
   106 H54      -2.6066    2.2322   -4.4026   H         1 RES1   0.0000
   107 H55      -0.9569    1.7246   -6.2975   H         1 RES1   0.0000
   108 H56      -2.3333    1.3260   -7.3080   H         1 RES1   0.0000
   109 H57      -1.7213    4.0768   -6.1432   H         1 RES1   0.0000
   110 H58      -1.5260    3.5552   -7.7950   H         1 RES1   0.0000
   111 H59      -3.9547    3.1366   -7.9606   H         1 RES1   0.0000
   112 H60      -4.1956    3.7447   -6.3237   H         1 RES1   0.0000
   113 H61      -2.6828    5.5669   -8.1512   H         1 RES1   0.0000
   114 H62      -4.3606    5.2789   -8.5921   H         1 RES1   0.0000
   115 H63      -4.1872    7.2723   -7.2710   H         1 RES1   0.0000
   116 H64      -5.1336    6.0631   -6.4037   H         1 RES1   0.0000
   117 H65      -3.3193    5.6182   -4.8695   H         1 RES1   0.0000
   118 H66      -2.1787    6.5345   -5.8687   H         1 RES1   0.0000
   119 H67      -3.3011    8.6182   -5.3652   H         1 RES1   0.0000
   120 H68      -4.6271    7.7857   -4.5564   H         1 RES1   0.0000
   121 H69      -1.7187    7.8514   -3.5906   H         1 RES1   0.0000
   122 H70      -3.0652    8.7751   -2.9126   H         1 RES1   0.0000
   123 H71      -3.0458    7.0110   -2.7742   H         1 RES1   0.0000
   124 H72      -5.3541   -1.2242   -3.5500   H         1 RES1   0.0000
   125 H73      -5.2459    0.2973   -4.4269   H         1 RES1   0.0000
   126 H74      -6.0396   -1.3799   -5.8878   H         1 RES1   0.0000
   127 H75      -4.4198   -1.0026   -6.4461   H         1 RES1   0.0000
   128 H76      -3.5684   -3.0849   -5.3724   H         1 RES1   0.0000
   129 H77      -5.1401   -3.3333   -4.6159   H         1 RES1   0.0000
   130 H78      -5.9004   -3.1878   -7.2587   H         1 RES1   0.0000
   131 H79      -4.3311   -3.9483   -7.4090   H         1 RES1   0.0000
   132 H80      -5.8883   -5.7379   -7.1350   H         1 RES1   0.0000
   133 H81      -5.0691   -5.5847   -5.5925   H         1 RES1   0.0000
   134 H82      -7.0943   -4.0641   -4.8978   H         1 RES1   0.0000
   135 H83      -7.8664   -4.6674   -6.3569   H         1 RES1   0.0000
   136 H84      -8.6354   -5.9922   -4.5249   H         1 RES1   0.0000
   137 H85      -7.5653   -7.0280   -5.4638   H         1 RES1   0.0000
   138 H86      -5.7288   -6.6127   -3.8387   H         1 RES1   0.0000
   139 H87      -6.7735   -5.5034   -2.9382   H         1 RES1   0.0000
   140 H88      -8.3281   -7.3713   -2.4616   H         1 RES1   0.0000
   141 H89      -7.3076   -8.4753   -3.3839   H         1 RES1   0.0000
   142 H90      -6.4547   -6.9530   -0.8706   H         1 RES1   0.0000
   143 H91      -6.8539   -8.6703   -0.9461   H         1 RES1   0.0000
   144 H92      -5.4242   -8.0637   -1.7902   H         1 RES1   0.0000
   145 C47       2.7950    3.7504   -7.3751   C.3       1 RES1   0.0000
   146 C48       3.3339    5.0099   -8.0408   C.3       1 RES1   0.0000
   147 C49       3.1540    6.2824   -7.1926   C.3       1 RES1   0.0000
   148 C50       4.4240    6.8189   -6.5093   C.3       1 RES1   0.0000
   149 C51       4.6217    6.3167   -5.0754   C.3       1 RES1   0.0000
   150 C52       3.7312    7.0440   -4.0719   C.3       1 RES1   0.0000
   151 C53       3.7393    6.3426   -2.7207   C.3       1 RES1   0.0000
   152 C54       2.6794    6.9432   -1.8067   C.3       1 RES1   0.0000
   153 C55       2.6358    6.3429   -0.4017   C.3       1 RES1   0.0000
   154 C56       2.3751    4.8309   -0.4072   C.3       1 RES1   0.0000
   155 N3        1.5722    4.3806    0.7334   N.am      1 RES1   0.0000
   156 C57       1.8261    5.0040    2.0367   C.3       1 RES1   0.0000
   157 C58       3.3338    4.9824    2.4118   C.3       1 RES1   0.0000
   158 C59       3.6277    4.8001    3.9253   C.3       1 RES1   0.0000
   159 C60       4.7342    3.7710    4.2901   C.3       1 RES1   0.0000
   160 C61       4.2912    2.6275    5.2267   C.3       1 RES1   0.0000
   161 C62       5.1965    1.3887    5.1683   C.3       1 RES1   0.0000
   162 C63       4.6808    0.2275    6.0443   C.3       1 RES1   0.0000
   163 C64       4.5968   -1.1238    5.3244   C.3       1 RES1   0.0000
   164 C65       5.9852   -1.6845    5.0399   C.3       1 RES1   0.0000
   165 C66       6.0241   -3.1427    4.5923   C.3       1 RES1   0.0000
   166 C67       0.6897    3.3796    0.5065   C.2       1 RES1   0.0000
   167 O4        0.9051    2.4279   -0.2611   O.2       1 RES1   0.0000
   168 C68      -0.7304    3.5506    1.0569   C.3       1 RES1   0.0000
   169 C69      -1.3514    4.7088    0.2674   C.3       1 RES1   0.0000
   170 O5       -1.3829    2.2968    0.8487   O.3       1 RES1   0.0000
   171 C70      -2.7488    2.2385    1.2960   C.3       1 RES1   0.0000
   172 C71      -3.6739    2.3278    0.0784   C.3       1 RES1   0.0000
   173 C72      -2.8133    0.8611    1.9944   C.2       1 RES1   0.0000
   174 O6       -2.2565   -0.0785    1.3908   O.2       1 RES1   0.0000
   175 N4       -3.3170    0.7356    3.2206   N.am      1 RES1   0.0000
   176 C73      -4.4885    1.4915    3.6532   C.3       1 RES1   0.0000
   177 C74      -5.6392    0.6131    4.1846   C.3       1 RES1   0.0000
   178 C75      -6.1510   -0.5270    3.2704   C.3       1 RES1   0.0000
   179 C76      -5.8539   -1.9165    3.8570   C.3       1 RES1   0.0000
   180 C77      -6.6203   -3.1053    3.2686   C.3       1 RES1   0.0000
   181 C78      -5.9564   -4.3927    3.7807   C.3       1 RES1   0.0000
   182 C79      -6.2860   -5.6790    3.0195   C.3       1 RES1   0.0000
   183 C80      -5.3054   -6.7890    3.4149   C.3       1 RES1   0.0000
   184 C81      -5.4134   -8.0356    2.5411   C.3       1 RES1   0.0000
   185 C82      -4.4816   -9.1341    3.0290   C.3       1 RES1   0.0000
   186 C83      -2.8395   -0.3308    4.1016   C.3       1 RES1   0.0000
   187 C84      -2.3123    0.1845    5.4411   C.3       1 RES1   0.0000
   188 C85      -2.2680   -0.9036    6.5130   C.3       1 RES1   0.0000
   189 C86      -1.1622   -0.5698    7.5189   C.3       1 RES1   0.0000
   190 C87      -1.4326   -1.0419    8.9459   C.3       1 RES1   0.0000
   191 C88      -0.1745   -0.9215    9.8172   C.3       1 RES1   0.0000
   192 C89      -0.5201   -0.8117   11.3033   C.3       1 RES1   0.0000
   193 C90       0.6565   -1.0526   12.2528   C.3       1 RES1   0.0000
   194 C91       1.8183   -0.0599   12.1357   C.3       1 RES1   0.0000
   195 C92       2.9277   -0.5000   11.1870   C.3       1 RES1   0.0000
   196 H93       3.2699    3.5746   -6.4119   H         1 RES1   0.0000
   197 H94       1.7221    3.8507   -7.2288   H         1 RES1   0.0000
   198 H95       2.9478    2.8922   -8.0246   H         1 RES1   0.0000
   199 H96       4.3884    4.8838   -8.2853   H         1 RES1   0.0000
   200 H97       2.7979    5.1321   -8.9844   H         1 RES1   0.0000
   201 H98       2.7542    7.0700   -7.8318   H         1 RES1   0.0000
   202 H99       2.4065    6.0926   -6.4205   H         1 RES1   0.0000
   203 H100      5.2984    6.5651   -7.1097   H         1 RES1   0.0000
   204 H101      4.3737    7.9094   -6.4757   H         1 RES1   0.0000
   205 H102      4.4173    5.2424   -5.0401   H         1 RES1   0.0000
   206 H103      5.6564    6.4672   -4.7672   H         1 RES1   0.0000
   207 H104      4.0738    8.0719   -3.9426   H         1 RES1   0.0000
   208 H105      2.7085    7.0604   -4.4529   H         1 RES1   0.0000
   209 H106      3.5249    5.2859   -2.8883   H         1 RES1   0.0000
   210 H107      4.7268    6.4207   -2.2611   H         1 RES1   0.0000
   211 H108      2.8858    8.0093   -1.6965   H         1 RES1   0.0000
   212 H109      1.7030    6.8340   -2.2833   H         1 RES1   0.0000
   213 H110      3.5950    6.5539    0.0694   H         1 RES1   0.0000
   214 H111      1.8525    6.8626    0.1537   H         1 RES1   0.0000
   215 H112      1.8026    4.5745   -1.2997   H         1 RES1   0.0000
   216 H113      3.3219    4.2938   -0.4560   H         1 RES1   0.0000
   217 H114      1.4712    6.0392    2.0671   H         1 RES1   0.0000
   218 H115      1.2723    4.4471    2.7872   H         1 RES1   0.0000
   219 H116      3.8235    4.1914    1.8453   H         1 RES1   0.0000
   220 H117      3.7880    5.9222    2.1008   H         1 RES1   0.0000
   221 H118      2.7082    4.5399    4.4504   H         1 RES1   0.0000
   222 H119      3.9132    5.7746    4.3248   H         1 RES1   0.0000
   223 H120      5.1537    3.3481    3.3761   H         1 RES1   0.0000
   224 H121      5.5559    4.2970    4.7744   H         1 RES1   0.0000
   225 H122      4.2614    2.9885    6.2554   H         1 RES1   0.0000
   226 H123      3.2910    2.2832    4.9785   H         1 RES1   0.0000
   227 H124      5.2444    1.0367    4.1392   H         1 RES1   0.0000
   228 H125      6.2113    1.6512    5.4610   H         1 RES1   0.0000
   229 H126      5.3264    0.1049    6.9152   H         1 RES1   0.0000
   230 H127      3.6898    0.4714    6.4270   H         1 RES1   0.0000
   231 H128      4.0264   -1.8207    5.9433   H         1 RES1   0.0000
   232 H129      4.0477   -1.0232    4.3842   H         1 RES1   0.0000
   233 H130      6.4439   -1.0597    4.2716   H         1 RES1   0.0000
   234 H131      6.5850   -1.6168    5.9476   H         1 RES1   0.0000
   235 H132      5.4938   -3.7823    5.2972   H         1 RES1   0.0000
   236 H133      5.5874   -3.2779    3.6007   H         1 RES1   0.0000
   237 H134      7.0580   -3.4870    4.5598   H         1 RES1   0.0000
   238 H135     -0.7492    3.8123    2.1185   H         1 RES1   0.0000
   239 H136     -1.3328    4.4775   -0.7944   H         1 RES1   0.0000
   240 H137     -2.3775    4.8997    0.5772   H         1 RES1   0.0000
   241 H138     -0.7787    5.6154    0.4420   H         1 RES1   0.0000
   242 H139     -2.9363    3.0511    2.0053   H         1 RES1   0.0000
   243 H140     -3.3856    1.5393   -0.6239   H         1 RES1   0.0000
   244 H141     -4.7221    2.2234    0.3612   H         1 RES1   0.0000
   245 H142     -3.5404    3.2842   -0.4251   H         1 RES1   0.0000
   246 H143     -4.2078    2.1876    4.4485   H         1 RES1   0.0000
   247 H144     -4.8480    2.0690    2.8018   H         1 RES1   0.0000
   248 H145     -5.3499    0.1994    5.1519   H         1 RES1   0.0000
   249 H146     -6.4504    1.3167    4.3750   H         1 RES1   0.0000
   250 H147     -7.2317   -0.4329    3.1526   H         1 RES1   0.0000
   251 H148     -5.7090   -0.4414    2.2716   H         1 RES1   0.0000
   252 H149     -4.7961   -2.1491    3.7162   H         1 RES1   0.0000
   253 H150     -6.0491   -1.8938    4.9313   H         1 RES1   0.0000
   254 H151     -7.6646   -3.0681    3.5772   H         1 RES1   0.0000
   255 H152     -6.5877   -3.0682    2.1772   H         1 RES1   0.0000
   256 H153     -4.8699   -4.2500    3.7388   H         1 RES1   0.0000
   257 H154     -6.2151   -4.5313    4.8315   H         1 RES1   0.0000
   258 H155     -7.3059   -5.9969    3.2410   H         1 RES1   0.0000
   259 H156     -6.2248   -5.5020    1.9407   H         1 RES1   0.0000
   260 H157     -4.2809   -6.4011    3.3542   H         1 RES1   0.0000
   261 H158     -5.4857   -7.0665    4.4552   H         1 RES1   0.0000
   262 H159     -6.4395   -8.4000    2.5626   H         1 RES1   0.0000
   263 H160     -5.1732   -7.7820    1.5055   H         1 RES1   0.0000
   264 H161     -4.7482   -9.4364    4.0349   H         1 RES1   0.0000
   265 H162     -4.5515  -10.0096    2.3950   H         1 RES1   0.0000
   266 H163     -3.4478   -8.7989    3.0426   H         1 RES1   0.0000
   267 H164     -3.6498   -1.0132    4.3183   H         1 RES1   0.0000
   268 H165     -2.0563   -0.8666    3.5618   H         1 RES1   0.0000
   269 H166     -1.2978    0.5426    5.3187   H         1 RES1   0.0000
   270 H167     -2.9206    1.0111    5.8019   H         1 RES1   0.0000
   271 H168     -3.2287   -0.9886    7.0171   H         1 RES1   0.0000
   272 H169     -2.0592   -1.8637    6.0446   H         1 RES1   0.0000
   273 H170     -0.2195   -0.9904    7.1628   H         1 RES1   0.0000
   274 H171     -1.0380    0.5136    7.5559   H         1 RES1   0.0000
   275 H172     -2.2233   -0.4248    9.3801   H         1 RES1   0.0000
   276 H173     -1.7833   -2.0755    8.9508   H         1 RES1   0.0000
   277 H174      0.4692   -1.7903    9.6583   H         1 RES1   0.0000
   278 H175      0.3838   -0.0318    9.5166   H         1 RES1   0.0000
   279 H176     -0.9437    0.1776   11.4950   H         1 RES1   0.0000
   280 H177     -1.2979   -1.5451   11.5324   H         1 RES1   0.0000
   281 H178      0.2580   -0.9979   13.2666   H         1 RES1   0.0000
   282 H179      1.0296   -2.0670   12.1072   H         1 RES1   0.0000
   283 H180      1.4394    0.9154   11.8284   H         1 RES1   0.0000
   284 H181      2.2585    0.0703   13.1247   H         1 RES1   0.0000
   285 H182      2.5818   -0.5687   10.1591   H         1 RES1   0.0000
   286 H183      3.7524    0.2089   11.2235   H         1 RES1   0.0000
   287 H184      3.3079   -1.4766   11.4753   H         1 RES1   0.0000
   288 C93      -0.5619    4.6404   -3.8437   C.3       1 RES1   0.0000
   289 C94       0.7288    3.9001   -4.1641   C.3       1 RES1   0.0000
   290 C95       0.7547    2.5139   -3.5306   C.3       1 RES1   0.0000
   291 C96       2.0881    1.7915   -3.7161   C.3       1 RES1   0.0000
   292 C97       3.2414    2.4534   -2.9553   C.3       1 RES1   0.0000
   293 C98       4.3985    1.5009   -2.6675   C.3       1 RES1   0.0000
   294 C99       5.4811    2.0303   -1.7168   C.3       1 RES1   0.0000
   295 C100      5.1078    2.2477   -0.2367   C.3       1 RES1   0.0000
   296 C101      4.0799    1.2339    0.2566   C.3       1 RES1   0.0000
   297 C102      3.8565    1.2116    1.7731   C.3       1 RES1   0.0000
   298 N5        2.5008    0.8293    2.1795   N.am      1 RES1   0.0000
   299 C103      1.6951    1.8044    2.9298   C.3       1 RES1   0.0000
   300 C104      1.0542    1.3087    4.2383   C.3       1 RES1   0.0000
   301 C105      0.6009    2.4585    5.1693   C.3       1 RES1   0.0000
   302 C106     -0.6894    3.1535    4.7293   C.3       1 RES1   0.0000
   303 C107     -1.2224    4.2321    5.6881   C.3       1 RES1   0.0000
   304 C108     -0.8479    5.6614    5.2788   C.3       1 RES1   0.0000
   305 C109     -1.5086    6.1383    3.9703   C.3       1 RES1   0.0000
   306 C110     -2.4582    7.3313    4.1286   C.3       1 RES1   0.0000
   307 C111     -3.8347    6.9726    4.6828   C.3       1 RES1   0.0000
   308 C112     -4.7237    6.2468    3.6816   C.3       1 RES1   0.0000
   309 C113      1.8004   -0.1399    1.6040   C.2       1 RES1   0.0000
   310 O7        0.5544   -0.1443    1.6850   O.2       1 RES1   0.0000
   311 C114      2.4839   -1.2846    0.8594   C.3       1 RES1   0.0000
   312 C115      3.4047   -2.0825    1.7814   C.3       1 RES1   0.0000
   313 O8        1.4320   -2.0910    0.3181   O.3       1 RES1   0.0000
   314 C116      1.9145   -2.9126   -0.7401   C.3       1 RES1   0.0000
   315 C117      0.8008   -3.8438   -1.2115   C.3       1 RES1   0.0000
   316 C118      2.2345   -1.9698   -1.9103   C.2       1 RES1   0.0000
   317 O9        1.4142   -1.0350   -2.0677   O.2       1 RES1   0.0000
   318 N6        3.2754   -2.1951   -2.6956   N.am      1 RES1   0.0000
   319 C119      3.3295   -1.5685   -4.0173   C.3       1 RES1   0.0000
   320 C120      2.2925   -2.1463   -4.9729   C.3       1 RES1   0.0000
   321 C121      2.5584   -3.6190   -5.2408   C.3       1 RES1   0.0000
   322 C122      1.5548   -4.2696   -6.1802   C.3       1 RES1   0.0000
   323 C123      1.8029   -5.7773   -6.2249   C.3       1 RES1   0.0000
   324 C124      0.6577   -6.5708   -6.8567   C.3       1 RES1   0.0000
   325 C125     -0.3222   -7.1516   -5.8376   C.3       1 RES1   0.0000
   326 C126     -1.0978   -6.1105   -5.0340   C.3       1 RES1   0.0000
   327 C127     -2.1490   -6.7628   -4.1382   C.3       1 RES1   0.0000
   328 C128     -2.8372   -5.7402   -3.2402   C.3       1 RES1   0.0000
   329 C129      4.4064   -3.0584   -2.3709   C.3       1 RES1   0.0000
   330 C130      5.7458   -2.2843   -2.3585   C.3       1 RES1   0.0000
   331 C131      6.4009   -2.0740   -0.9878   C.3       1 RES1   0.0000
   332 C132      7.8371   -1.5702   -1.1759   C.3       1 RES1   0.0000
   333 C133      8.5454   -1.2023    0.1272   C.3       1 RES1   0.0000
   334 C134      8.7748   -2.4010    1.0463   C.3       1 RES1   0.0000
   335 C135      9.8801   -2.1624    2.0732   C.3       1 RES1   0.0000
   336 C136      9.4913   -1.1759    3.1700   C.3       1 RES1   0.0000
   337 C137     10.6006   -1.0194    4.2092   C.3       1 RES1   0.0000
   338 C138     10.1589   -0.1626    5.3913   C.3       1 RES1   0.0000
   339 H185     -1.4284    4.1225   -4.2529   H         1 RES1   0.0000
   340 H186     -0.7066    4.7172   -2.7660   H         1 RES1   0.0000
   341 H187     -0.5513    5.6494   -4.2527   H         1 RES1   0.0000
   342 H188      0.8477    3.8061   -5.2423   H         1 RES1   0.0000
   343 H189      1.5753    4.4854   -3.8133   H         1 RES1   0.0000
   344 H190      0.5465    2.5684   -2.4554   H         1 RES1   0.0000
   345 H191     -0.0374    1.9064   -3.9791   H         1 RES1   0.0000
   346 H192      1.9385    0.7908   -3.3149   H         1 RES1   0.0000
   347 H193      2.3138    1.7201   -4.7800   H         1 RES1   0.0000
   348 H194      3.6142    3.3191   -3.5006   H         1 RES1   0.0000
   349 H195      2.8399    2.7962   -2.0071   H         1 RES1   0.0000
   350 H196      3.9801    0.5844   -2.2506   H         1 RES1   0.0000
   351 H197      4.9083    1.2506   -3.6009   H         1 RES1   0.0000
   352 H198      6.3021    1.3096   -1.7383   H         1 RES1   0.0000
   353 H199      5.8651    2.9712   -2.1114   H         1 RES1   0.0000
   354 H200      6.0175    2.1557    0.3585   H         1 RES1   0.0000
   355 H201      4.7353    3.2550   -0.0782   H         1 RES1   0.0000
   356 H202      3.1208    1.4266   -0.2265   H         1 RES1   0.0000
   357 H203      4.4636    0.2719   -0.0718   H         1 RES1   0.0000
   358 H204      4.5953    0.5656    2.2505   H         1 RES1   0.0000
   359 H205      3.9973    2.2112    2.1701   H         1 RES1   0.0000
   360 H206      2.3385    2.6460    3.1392   H         1 RES1   0.0000
   361 H207      0.8856    2.1048    2.2646   H         1 RES1   0.0000
   362 H208      0.1901    0.6928    3.9852   H         1 RES1   0.0000
   363 H209      1.7657    0.6795    4.7779   H         1 RES1   0.0000
   364 H210      0.4623    2.0524    6.1725   H         1 RES1   0.0000
   365 H211      1.3904    3.2056    5.2423   H         1 RES1   0.0000
   366 H212     -0.4873    3.6285    3.7772   H         1 RES1   0.0000
   367 H213     -1.4622    2.4063    4.5569   H         1 RES1   0.0000
   368 H214     -2.3118    4.1716    5.7222   H         1 RES1   0.0000
   369 H215     -0.8484    4.0336    6.6934   H         1 RES1   0.0000
   370 H216     -1.1382    6.3303    6.0864   H         1 RES1   0.0000
   371 H217      0.2375    5.7368    5.1970   H         1 RES1   0.0000
   372 H218     -0.7270    6.4247    3.2615   H         1 RES1   0.0000
   373 H219     -2.0628    5.3082    3.5285   H         1 RES1   0.0000
   374 H220     -1.9859    8.0750    4.7719   H         1 RES1   0.0000
   375 H221     -2.5900    7.7924    3.1484   H         1 RES1   0.0000
   376 H222     -3.7198    6.3729    5.5847   H         1 RES1   0.0000
   377 H223     -4.3308    7.8974    4.9679   H         1 RES1   0.0000
   378 H224     -4.3500    5.2502    3.4541   H         1 RES1   0.0000
   379 H225     -5.7278    6.1511    4.0812   H         1 RES1   0.0000
   380 H226     -4.7896    6.8063    2.7529   H         1 RES1   0.0000
   381 H227      3.0652   -0.8753    0.0265   H         1 RES1   0.0000
   382 H228      2.8167   -2.7139    2.4426   H         1 RES1   0.0000
   383 H229      4.0016   -1.4054    2.3820   H         1 RES1   0.0000
   384 H230      4.0923   -2.7039    1.2133   H         1 RES1   0.0000
   385 H231      2.7579   -3.5062   -0.3777   H         1 RES1   0.0000
   386 H232      1.1461   -4.4297   -2.0584   H         1 RES1   0.0000
   387 H233      0.5055   -4.5204   -0.4152   H         1 RES1   0.0000
   388 H234     -0.0719   -3.2631   -1.5236   H         1 RES1   0.0000
   389 H235      3.1823   -0.5004   -3.9038   H         1 RES1   0.0000
   390 H236      4.3167   -1.7487   -4.4298   H         1 RES1   0.0000
   391 H237      1.2883   -2.0043   -4.5763   H         1 RES1   0.0000
   392 H238      2.3477   -1.5875   -5.9038   H         1 RES1   0.0000
   393 H239      3.5590   -3.7352   -5.6568   H         1 RES1   0.0000
   394 H240      2.5251   -4.1628   -4.2952   H         1 RES1   0.0000
   395 H241      0.5449   -4.0596   -5.8291   H         1 RES1   0.0000
   396 H242      1.6520   -3.8471   -7.1796   H         1 RES1   0.0000
   397 H243      2.7263   -5.9570   -6.7769   H         1 RES1   0.0000
   398 H244      1.9621   -6.1444   -5.2076   H         1 RES1   0.0000
   399 H245      0.1249   -5.9347   -7.5616   H         1 RES1   0.0000
   400 H246      1.0709   -7.4028   -7.4255   H         1 RES1   0.0000
   401 H247     -1.0382   -7.7814   -6.3671   H         1 RES1   0.0000
   402 H248      0.2324   -7.7918   -5.1479   H         1 RES1   0.0000
   403 H249     -0.4089   -5.5427   -4.4026   H         1 RES1   0.0000
   404 H250     -1.5927   -5.4109   -5.7130   H         1 RES1   0.0000
   405 H251     -2.8979   -7.2622   -4.7549   H         1 RES1   0.0000
   406 H252     -1.6721   -7.5236   -3.5175   H         1 RES1   0.0000
   407 H253     -3.3637   -5.0009   -3.8395   H         1 RES1   0.0000
   408 H254     -3.5536   -6.2248   -2.5800   H         1 RES1   0.0000
   409 H255     -2.1006   -5.2166   -2.6285   H         1 RES1   0.0000
   410 H256      4.2640   -3.5460   -1.4090   H         1 RES1   0.0000
   411 H257      4.4615   -3.8496   -3.1205   H         1 RES1   0.0000
   412 H258      6.4631   -2.8316   -2.9726   H         1 RES1   0.0000
   413 H259      5.6056   -1.3043   -2.8157   H         1 RES1   0.0000
   414 H260      5.8364   -1.3439   -0.3976   H         1 RES1   0.0000
   415 H261      6.4276   -3.0090   -0.4264   H         1 RES1   0.0000
   416 H262      8.4201   -2.3358   -1.6910   H         1 RES1   0.0000
   417 H263      7.8121   -0.6926   -1.8255   H         1 RES1   0.0000
   418 H264      9.5121   -0.7686   -0.1329   H         1 RES1   0.0000
   419 H265      7.9673   -0.4342    0.6439   H         1 RES1   0.0000
   420 H266      7.8516   -2.6510    1.5747   H         1 RES1   0.0000
   421 H267      9.0539   -3.2597    0.4339   H         1 RES1   0.0000
   422 H268     10.1291   -3.1151    2.5422   H         1 RES1   0.0000
   423 H269     10.7799   -1.8055    1.5712   H         1 RES1   0.0000
   424 H270      9.2718   -0.1969    2.7383   H         1 RES1   0.0000
   425 H271      8.5877   -1.5353    3.6675   H         1 RES1   0.0000
   426 H272     10.8952   -2.0062    4.5722   H         1 RES1   0.0000
   427 H273     11.4765   -0.5700    3.7372   H         1 RES1   0.0000
   428 H274      9.3095   -0.6226    5.8952   H         1 RES1   0.0000
   429 H275     10.9691   -0.0591    6.1098   H         1 RES1   0.0000
   430 H276      9.8645    0.8318    5.0580   H         1 RES1   0.0000
@<TRIPOS>BOND
     1     1    24    1
     2     1    27    1
     3     1    31    1
     4     1   167    1
     5     1   170    1
     6     1   174    1
     7     1   310    1
     8     1   313    1
     9     1   317    1
    10     2     3    1
    11     2    53    1
    12     2    54    1
    13     2    55    1
    14     3     4    1
    15     3    56    1
    16     3    57    1
    17     4     5    1
    18     4    58    1
    19     4    59    1
    20     5     6    1
    21     5    60    1
    22     5    61    1
    23     6     7    1
    24     6    62    1
    25     6    63    1
    26     7     8    1
    27     7    64    1
    28     7    65    1
    29     8     9    1
    30     8    66    1
    31     8    67    1
    32     9    10    1
    33     9    68    1
    34     9    69    1
    35    10    11    1
    36    10    70    1
    37    10    71    1
    38    11    12    1
    39    11    72    1
    40    11    73    1
    41    12    13    1
    42    12    23    1
    43    13    14    1
    44    13    74    1
    45    13    75    1
    46    14    15    1
    47    14    76    1
    48    14    77    1
    49    15    16    1
    50    15    78    1
    51    15    79    1
    52    16    17    1
    53    16    80    1
    54    16    81    1
    55    17    18    1
    56    17    82    1
    57    17    83    1
    58    18    19    1
    59    18    84    1
    60    18    85    1
    61    19    20    1
    62    19    86    1
    63    19    87    1
    64    20    21    1
    65    20    88    1
    66    20    89    1
    67    21    22    1
    68    21    90    1
    69    21    91    1
    70    22    92    1
    71    22    93    1
    72    22    94    1
    73    23    24    2
    74    23    25    1
    75    25    26    1
    76    25    27    1
    77    25    95    1
    78    26    96    1
    79    26    97    1
    80    26    98    1
    81    27    28    1
    82    28    29    1
    83    28    30    1
    84    28    99    1
    85    29   100    1
    86    29   101    1
    87    29   102    1
    88    30    31    2
    89    30    32    1
    90    32    33    1
    91    32    43    1
    92    33    34    1
    93    33   103    1
    94    33   104    1
    95    34    35    1
    96    34   105    1
    97    34   106    1
    98    35    36    1
    99    35   107    1
   100    35   108    1
   101    36    37    1
   102    36   109    1
   103    36   110    1
   104    37    38    1
   105    37   111    1
   106    37   112    1
   107    38    39    1
   108    38   113    1
   109    38   114    1
   110    39    40    1
   111    39   115    1
   112    39   116    1
   113    40    41    1
   114    40   117    1
   115    40   118    1
   116    41    42    1
   117    41   119    1
   118    41   120    1
   119    42   121    1
   120    42   122    1
   121    42   123    1
   122    43    44    1
   123    43   124    1
   124    43   125    1
   125    44    45    1
   126    44   126    1
   127    44   127    1
   128    45    46    1
   129    45   128    1
   130    45   129    1
   131    46    47    1
   132    46   130    1
   133    46   131    1
   134    47    48    1
   135    47   132    1
   136    47   133    1
   137    48    49    1
   138    48   134    1
   139    48   135    1
   140    49    50    1
   141    49   136    1
   142    49   137    1
   143    50    51    1
   144    50   138    1
   145    50   139    1
   146    51    52    1
   147    51   140    1
   148    51   141    1
   149    52   142    1
   150    52   143    1
   151    52   144    1
   152   145   146    1
   153   145   196    1
   154   145   197    1
   155   145   198    1
   156   146   147    1
   157   146   199    1
   158   146   200    1
   159   147   148    1
   160   147   201    1
   161   147   202    1
   162   148   149    1
   163   148   203    1
   164   148   204    1
   165   149   150    1
   166   149   205    1
   167   149   206    1
   168   150   151    1
   169   150   207    1
   170   150   208    1
   171   151   152    1
   172   151   209    1
   173   151   210    1
   174   152   153    1
   175   152   211    1
   176   152   212    1
   177   153   154    1
   178   153   213    1
   179   153   214    1
   180   154   155    1
   181   154   215    1
   182   154   216    1
   183   155   156    1
   184   155   166    1
   185   156   157    1
   186   156   217    1
   187   156   218    1
   188   157   158    1
   189   157   219    1
   190   157   220    1
   191   158   159    1
   192   158   221    1
   193   158   222    1
   194   159   160    1
   195   159   223    1
   196   159   224    1
   197   160   161    1
   198   160   225    1
   199   160   226    1
   200   161   162    1
   201   161   227    1
   202   161   228    1
   203   162   163    1
   204   162   229    1
   205   162   230    1
   206   163   164    1
   207   163   231    1
   208   163   232    1
   209   164   165    1
   210   164   233    1
   211   164   234    1
   212   165   235    1
   213   165   236    1
   214   165   237    1
   215   166   167    2
   216   166   168    1
   217   168   169    1
   218   168   170    1
   219   168   238    1
   220   169   239    1
   221   169   240    1
   222   169   241    1
   223   170   171    1
   224   171   172    1
   225   171   173    1
   226   171   242    1
   227   172   243    1
   228   172   244    1
   229   172   245    1
   230   173   174    2
   231   173   175    1
   232   175   176    1
   233   175   186    1
   234   176   177    1
   235   176   246    1
   236   176   247    1
   237   177   178    1
   238   177   248    1
   239   177   249    1
   240   178   179    1
   241   178   250    1
   242   178   251    1
   243   179   180    1
   244   179   252    1
   245   179   253    1
   246   180   181    1
   247   180   254    1
   248   180   255    1
   249   181   182    1
   250   181   256    1
   251   181   257    1
   252   182   183    1
   253   182   258    1
   254   182   259    1
   255   183   184    1
   256   183   260    1
   257   183   261    1
   258   184   185    1
   259   184   262    1
   260   184   263    1
   261   185   264    1
   262   185   265    1
   263   185   266    1
   264   186   187    1
   265   186   267    1
   266   186   268    1
   267   187   188    1
   268   187   269    1
   269   187   270    1
   270   188   189    1
   271   188   271    1
   272   188   272    1
   273   189   190    1
   274   189   273    1
   275   189   274    1
   276   190   191    1
   277   190   275    1
   278   190   276    1
   279   191   192    1
   280   191   277    1
   281   191   278    1
   282   192   193    1
   283   192   279    1
   284   192   280    1
   285   193   194    1
   286   193   281    1
   287   193   282    1
   288   194   195    1
   289   194   283    1
   290   194   284    1
   291   195   285    1
   292   195   286    1
   293   195   287    1
   294   288   289    1
   295   288   339    1
   296   288   340    1
   297   288   341    1
   298   289   290    1
   299   289   342    1
   300   289   343    1
   301   290   291    1
   302   290   344    1
   303   290   345    1
   304   291   292    1
   305   291   346    1
   306   291   347    1
   307   292   293    1
   308   292   348    1
   309   292   349    1
   310   293   294    1
   311   293   350    1
   312   293   351    1
   313   294   295    1
   314   294   352    1
   315   294   353    1
   316   295   296    1
   317   295   354    1
   318   295   355    1
   319   296   297    1
   320   296   356    1
   321   296   357    1
   322   297   298    1
   323   297   358    1
   324   297   359    1
   325   298   299    1
   326   298   309    1
   327   299   300    1
   328   299   360    1
   329   299   361    1
   330   300   301    1
   331   300   362    1
   332   300   363    1
   333   301   302    1
   334   301   364    1
   335   301   365    1
   336   302   303    1
   337   302   366    1
   338   302   367    1
   339   303   304    1
   340   303   368    1
   341   303   369    1
   342   304   305    1
   343   304   370    1
   344   304   371    1
   345   305   306    1
   346   305   372    1
   347   305   373    1
   348   306   307    1
   349   306   374    1
   350   306   375    1
   351   307   308    1
   352   307   376    1
   353   307   377    1
   354   308   378    1
   355   308   379    1
   356   308   380    1
   357   309   310    2
   358   309   311    1
   359   311   312    1
   360   311   313    1
   361   311   381    1
   362   312   382    1
   363   312   383    1
   364   312   384    1
   365   313   314    1
   366   314   315    1
   367   314   316    1
   368   314   385    1
   369   315   386    1
   370   315   387    1
   371   315   388    1
   372   316   317    2
   373   316   318    1
   374   318   319    1
   375   318   329    1
   376   319   320    1
   377   319   389    1
   378   319   390    1
   379   320   321    1
   380   320   391    1
   381   320   392    1
   382   321   322    1
   383   321   393    1
   384   321   394    1
   385   322   323    1
   386   322   395    1
   387   322   396    1
   388   323   324    1
   389   323   397    1
   390   323   398    1
   391   324   325    1
   392   324   399    1
   393   324   400    1
   394   325   326    1
   395   325   401    1
   396   325   402    1
   397   326   327    1
   398   326   403    1
   399   326   404    1
   400   327   328    1
   401   327   405    1
   402   327   406    1
   403   328   407    1
   404   328   408    1
   405   328   409    1
   406   329   330    1
   407   329   410    1
   408   329   411    1
   409   330   331    1
   410   330   412    1
   411   330   413    1
   412   331   332    1
   413   331   414    1
   414   331   415    1
   415   332   333    1
   416   332   416    1
   417   332   417    1
   418   333   334    1
   419   333   418    1
   420   333   419    1
   421   334   335    1
   422   334   420    1
   423   334   421    1
   424   335   336    1
   425   335   422    1
   426   335   423    1
   427   336   337    1
   428   336   424    1
   429   336   425    1
   430   337   338    1
   431   337   426    1
   432   337   427    1
   433   338   428    1
   434   338   429    1
   435   338   430    1
@<TRIPOS>SUBSTRUCTURE
     1 RES1      430 GROUP             0 ****  ****    0  
