@<TRIPOS>MOLECULE
am_c3_9H2O_c0_0_nunpairedes_0_charge_3 Charge: 3 Unpaired_Electrons: 0 XTB_Unpaired_Electrons: 0 XTB_Charge: 3
   172   186     1     0     0
SMALL
NoCharges
****
Generated from Architector

@<TRIPOS>ATOM
     1 La1      -0.0251    0.0131   -0.0027   La        1 RES1   0.0000
     2 C1       -1.1129   -3.9854    3.8590   C.3       1 RES1   0.0000
     3 C2       -1.7587   -2.6082    3.8916   C.3       1 RES1   0.0000
     4 N1       -2.6624   -2.3294    2.7721   N.am      1 RES1   0.0000
     5 C3       -2.2196   -1.5469    1.7816   C.2       1 RES1   0.0000
     6 O1       -1.0000   -1.2921    1.6956   O.2       1 RES1   0.0000
     7 C4       -3.1529   -0.8591    0.8102   C.ar      1 RES1   0.0000
     8 C5       -4.5390   -0.9951    0.7697   C.ar      1 RES1   0.0000
     9 C6       -5.2263   -0.3186   -0.2235   C.ar      1 RES1   0.0000
    10 C7       -4.5523    0.5045   -1.1121   C.ar      1 RES1   0.0000
    11 C8       -3.1788    0.6788   -0.9397   C.ar      1 RES1   0.0000
    12 C9       -2.2550    1.4895   -1.8240   C.2       1 RES1   0.0000
    13 O2       -1.0428    1.1942   -1.7860   O.2       1 RES1   0.0000
    14 N2       -2.6948    2.4581   -2.6450   N.am      1 RES1   0.0000
    15 C10      -3.9138    3.2242   -2.4152   C.3       1 RES1   0.0000
    16 C11      -4.9068    3.1421   -3.5669   C.3       1 RES1   0.0000
    17 C12      -1.9132    2.7854   -3.8140   C.ar      1 RES1   0.0000
    18 C13      -1.4531    1.6859   -4.5496   C.ar      1 RES1   0.0000
    19 C14      -0.7443    1.8365   -5.7251   C.ar      1 RES1   0.0000
    20 C15      -0.4845    3.1085   -6.2025   C.ar      1 RES1   0.0000
    21 C16      -0.9538    4.1933   -5.4926   C.ar      1 RES1   0.0000
    22 C17      -1.6701    4.0826   -4.2985   C.ar      1 RES1   0.0000
    23 C18      -2.1064    5.3918   -3.6935   C.3       1 RES1   0.0000
    24 N3       -2.5183   -0.0241   -0.0166   N.ar      1 RES1   0.0000
    25 C19      -3.8746   -3.0901    2.8007   C.ar      1 RES1   0.0000
    26 C20      -4.7580   -2.9477    3.8671   C.ar      1 RES1   0.0000
    27 C21      -5.8955   -3.7320    3.9384   C.ar      1 RES1   0.0000
    28 C22      -6.1623   -4.6542    2.9425   C.ar      1 RES1   0.0000
    29 C23      -5.2594   -4.8237    1.9079   C.ar      1 RES1   0.0000
    30 C24      -4.0966   -4.0690    1.8243   C.ar      1 RES1   0.0000
    31 C25      -3.0914   -4.3307    0.7421   C.3       1 RES1   0.0000
    32 H1       -0.4888   -4.0753    4.7425   H         1 RES1   0.0000
    33 H2       -1.8640   -4.7695    3.8919   H         1 RES1   0.0000
    34 H3       -0.4923   -4.1145    2.9760   H         1 RES1   0.0000
    35 H4       -2.3634   -2.5272    4.7964   H         1 RES1   0.0000
    36 H5       -0.9877   -1.8352    3.8967   H         1 RES1   0.0000
    37 H6       -5.0672   -1.6334    1.4583   H         1 RES1   0.0000
    38 H7       -6.2905   -0.4535   -0.3044   H         1 RES1   0.0000
    39 H8       -5.0983    0.9640   -1.9170   H         1 RES1   0.0000
    40 H9       -4.3538    2.8955   -1.4747   H         1 RES1   0.0000
    41 H10      -3.6104    4.2626   -2.2733   H         1 RES1   0.0000
    42 H11      -5.2057    2.1214   -3.7896   H         1 RES1   0.0000
    43 H12      -5.7878    3.7127   -3.2931   H         1 RES1   0.0000
    44 H13      -4.4874    3.5643   -4.4752   H         1 RES1   0.0000
    45 H14      -1.6696    0.6863   -4.1977   H         1 RES1   0.0000
    46 H15      -0.4166    0.9720   -6.2797   H         1 RES1   0.0000
    47 H16       0.0571    3.2617   -7.1224   H         1 RES1   0.0000
    48 H17      -0.7702    5.1770   -5.8930   H         1 RES1   0.0000
    49 H18      -1.6161    6.2052   -4.2267   H         1 RES1   0.0000
    50 H19      -3.1778    5.5491   -3.8176   H         1 RES1   0.0000
    51 H20      -1.8544    5.4766   -2.6369   H         1 RES1   0.0000
    52 H21      -4.5632   -2.2303    4.6501   H         1 RES1   0.0000
    53 H22      -6.5600   -3.6333    4.7797   H         1 RES1   0.0000
    54 H23      -7.0556   -5.2568    2.9783   H         1 RES1   0.0000
    55 H24      -5.4562   -5.5771    1.1638   H         1 RES1   0.0000
    56 H25      -3.4230   -5.1605    0.1224   H         1 RES1   0.0000
    57 H26      -2.9578   -3.4477    0.1173   H         1 RES1   0.0000
    58 H27      -2.1241   -4.5796    1.1797   H         1 RES1   0.0000
    59 C26       2.1038    0.1069    4.9271   C.3       1 RES1   0.0000
    60 C27       3.2376    0.0415    3.9119   C.3       1 RES1   0.0000
    61 N4        3.1236   -1.1080    3.0133   N.am      1 RES1   0.0000
    62 C28       2.2225   -1.0768    2.0271   C.2       1 RES1   0.0000
    63 O3        1.5794   -0.0420    1.7583   O.2       1 RES1   0.0000
    64 C29       1.8746   -2.3607    1.3148   C.ar      1 RES1   0.0000
    65 C30       2.0577   -3.6114    1.9031   C.ar      1 RES1   0.0000
    66 C31       1.4818   -4.7063    1.2876   C.ar      1 RES1   0.0000
    67 C32       0.7372   -4.5346    0.1315   C.ar      1 RES1   0.0000
    68 C33       0.6235   -3.2605   -0.4205   C.ar      1 RES1   0.0000
    69 C34      -0.3164   -2.8612   -1.5442   C.2       1 RES1   0.0000
    70 O4       -0.8559   -1.7445   -1.3998   O.2       1 RES1   0.0000
    71 N5       -0.6030   -3.6552   -2.5812   N.am      1 RES1   0.0000
    72 C35       0.1018   -4.9025   -2.8717   C.3       1 RES1   0.0000
    73 C36       1.5858   -4.6726   -3.1137   C.3       1 RES1   0.0000
    74 C37      -1.7137   -3.3400   -3.4449   C.ar      1 RES1   0.0000
    75 C38      -2.9110   -2.9761   -2.8260   C.ar      1 RES1   0.0000
    76 C39      -4.0678   -2.7540   -3.5447   C.ar      1 RES1   0.0000
    77 C40      -4.0528   -2.9253   -4.9173   C.ar      1 RES1   0.0000
    78 C41      -2.8708   -3.2785   -5.5343   C.ar      1 RES1   0.0000
    79 C42      -1.6758   -3.4758   -4.8426   C.ar      1 RES1   0.0000
    80 C43      -0.4698   -3.7791   -5.6878   C.3       1 RES1   0.0000
    81 N6        1.1826   -2.2025    0.1830   N.ar      1 RES1   0.0000
    82 C44       4.2029   -2.0335    3.0411   C.ar      1 RES1   0.0000
    83 C45       4.5717   -2.6097    4.2561   C.ar      1 RES1   0.0000
    84 C46       5.6414   -3.4810    4.3139   C.ar      1 RES1   0.0000
    85 C47       6.3371   -3.7867    3.1555   C.ar      1 RES1   0.0000
    86 C48       6.0019   -3.1658    1.9669   C.ar      1 RES1   0.0000
    87 C49       4.9484   -2.2615    1.8809   C.ar      1 RES1   0.0000
    88 C50       4.6936   -1.5339    0.5919   C.3       1 RES1   0.0000
    89 H28       2.2703    0.9675    5.5663   H         1 RES1   0.0000
    90 H29       1.1416    0.2116    4.4323   H         1 RES1   0.0000
    91 H30       2.0779   -0.7760    5.5594   H         1 RES1   0.0000
    92 H31       3.2423    0.9437    3.2960   H         1 RES1   0.0000
    93 H32       4.1968   -0.0464    4.4228   H         1 RES1   0.0000
    94 H33       2.5732   -3.7222    2.8434   H         1 RES1   0.0000
    95 H34       1.5726   -5.6782    1.7407   H         1 RES1   0.0000
    96 H35       0.2108   -5.3821   -0.2672   H         1 RES1   0.0000
    97 H36      -0.0683   -5.6160   -2.0658   H         1 RES1   0.0000
    98 H37      -0.3721   -5.3386   -3.7491   H         1 RES1   0.0000
    99 H38       2.0691   -4.2342   -2.2463   H         1 RES1   0.0000
   100 H39       2.0659   -5.6175   -3.3371   H         1 RES1   0.0000
   101 H40       1.7415   -4.0018   -3.9520   H         1 RES1   0.0000
   102 H41      -2.9481   -2.8801   -1.7525   H         1 RES1   0.0000
   103 H42      -4.9753   -2.4792   -3.0293   H         1 RES1   0.0000
   104 H43      -4.9454   -2.7870   -5.5056   H         1 RES1   0.0000
   105 H44      -2.8703   -3.4096   -6.6040   H         1 RES1   0.0000
   106 H45      -0.7177   -3.5809   -6.7288   H         1 RES1   0.0000
   107 H46       0.3809   -3.1635   -5.4052   H         1 RES1   0.0000
   108 H47      -0.1637   -4.8232   -5.6399   H         1 RES1   0.0000
   109 H48       4.0307   -2.3726    5.1599   H         1 RES1   0.0000
   110 H49       5.9319   -3.9100    5.2582   H         1 RES1   0.0000
   111 H50       7.1540   -4.4894    3.1819   H         1 RES1   0.0000
   112 H51       6.5877   -3.3673    1.0862   H         1 RES1   0.0000
   113 H52       5.6487   -1.3210    0.1159   H         1 RES1   0.0000
   114 H53       4.1015   -2.1445   -0.0908   H         1 RES1   0.0000
   115 H54       4.1645   -0.5934    0.7502   H         1 RES1   0.0000
   116 C51      -3.2948    3.0066    3.1180   C.3       1 RES1   0.0000
   117 C52      -1.8933    2.9561    3.7103   C.3       1 RES1   0.0000
   118 N7       -0.8718    3.4622    2.7925   N.am      1 RES1   0.0000
   119 C53      -0.5509    2.7189    1.7360   C.2       1 RES1   0.0000
   120 O5       -1.0624    1.5992    1.5409   O.2       1 RES1   0.0000
   121 C54       0.3208    3.2692    0.6436   C.ar      1 RES1   0.0000
   122 C55       0.2481    4.6050    0.2609   C.ar      1 RES1   0.0000
   123 C56       0.8017    4.9465   -0.9581   C.ar      1 RES1   0.0000
   124 C57       1.4174    3.9751   -1.7341   C.ar      1 RES1   0.0000
   125 C58       1.5315    2.6734   -1.2432   C.ar      1 RES1   0.0000
   126 C59       2.0799    1.4583   -1.9783   C.2       1 RES1   0.0000
   127 O6        1.6378    0.3445   -1.6288   O.2       1 RES1   0.0000
   128 N8        2.9777    1.5704   -2.9659   N.am      1 RES1   0.0000
   129 C60       3.8918    2.7024   -3.1006   C.3       1 RES1   0.0000
   130 C61       4.6862    2.8920   -1.8162   C.3       1 RES1   0.0000
   131 C62       3.1068    0.5100   -3.9317   C.ar      1 RES1   0.0000
   132 C63       1.9327    0.1437   -4.5921   C.ar      1 RES1   0.0000
   133 C64       1.9463   -0.7789   -5.6206   C.ar      1 RES1   0.0000
   134 C65       3.1461   -1.3484   -6.0108   C.ar      1 RES1   0.0000
   135 C66       4.3038   -0.9910   -5.3514   C.ar      1 RES1   0.0000
   136 C67       4.3269   -0.0734   -4.3022   C.ar      1 RES1   0.0000
   137 C68       5.6586    0.1593   -3.6490   C.3       1 RES1   0.0000
   138 N9        0.9531    2.3437   -0.0809   N.ar      1 RES1   0.0000
   139 C69      -0.1405    4.6109    3.2098   C.ar      1 RES1   0.0000
   140 C70      -0.8451    5.7660    3.5468   C.ar      1 RES1   0.0000
   141 C71      -0.1715    6.8904    3.9809   C.ar      1 RES1   0.0000
   142 C72       1.2105    6.8682    4.0738   C.ar      1 RES1   0.0000
   143 C73       1.8979    5.7035    3.7902   C.ar      1 RES1   0.0000
   144 C74       1.2443    4.5478    3.3735   C.ar      1 RES1   0.0000
   145 C75       2.0213    3.2811    3.1771   C.3       1 RES1   0.0000
   146 H55      -3.9961    2.6695    3.8734   H         1 RES1   0.0000
   147 H56      -3.3667    2.3552    2.2508   H         1 RES1   0.0000
   148 H57      -3.5710    4.0162    2.8284   H         1 RES1   0.0000
   149 H58      -1.6379    1.9194    3.9496   H         1 RES1   0.0000
   150 H59      -1.8372    3.5608    4.6156   H         1 RES1   0.0000
   151 H60      -0.2847    5.3238    0.8640   H         1 RES1   0.0000
   152 H61       0.7046    5.9576   -1.3140   H         1 RES1   0.0000
   153 H62       1.7195    4.2389   -2.7307   H         1 RES1   0.0000
   154 H63       3.3499    3.6076   -3.3704   H         1 RES1   0.0000
   155 H64       4.5499    2.4853   -3.9413   H         1 RES1   0.0000
   156 H65       4.0286    3.0999   -0.9769   H         1 RES1   0.0000
   157 H66       5.3786    3.7169   -1.9268   H         1 RES1   0.0000
   158 H67       5.2509    1.9951   -1.5840   H         1 RES1   0.0000
   159 H68       1.0010    0.6117   -4.3092   H         1 RES1   0.0000
   160 H69       1.0307   -1.0313   -6.1335   H         1 RES1   0.0000
   161 H70       3.1897   -2.0622   -6.8189   H         1 RES1   0.0000
   162 H71       5.2330   -1.4387   -5.6629   H         1 RES1   0.0000
   163 H72       6.3707   -0.5577   -4.0511   H         1 RES1   0.0000
   164 H73       5.5965    0.0224   -2.5714   H         1 RES1   0.0000
   165 H74       6.0644    1.1498   -3.8450   H         1 RES1   0.0000
   166 H75      -1.9219    5.7852    3.4761   H         1 RES1   0.0000
   167 H76      -0.7230    7.7762    4.2481   H         1 RES1   0.0000
   168 H77       1.7506    7.7483    4.3835   H         1 RES1   0.0000
   169 H78       2.9675    5.6832    3.9156   H         1 RES1   0.0000
   170 H79       2.7597    3.1996    3.9730   H         1 RES1   0.0000
   171 H80       2.5484    3.2985    2.2226   H         1 RES1   0.0000
   172 H81       1.3734    2.4058    3.1954   H         1 RES1   0.0000
@<TRIPOS>BOND
     1     1     6    1
     2     1    13    1
     3     1    24    1
     4     1    63    1
     5     1    70    1
     6     1    81    1
     7     1   120    1
     8     1   127    1
     9     1   138    1
    10     2     3    1
    11     2    32    1
    12     2    33    1
    13     2    34    1
    14     3     4    1
    15     3    35    1
    16     3    36    1
    17     4     5    1
    18     4    25    1
    19     5     6    2
    20     5     7    1
    21     7     8    1
    22     7    24    2
    23     8     9    2
    24     8    37    1
    25     9    10    1
    26     9    38    1
    27    10    11    2
    28    10    39    1
    29    11    12    1
    30    11    24    1
    31    12    13    2
    32    12    14    1
    33    14    15    1
    34    14    17    1
    35    15    16    1
    36    15    40    1
    37    15    41    1
    38    16    42    1
    39    16    43    1
    40    16    44    1
    41    17    18    1
    42    17    22    2
    43    18    19    2
    44    18    45    1
    45    19    20    1
    46    19    46    1
    47    20    21    2
    48    20    47    1
    49    21    22    1
    50    21    48    1
    51    22    23    1
    52    23    49    1
    53    23    50    1
    54    23    51    1
    55    25    26    1
    56    25    30    2
    57    26    27    2
    58    26    52    1
    59    27    28    1
    60    27    53    1
    61    28    29    2
    62    28    54    1
    63    29    30    1
    64    29    55    1
    65    30    31    1
    66    31    56    1
    67    31    57    1
    68    31    58    1
    69    59    60    1
    70    59    89    1
    71    59    90    1
    72    59    91    1
    73    60    61    1
    74    60    92    1
    75    60    93    1
    76    61    62    1
    77    61    82    1
    78    62    63    2
    79    62    64    1
    80    64    65    1
    81    64    81    2
    82    65    66    2
    83    65    94    1
    84    66    67    1
    85    66    95    1
    86    67    68    2
    87    67    96    1
    88    68    69    1
    89    68    81    1
    90    69    70    2
    91    69    71    1
    92    71    72    1
    93    71    74    1
    94    72    73    1
    95    72    97    1
    96    72    98    1
    97    73    99    1
    98    73   100    1
    99    73   101    1
   100    74    75    1
   101    74    79    2
   102    75    76    2
   103    75   102    1
   104    76    77    1
   105    76   103    1
   106    77    78    2
   107    77   104    1
   108    78    79    1
   109    78   105    1
   110    79    80    1
   111    80   106    1
   112    80   107    1
   113    80   108    1
   114    82    83    1
   115    82    87    2
   116    83    84    2
   117    83   109    1
   118    84    85    1
   119    84   110    1
   120    85    86    2
   121    85   111    1
   122    86    87    1
   123    86   112    1
   124    87    88    1
   125    88   113    1
   126    88   114    1
   127    88   115    1
   128   116   117    1
   129   116   146    1
   130   116   147    1
   131   116   148    1
   132   117   118    1
   133   117   149    1
   134   117   150    1
   135   118   119    1
   136   118   139    1
   137   119   120    2
   138   119   121    1
   139   121   122    1
   140   121   138    2
   141   122   123    2
   142   122   151    1
   143   123   124    1
   144   123   152    1
   145   124   125    2
   146   124   153    1
   147   125   126    1
   148   125   138    1
   149   126   127    2
   150   126   128    1
   151   128   129    1
   152   128   131    1
   153   129   130    1
   154   129   154    1
   155   129   155    1
   156   130   156    1
   157   130   157    1
   158   130   158    1
   159   131   132    1
   160   131   136    2
   161   132   133    2
   162   132   159    1
   163   133   134    1
   164   133   160    1
   165   134   135    2
   166   134   161    1
   167   135   136    1
   168   135   162    1
   169   136   137    1
   170   137   163    1
   171   137   164    1
   172   137   165    1
   173   139   140    1
   174   139   144    2
   175   140   141    2
   176   140   166    1
   177   141   142    1
   178   141   167    1
   179   142   143    2
   180   142   168    1
   181   143   144    1
   182   143   169    1
   183   144   145    1
   184   145   170    1
   185   145   171    1
   186   145   172    1
@<TRIPOS>SUBSTRUCTURE
     1 RES1      172 GROUP             0 ****  ****    0  
