@<TRIPOS>MOLECULE
cn9_YICLED_0_nunpairedes_0_charge_3 Charge: 3 Unpaired_Electrons: 0 XTB_Unpaired_Electrons: 0 XTB_Charge: 3
   130   141     1     0     0
SMALL
NoCharges
****
Generated from Architector

@<TRIPOS>ATOM
     1 La1      -0.0670   -0.1951   -0.0457   La        1 RES1   0.0000
     2 O1       -1.7685    0.3420    1.5805   O.2       1 RES1   0.0000
     3 C1       -1.5471    0.9953    2.6225   C.2       1 RES1   0.0000
     4 C2       -0.0759    1.2574    2.9706   C.3       1 RES1   0.0000
     5 O2        0.7122    0.2840    2.2940   O.3       1 RES1   0.0000
     6 C3        0.8952   -0.9136    3.0526   C.3       1 RES1   0.0000
     7 C4        0.7391   -2.1717    2.1826   C.2       1 RES1   0.0000
     8 O3        0.1465   -2.1058    1.0881   O.2       1 RES1   0.0000
     9 N1        1.2334   -3.3051    2.6401   N.am      1 RES1   0.0000
    10 C5        1.7300   -3.5283    3.9836   C.3       1 RES1   0.0000
    11 C6        0.7944   -4.4843    4.7409   C.3       1 RES1   0.0000
    12 C7        0.3473   -5.6612    3.8560   C.3       1 RES1   0.0000
    13 C8        1.2473   -5.7687    2.6300   C.3       1 RES1   0.0000
    14 C9        1.1031   -4.5009    1.8021   C.3       1 RES1   0.0000
    15 N2       -2.5121    1.4594    3.3849   N.am      1 RES1   0.0000
    16 C10      -2.3612    2.2142    4.6142   C.3       1 RES1   0.0000
    17 C11      -3.0764    1.5100    5.7767   C.3       1 RES1   0.0000
    18 C12      -4.4582    0.9769    5.3548   C.3       1 RES1   0.0000
    19 C13      -4.8834    1.5993    4.0291   C.3       1 RES1   0.0000
    20 C14      -3.8873    1.2045    2.9523   C.3       1 RES1   0.0000
    21 H1        0.2074    2.2371    2.5648   H         1 RES1   0.0000
    22 H2        0.1494    1.2283    4.0387   H         1 RES1   0.0000
    23 H3        1.9053   -0.8553    3.4714   H         1 RES1   0.0000
    24 H4        0.1547   -0.9915    3.8545   H         1 RES1   0.0000
    25 H5        2.7313   -3.9571    3.9227   H         1 RES1   0.0000
    26 H6        1.8100   -2.5959    4.5372   H         1 RES1   0.0000
    27 H7        1.3259   -4.8520    5.6186   H         1 RES1   0.0000
    28 H8       -0.0769   -3.9324    5.0956   H         1 RES1   0.0000
    29 H9        0.3791   -6.5912    4.4200   H         1 RES1   0.0000
    30 H10      -0.6828   -5.5196    3.5251   H         1 RES1   0.0000
    31 H11       2.2796   -5.9095    2.9448   H         1 RES1   0.0000
    32 H12       0.9672   -6.6261    2.0183   H         1 RES1   0.0000
    33 H13       1.8435   -4.4510    0.9988   H         1 RES1   0.0000
    34 H14       0.1144   -4.4642    1.3406   H         1 RES1   0.0000
    35 H15      -1.3127    2.3659    4.8620   H         1 RES1   0.0000
    36 H16      -2.7954    3.2048    4.4690   H         1 RES1   0.0000
    37 H17      -2.4556    0.6921    6.1441   H         1 RES1   0.0000
    38 H18      -3.1816    2.2236    6.5947   H         1 RES1   0.0000
    39 H19      -4.4289   -0.1079    5.2410   H         1 RES1   0.0000
    40 H20      -5.2001    1.1994    6.1197   H         1 RES1   0.0000
    41 H21      -5.8754    1.2520    3.7415   H         1 RES1   0.0000
    42 H22      -4.9320    2.6816    4.1325   H         1 RES1   0.0000
    43 H23      -3.9695    0.1377    2.7347   H         1 RES1   0.0000
    44 H24      -4.0642    1.7386    2.0148   H         1 RES1   0.0000
    45 O4       -1.9402   -1.1664   -0.9541   O.2       1 RES1   0.0000
    46 C15      -2.1941   -1.2511   -2.1722   C.2       1 RES1   0.0000
    47 C16      -1.4783   -0.3049   -3.1532   C.3       1 RES1   0.0000
    48 O5       -0.7255    0.6252   -2.3880   O.3       1 RES1   0.0000
    49 C17      -0.8706    1.9948   -2.7286   C.3       1 RES1   0.0000
    50 C18      -1.0104    2.7835   -1.4195   C.2       1 RES1   0.0000
    51 O6       -0.7018    2.2161   -0.3496   O.2       1 RES1   0.0000
    52 N3       -1.4682    4.0185   -1.5068   N.am      1 RES1   0.0000
    53 C19      -1.7579    4.7898   -0.2966   C.3       1 RES1   0.0000
    54 C20      -2.3180    6.1715   -0.6181   C.3       1 RES1   0.0000
    55 C21      -1.3658    6.9662   -1.5166   C.3       1 RES1   0.0000
    56 C22      -0.7808    6.0684   -2.6191   C.3       1 RES1   0.0000
    57 C23      -1.5773    4.7687   -2.7479   C.3       1 RES1   0.0000
    58 N4       -3.0901   -2.0869   -2.6454   N.am      1 RES1   0.0000
    59 C24      -3.8744   -2.8756   -1.6948   C.3       1 RES1   0.0000
    60 C25      -4.9956   -3.6135   -2.4097   C.3       1 RES1   0.0000
    61 C26      -5.7346   -2.6445   -3.3290   C.3       1 RES1   0.0000
    62 C27      -4.7908   -2.1082   -4.4205   C.3       1 RES1   0.0000
    63 C28      -3.3233   -2.3479   -4.0500   C.3       1 RES1   0.0000
    64 H25      -2.2157    0.2066   -3.7815   H         1 RES1   0.0000
    65 H26      -0.7784   -0.8698   -3.7838   H         1 RES1   0.0000
    66 H27      -1.7453    2.1505   -3.3683   H         1 RES1   0.0000
    67 H28       0.0382    2.3367   -3.2453   H         1 RES1   0.0000
    68 H29      -0.8357    4.8911    0.2788   H         1 RES1   0.0000
    69 H30      -2.4736    4.2168    0.2987   H         1 RES1   0.0000
    70 H31      -2.4770    6.7049    0.3200   H         1 RES1   0.0000
    71 H32      -3.2918    6.0815   -1.0969   H         1 RES1   0.0000
    72 H33      -0.5650    7.3894   -0.9104   H         1 RES1   0.0000
    73 H34      -1.9034    7.8014   -1.9634   H         1 RES1   0.0000
    74 H35       0.2585    5.8257   -2.3938   H         1 RES1   0.0000
    75 H36      -0.7918    6.5756   -3.5847   H         1 RES1   0.0000
    76 H37      -1.1887    4.2004   -3.5880   H         1 RES1   0.0000
    77 H38      -2.6236    5.0061   -2.9454   H         1 RES1   0.0000
    78 H39      -4.2879   -2.1773   -0.9638   H         1 RES1   0.0000
    79 H40      -3.2120   -3.5547   -1.1517   H         1 RES1   0.0000
    80 H41      -5.6747   -4.0317   -1.6666   H         1 RES1   0.0000
    81 H42      -4.5968   -4.4389   -2.9966   H         1 RES1   0.0000
    82 H43      -6.1318   -1.8226   -2.7312   H         1 RES1   0.0000
    83 H44      -6.5828   -3.1503   -3.7854   H         1 RES1   0.0000
    84 H45      -4.9603   -1.0414   -4.5728   H         1 RES1   0.0000
    85 H46      -4.9831   -2.6087   -5.3700   H         1 RES1   0.0000
    86 H47      -2.6756   -1.7337   -4.6717   H         1 RES1   0.0000
    87 H48      -3.0580   -3.3895   -4.2428   H         1 RES1   0.0000
    88 O7        2.4348   -0.6502    0.5212   O.2       1 RES1   0.0000
    89 C29       3.3431    0.2012    0.4510   C.2       1 RES1   0.0000
    90 C30       3.0011    1.4655   -0.3357   C.3       1 RES1   0.0000
    91 O8        1.9813    1.1373   -1.2779   O.3       1 RES1   0.0000
    92 C31       2.4654    0.4394   -2.4264   C.3       1 RES1   0.0000
    93 C32       1.8386   -0.9561   -2.5713   C.2       1 RES1   0.0000
    94 O9        0.9935   -1.3668   -1.7541   O.2       1 RES1   0.0000
    95 N5        2.1878   -1.6820   -3.6183   N.am      1 RES1   0.0000
    96 C33       3.0761   -1.2652   -4.6859   C.3       1 RES1   0.0000
    97 C34       4.1520   -2.3190   -4.9672   C.3       1 RES1   0.0000
    98 C35       3.5706   -3.7443   -5.0128   C.3       1 RES1   0.0000
    99 C36       2.0462   -3.7043   -5.0180   C.3       1 RES1   0.0000
   100 C37       1.5593   -2.9963   -3.7661   C.3       1 RES1   0.0000
   101 N6        4.5114    0.0077    1.0364   N.am      1 RES1   0.0000
   102 C38       5.6710    0.8802    1.0547   C.3       1 RES1   0.0000
   103 C39       6.9465    0.1228    0.6489   C.3       1 RES1   0.0000
   104 C40       7.0437   -1.2681    1.3053   C.3       1 RES1   0.0000
   105 C41       6.0003   -1.4120    2.4063   C.3       1 RES1   0.0000
   106 C42       4.6212   -1.2368    1.8000   C.3       1 RES1   0.0000
   107 H49       2.5508    2.1899    0.3533   H         1 RES1   0.0000
   108 H50       3.8501    1.9310   -0.8420   H         1 RES1   0.0000
   109 H51       2.1833    1.0383   -3.3021   H         1 RES1   0.0000
   110 H52       3.5553    0.3461   -2.3920   H         1 RES1   0.0000
   111 H53       2.4766   -1.1045   -5.5854   H         1 RES1   0.0000
   112 H54       3.5570   -0.3199   -4.4465   H         1 RES1   0.0000
   113 H55       4.6154   -2.0670   -5.9218   H         1 RES1   0.0000
   114 H56       4.9266   -2.2532   -4.2025   H         1 RES1   0.0000
   115 H57       3.9226   -4.2662   -5.9003   H         1 RES1   0.0000
   116 H58       3.9049   -4.3175   -4.1471   H         1 RES1   0.0000
   117 H59       1.6975   -3.1925   -5.9132   H         1 RES1   0.0000
   118 H60       1.6366   -4.7143   -5.0339   H         1 RES1   0.0000
   119 H61       0.4725   -2.8699   -3.7666   H         1 RES1   0.0000
   120 H62       1.8087   -3.5843   -2.8809   H         1 RES1   0.0000
   121 H63       5.5273    1.7334    0.3931   H         1 RES1   0.0000
   122 H64       5.8015    1.2816    2.0623   H         1 RES1   0.0000
   123 H65       6.9732    0.0249   -0.4363   H         1 RES1   0.0000
   124 H66       7.8087    0.7274    0.9345   H         1 RES1   0.0000
   125 H67       6.8767   -2.0481    0.5607   H         1 RES1   0.0000
   126 H68       8.0378   -1.4281    1.7199   H         1 RES1   0.0000
   127 H69       6.0655   -2.3966    2.8712   H         1 RES1   0.0000
   128 H70       6.1789   -0.6710    3.1831   H         1 RES1   0.0000
   129 H71       4.3998   -2.0624    1.1191   H         1 RES1   0.0000
   130 H72       3.8416   -1.2376    2.5660   H         1 RES1   0.0000
@<TRIPOS>BOND
     1     1     2    1
     2     1     5    1
     3     1     8    1
     4     1    45    1
     5     1    48    1
     6     1    51    1
     7     1    88    1
     8     1    91    1
     9     1    94    1
    10     2     3    2
    11     3     4    1
    12     3    15    1
    13     4     5    1
    14     4    21    1
    15     4    22    1
    16     5     6    1
    17     6     7    1
    18     6    23    1
    19     6    24    1
    20     7     8    2
    21     7     9    1
    22     9    10    1
    23     9    14    1
    24    10    11    1
    25    10    25    1
    26    10    26    1
    27    11    12    1
    28    11    27    1
    29    11    28    1
    30    12    13    1
    31    12    29    1
    32    12    30    1
    33    13    14    1
    34    13    31    1
    35    13    32    1
    36    14    33    1
    37    14    34    1
    38    15    16    1
    39    15    20    1
    40    16    17    1
    41    16    35    1
    42    16    36    1
    43    17    18    1
    44    17    37    1
    45    17    38    1
    46    18    19    1
    47    18    39    1
    48    18    40    1
    49    19    20    1
    50    19    41    1
    51    19    42    1
    52    20    43    1
    53    20    44    1
    54    45    46    2
    55    46    47    1
    56    46    58    1
    57    47    48    1
    58    47    64    1
    59    47    65    1
    60    48    49    1
    61    49    50    1
    62    49    66    1
    63    49    67    1
    64    50    51    2
    65    50    52    1
    66    52    53    1
    67    52    57    1
    68    53    54    1
    69    53    68    1
    70    53    69    1
    71    54    55    1
    72    54    70    1
    73    54    71    1
    74    55    56    1
    75    55    72    1
    76    55    73    1
    77    56    57    1
    78    56    74    1
    79    56    75    1
    80    57    76    1
    81    57    77    1
    82    58    59    1
    83    58    63    1
    84    59    60    1
    85    59    78    1
    86    59    79    1
    87    60    61    1
    88    60    80    1
    89    60    81    1
    90    61    62    1
    91    61    82    1
    92    61    83    1
    93    62    63    1
    94    62    84    1
    95    62    85    1
    96    63    86    1
    97    63    87    1
    98    88    89    2
    99    89    90    1
   100    89   101    1
   101    90    91    1
   102    90   107    1
   103    90   108    1
   104    91    92    1
   105    92    93    1
   106    92   109    1
   107    92   110    1
   108    93    94    2
   109    93    95    1
   110    95    96    1
   111    95   100    1
   112    96    97    1
   113    96   111    1
   114    96   112    1
   115    97    98    1
   116    97   113    1
   117    97   114    1
   118    98    99    1
   119    98   115    1
   120    98   116    1
   121    99   100    1
   122    99   117    1
   123    99   118    1
   124   100   119    1
   125   100   120    1
   126   101   102    1
   127   101   106    1
   128   102   103    1
   129   102   121    1
   130   102   122    1
   131   103   104    1
   132   103   123    1
   133   103   124    1
   134   104   105    1
   135   104   125    1
   136   104   126    1
   137   105   106    1
   138   105   127    1
   139   105   128    1
   140   106   129    1
   141   106   130    1
@<TRIPOS>SUBSTRUCTURE
     1 RES1      130 GROUP             0 ****  ****    0  
