@<TRIPOS>MOLECULE
am_c3_9H2O_c0_0_nunpairedes_0_charge_3 Charge: 3 Unpaired_Electrons: 0 XTB_Unpaired_Electrons: 0 XTB_Charge: 3
   367   372     1     0     0
SMALL
NoCharges
****
Generated from Architector

@<TRIPOS>ATOM
     1 La1      -0.1452   -0.2293   -0.1679   La        1 RES1   0.0000
     2 C1       -9.6869    0.2807   -1.4912   C.3       1 RES1   0.0000
     3 C2       -8.9088   -0.9823   -1.8422   C.3       1 RES1   0.0000
     4 C3       -8.8134   -1.2302   -3.3482   C.3       1 RES1   0.0000
     5 C4       -7.8854   -0.2817   -4.1116   C.3       1 RES1   0.0000
     6 C5       -6.4101   -0.5061   -3.7622   C.3       1 RES1   0.0000
     7 C6       -5.4296    0.0375   -4.8116   C.3       1 RES1   0.0000
     8 C7       -5.2319    1.5489   -4.7725   C.3       1 RES1   0.0000
     9 C8       -4.4340    1.9463   -3.5291   C.3       1 RES1   0.0000
    10 N1       -3.0799    1.3791   -3.4255   N.am      1 RES1   0.0000
    11 C9       -2.1111    1.9316   -4.3784   C.3       1 RES1   0.0000
    12 C10      -1.9657    1.1464   -5.6802   C.3       1 RES1   0.0000
    13 C11      -1.1450    1.8946   -6.7399   C.3       1 RES1   0.0000
    14 C12      -1.6217    3.3165   -7.1026   C.3       1 RES1   0.0000
    15 C13      -0.7258    4.4004   -6.4914   C.3       1 RES1   0.0000
    16 C14      -1.1359    5.8243   -6.8696   C.3       1 RES1   0.0000
    17 C15      -0.2712    6.8599   -6.1532   C.3       1 RES1   0.0000
    18 C16      -0.5426    8.2851   -6.6131   C.3       1 RES1   0.0000
    19 C17      -2.5991    0.6923   -2.3846   C.2       1 RES1   0.0000
    20 O1       -1.3910    0.4079   -2.2762   O.2       1 RES1   0.0000
    21 C18      -3.5038    0.4324   -1.1678   C.3       1 RES1   0.0000
    22 C19      -3.6134    1.8493   -0.5967   C.3       1 RES1   0.0000
    23 O2       -2.7888   -0.4245   -0.2600   O.3       1 RES1   0.0000
    24 C20      -3.5532   -1.2012    0.6810   C.3       1 RES1   0.0000
    25 C21      -4.3180   -0.3313    1.6922   C.3       1 RES1   0.0000
    26 C22      -3.3917    0.2463    2.7577   C.3       1 RES1   0.0000
    27 C23      -2.5079   -2.0511    1.4354   C.2       1 RES1   0.0000
    28 O3       -1.3022   -1.7351    1.3210   O.2       1 RES1   0.0000
    29 N2       -2.8923   -3.0612    2.2084   N.am      1 RES1   0.0000
    30 C24      -4.2458   -3.4192    2.6074   C.3       1 RES1   0.0000
    31 C25      -4.4555   -3.2995    4.1364   C.3       1 RES1   0.0000
    32 C26      -4.3867   -4.6500    4.8818   C.3       1 RES1   0.0000
    33 C27      -3.8209   -4.5674    6.3075   C.3       1 RES1   0.0000
    34 C28      -2.2959   -4.4518    6.3592   C.3       1 RES1   0.0000
    35 C29      -1.7577   -4.5382    7.7882   C.3       1 RES1   0.0000
    36 C30      -0.2835   -4.1445    7.8963   C.3       1 RES1   0.0000
    37 C31       0.6591   -5.0744    7.1436   C.3       1 RES1   0.0000
    38 C32      -1.8807   -3.9187    2.8202   C.3       1 RES1   0.0000
    39 C33      -1.8793   -5.3343    2.2427   C.3       1 RES1   0.0000
    40 C34      -1.2229   -5.4006    0.8624   C.3       1 RES1   0.0000
    41 C35       0.1213   -6.1204    0.8671   C.3       1 RES1   0.0000
    42 C36       1.2402   -5.5043    1.7091   C.3       1 RES1   0.0000
    43 C37       1.4878   -6.1686    3.0622   C.3       1 RES1   0.0000
    44 C38       2.8046   -5.6555    3.6496   C.3       1 RES1   0.0000
    45 C39       3.3629   -6.5324    4.7614   C.3       1 RES1   0.0000
    46 H1       -9.8412    0.3365   -0.4164   H         1 RES1   0.0000
    47 H2      -10.6610    0.2682   -1.9733   H         1 RES1   0.0000
    48 H3       -9.1603    1.1793   -1.8051   H         1 RES1   0.0000
    49 H4       -9.4161   -1.8364   -1.3926   H         1 RES1   0.0000
    50 H5       -7.9095   -0.9381   -1.4019   H         1 RES1   0.0000
    51 H6       -9.8149   -1.1554   -3.7727   H         1 RES1   0.0000
    52 H7       -8.4586   -2.2490   -3.5187   H         1 RES1   0.0000
    53 H8       -8.1617    0.7552   -3.9207   H         1 RES1   0.0000
    54 H9       -8.0222   -0.4640   -5.1801   H         1 RES1   0.0000
    55 H10      -6.2394   -1.5830   -3.6760   H         1 RES1   0.0000
    56 H11      -6.2046   -0.0693   -2.7811   H         1 RES1   0.0000
    57 H12      -5.7963   -0.2561   -5.7974   H         1 RES1   0.0000
    58 H13      -4.4487   -0.4262   -4.6660   H         1 RES1   0.0000
    59 H14      -6.1974    2.0525   -4.7171   H         1 RES1   0.0000
    60 H15      -4.7451    1.8995   -5.6807   H         1 RES1   0.0000
    61 H16      -5.0308    1.6413   -2.6729   H         1 RES1   0.0000
    62 H17      -4.3335    3.0406   -3.5098   H         1 RES1   0.0000
    63 H18      -1.1446    1.9693   -3.8659   H         1 RES1   0.0000
    64 H19      -2.4331    2.9501   -4.6040   H         1 RES1   0.0000
    65 H20      -2.9459    0.9181   -6.0941   H         1 RES1   0.0000
    66 H21      -1.4699    0.1986   -5.4608   H         1 RES1   0.0000
    67 H22      -1.1669    1.2718   -7.6342   H         1 RES1   0.0000
    68 H23      -0.1048    1.9562   -6.4198   H         1 RES1   0.0000
    69 H24      -2.6573    3.4635   -6.7871   H         1 RES1   0.0000
    70 H25      -1.6018    3.4313   -8.1883   H         1 RES1   0.0000
    71 H26       0.2980    4.2346   -6.8359   H         1 RES1   0.0000
    72 H27      -0.7212    4.3066   -5.3993   H         1 RES1   0.0000
    73 H28      -2.1850    5.9880   -6.6152   H         1 RES1   0.0000
    74 H29      -1.0320    5.9561   -7.9475   H         1 RES1   0.0000
    75 H30       0.7802    6.6259   -6.3312   H         1 RES1   0.0000
    76 H31      -0.4537    6.7934   -5.0772   H         1 RES1   0.0000
    77 H32      -0.3068    8.3966   -7.6675   H         1 RES1   0.0000
    78 H33       0.0745    8.9829   -6.0525   H         1 RES1   0.0000
    79 H34      -1.5853    8.5532   -6.4647   H         1 RES1   0.0000
    80 H35      -4.4694   -0.0192   -1.4216   H         1 RES1   0.0000
    81 H36      -2.6359    2.0943   -0.1951   H         1 RES1   0.0000
    82 H37      -4.3770    1.9479    0.1636   H         1 RES1   0.0000
    83 H38      -3.8281    2.5653   -1.3754   H         1 RES1   0.0000
    84 H39      -4.2368   -1.8581    0.1219   H         1 RES1   0.0000
    85 H40      -5.1063   -0.9062    2.1728   H         1 RES1   0.0000
    86 H41      -4.8216    0.4660    1.1543   H         1 RES1   0.0000
    87 H42      -2.4751    0.6279    2.3080   H         1 RES1   0.0000
    88 H43      -3.9042    1.0345    3.3045   H         1 RES1   0.0000
    89 H44      -3.1173   -0.5147    3.4793   H         1 RES1   0.0000
    90 H45      -4.4237   -4.4534    2.3100   H         1 RES1   0.0000
    91 H46      -4.9645   -2.8126    2.0665   H         1 RES1   0.0000
    92 H47      -5.4359   -2.8590    4.3201   H         1 RES1   0.0000
    93 H48      -3.7275   -2.5980    4.5502   H         1 RES1   0.0000
    94 H49      -3.7787   -5.3649    4.3253   H         1 RES1   0.0000
    95 H50      -5.3938   -5.0689    4.9329   H         1 RES1   0.0000
    96 H51      -4.1063   -5.4772    6.8385   H         1 RES1   0.0000
    97 H52      -4.2732   -3.7300    6.8411   H         1 RES1   0.0000
    98 H53      -1.9793   -3.4965    5.9333   H         1 RES1   0.0000
    99 H54      -1.8633   -5.2627    5.7668   H         1 RES1   0.0000
   100 H55      -1.8885   -5.5557    8.1596   H         1 RES1   0.0000
   101 H56      -2.3415   -3.8735    8.4292   H         1 RES1   0.0000
   102 H57      -0.1527   -3.1244    7.5286   H         1 RES1   0.0000
   103 H58      -0.0013   -4.1461    8.9480   H         1 RES1   0.0000
   104 H59       0.5180   -6.0996    7.4712   H         1 RES1   0.0000
   105 H60       1.6928   -4.7982    7.3361   H         1 RES1   0.0000
   106 H61       0.4884   -5.0320    6.0704   H         1 RES1   0.0000
   107 H62      -2.0800   -3.9566    3.8864   H         1 RES1   0.0000
   108 H63      -0.9115   -3.4541    2.6716   H         1 RES1   0.0000
   109 H64      -2.8985   -5.7099    2.1833   H         1 RES1   0.0000
   110 H65      -1.3516   -5.9888    2.9384   H         1 RES1   0.0000
   111 H66      -1.0902   -4.3910    0.4616   H         1 RES1   0.0000
   112 H67      -1.8703   -5.9402    0.1664   H         1 RES1   0.0000
   113 H68       0.4532   -6.1309   -0.1723   H         1 RES1   0.0000
   114 H69      -0.0354   -7.1540    1.1890   H         1 RES1   0.0000
   115 H70       1.0610   -4.4380    1.8624   H         1 RES1   0.0000
   116 H71       2.1751   -5.6158    1.1499   H         1 RES1   0.0000
   117 H72       1.5450   -7.2496    2.9288   H         1 RES1   0.0000
   118 H73       0.6744   -5.9567    3.7570   H         1 RES1   0.0000
   119 H74       2.6479   -4.6386    4.0215   H         1 RES1   0.0000
   120 H75       3.5519   -5.6063    2.8518   H         1 RES1   0.0000
   121 H76       2.6500   -6.6493    5.5734   H         1 RES1   0.0000
   122 H77       4.2741   -6.0940    5.1620   H         1 RES1   0.0000
   123 H78       3.6063   -7.5161    4.3710   H         1 RES1   0.0000
   124 C40       3.6292   -7.5600   -1.1803   C.3       1 RES1   0.0000
   125 C41       2.6886   -8.6146   -0.6079   C.3       1 RES1   0.0000
   126 C42       2.0926   -9.5519   -1.6577   C.3       1 RES1   0.0000
   127 C43       1.1288   -8.8881   -2.6433   C.3       1 RES1   0.0000
   128 C44      -0.1443   -8.4078   -1.9487   C.3       1 RES1   0.0000
   129 C45      -1.1433   -7.6322   -2.8185   C.3       1 RES1   0.0000
   130 C46      -0.5595   -6.5393   -3.7200   C.3       1 RES1   0.0000
   131 C47       0.2484   -5.3924   -3.0855   C.3       1 RES1   0.0000
   132 N3       -0.4756   -4.2380   -2.5297   N.am      1 RES1   0.0000
   133 C48      -1.7536   -3.8659   -3.1375   C.3       1 RES1   0.0000
   134 C49      -2.9747   -4.4988   -2.4771   C.3       1 RES1   0.0000
   135 C50      -4.2709   -4.0718   -3.1689   C.3       1 RES1   0.0000
   136 C51      -4.2833   -4.3633   -4.6809   C.3       1 RES1   0.0000
   137 C52      -4.0886   -3.0815   -5.4918   C.3       1 RES1   0.0000
   138 C53      -3.7717   -3.2826   -6.9703   C.3       1 RES1   0.0000
   139 C54      -3.5418   -1.9335   -7.6512   C.3       1 RES1   0.0000
   140 C55      -3.2356   -2.0633   -9.1376   C.3       1 RES1   0.0000
   141 C56       0.0479   -3.3231   -1.7084   C.2       1 RES1   0.0000
   142 O4       -0.6366   -2.3588   -1.3085   O.2       1 RES1   0.0000
   143 C57       1.5503   -3.2938   -1.3967   C.3       1 RES1   0.0000
   144 C58       2.1692   -2.8061   -2.7095   C.3       1 RES1   0.0000
   145 O5        1.7265   -2.3058   -0.3797   O.3       1 RES1   0.0000
   146 C59       2.8270   -2.4843    0.5234   C.3       1 RES1   0.0000
   147 C60       4.2021   -2.3430   -0.1668   C.3       1 RES1   0.0000
   148 C61       4.4339   -0.9304   -0.6903   C.3       1 RES1   0.0000
   149 C62       2.5228   -1.4624    1.6381   C.2       1 RES1   0.0000
   150 O6        1.6057   -0.6308    1.4424   O.2       1 RES1   0.0000
   151 N4        3.1530   -1.5178    2.8021   N.am      1 RES1   0.0000
   152 C63       4.3822   -2.2338    3.1040   C.3       1 RES1   0.0000
   153 C64       5.5850   -1.2677    3.1426   C.3       1 RES1   0.0000
   154 C65       6.0221   -0.8788    4.5678   C.3       1 RES1   0.0000
   155 C66       6.5915    0.5441    4.6556   C.3       1 RES1   0.0000
   156 C67       5.5539    1.6434    4.4245   C.3       1 RES1   0.0000
   157 C68       6.1721    3.0425    4.4090   C.3       1 RES1   0.0000
   158 C69       5.1774    4.1208    3.9696   C.3       1 RES1   0.0000
   159 C70       4.1700    4.4847    5.0557   C.3       1 RES1   0.0000
   160 C71       2.6445   -0.7314    3.9267   C.3       1 RES1   0.0000
   161 C72       1.8982   -1.6310    4.9189   C.3       1 RES1   0.0000
   162 C73       0.4426   -1.8923    4.5201   C.3       1 RES1   0.0000
   163 C74      -0.6000   -1.0507    5.2589   C.3       1 RES1   0.0000
   164 C75      -0.4656    0.4659    5.1154   C.3       1 RES1   0.0000
   165 C76       0.4701    1.1058    6.1420   C.3       1 RES1   0.0000
   166 C77       0.2864    2.6174    6.2501   C.3       1 RES1   0.0000
   167 C78       1.0622    3.2032    7.4228   C.3       1 RES1   0.0000
   168 H79       4.1199   -7.0165   -0.3745   H         1 RES1   0.0000
   169 H80       4.3995   -8.0250   -1.7886   H         1 RES1   0.0000
   170 H81       3.1019   -6.8396   -1.8035   H         1 RES1   0.0000
   171 H82       3.2532   -9.2189    0.0994   H         1 RES1   0.0000
   172 H83       1.9003   -8.1227   -0.0376   H         1 RES1   0.0000
   173 H84       2.9138  -10.0020   -2.2135   H         1 RES1   0.0000
   174 H85       1.5729  -10.3563   -1.1380   H         1 RES1   0.0000
   175 H86       1.6376   -8.0576   -3.1369   H         1 RES1   0.0000
   176 H87       0.8608   -9.6123   -3.4113   H         1 RES1   0.0000
   177 H88      -0.6693   -9.2827   -1.5504   H         1 RES1   0.0000
   178 H89       0.1314   -7.7912   -1.0987   H         1 RES1   0.0000
   179 H90      -1.6520   -8.3292   -3.4864   H         1 RES1   0.0000
   180 H91      -1.9002   -7.2206   -2.1464   H         1 RES1   0.0000
   181 H92       0.1323   -7.0335   -4.4070   H         1 RES1   0.0000
   182 H93      -1.3613   -6.1354   -4.3409   H         1 RES1   0.0000
   183 H94       0.8862   -5.7984   -2.2998   H         1 RES1   0.0000
   184 H95       0.8910   -5.0224   -3.8934   H         1 RES1   0.0000
   185 H96      -1.8432   -2.7787   -3.0564   H         1 RES1   0.0000
   186 H97      -1.7028   -4.1346   -4.1909   H         1 RES1   0.0000
   187 H98      -2.9021   -5.5821   -2.5200   H         1 RES1   0.0000
   188 H99      -3.0032   -4.2051   -1.4251   H         1 RES1   0.0000
   189 H100     -5.0977   -4.5872   -2.6794   H         1 RES1   0.0000
   190 H101     -4.4150   -2.9998   -3.0148   H         1 RES1   0.0000
   191 H102     -3.5060   -5.0881   -4.9264   H         1 RES1   0.0000
   192 H103     -5.2298   -4.8202   -4.9663   H         1 RES1   0.0000
   193 H104     -5.0050   -2.4989   -5.4200   H         1 RES1   0.0000
   194 H105     -3.2798   -2.4920   -5.0479   H         1 RES1   0.0000
   195 H106     -2.8780   -3.8988   -7.0846   H         1 RES1   0.0000
   196 H107     -4.5968   -3.7977   -7.4620   H         1 RES1   0.0000
   197 H108     -4.4337   -1.3168   -7.5265   H         1 RES1   0.0000
   198 H109     -2.7130   -1.4201   -7.1557   H         1 RES1   0.0000
   199 H110     -4.0681   -2.5282   -9.6588   H         1 RES1   0.0000
   200 H111     -3.0663   -1.0815   -9.5752   H         1 RES1   0.0000
   201 H112     -2.3484   -2.6722   -9.2976   H         1 RES1   0.0000
   202 H113      1.9536   -4.2568   -1.0620   H         1 RES1   0.0000
   203 H114      1.6245   -1.9154   -3.0266   H         1 RES1   0.0000
   204 H115      3.2179   -2.5631   -2.5942   H         1 RES1   0.0000
   205 H116      2.0882   -3.5676   -3.4752   H         1 RES1   0.0000
   206 H117      2.7679   -3.4872    0.9726   H         1 RES1   0.0000
   207 H118      5.0052   -2.6221    0.5121   H         1 RES1   0.0000
   208 H119      4.2417   -3.0707   -0.9797   H         1 RES1   0.0000
   209 H120      4.7812   -0.2738    0.1014   H         1 RES1   0.0000
   210 H121      5.1823   -0.9229   -1.4740   H         1 RES1   0.0000
   211 H122      3.5004   -0.5404   -1.0912   H         1 RES1   0.0000
   212 H123      4.2766   -2.6992    4.0846   H         1 RES1   0.0000
   213 H124      4.5268   -3.0308    2.3822   H         1 RES1   0.0000
   214 H125      6.4337   -1.7191    2.6289   H         1 RES1   0.0000
   215 H126      5.3140   -0.3719    2.5805   H         1 RES1   0.0000
   216 H127      5.1933   -0.9728    5.2736   H         1 RES1   0.0000
   217 H128      6.7867   -1.5783    4.9094   H         1 RES1   0.0000
   218 H129      7.0221    0.6780    5.6480   H         1 RES1   0.0000
   219 H130      7.4073    0.6483    3.9383   H         1 RES1   0.0000
   220 H131      5.0456    1.4878    3.4680   H         1 RES1   0.0000
   221 H132      4.8042    1.5874    5.2165   H         1 RES1   0.0000
   222 H133      6.5497    3.2846    5.4025   H         1 RES1   0.0000
   223 H134      7.0228    3.0453    3.7251   H         1 RES1   0.0000
   224 H135      5.7278    5.0205    3.6936   H         1 RES1   0.0000
   225 H136      4.6490    3.7747    3.0750   H         1 RES1   0.0000
   226 H137      4.6769    4.9326    5.9058   H         1 RES1   0.0000
   227 H138      3.4446    5.2065    4.6846   H         1 RES1   0.0000
   228 H139      3.6348    3.6076    5.4132   H         1 RES1   0.0000
   229 H140      3.4922   -0.2472    4.4059   H         1 RES1   0.0000
   230 H141      1.9813    0.0392    3.5452   H         1 RES1   0.0000
   231 H142      2.4213   -2.5829    4.9832   H         1 RES1   0.0000
   232 H143      1.9345   -1.1997    5.9175   H         1 RES1   0.0000
   233 H144      0.3229   -1.7274    3.4448   H         1 RES1   0.0000
   234 H145      0.2138   -2.9401    4.7291   H         1 RES1   0.0000
   235 H146     -1.5767   -1.3475    4.8648   H         1 RES1   0.0000
   236 H147     -0.5821   -1.3091    6.3195   H         1 RES1   0.0000
   237 H148     -0.1641    0.7059    4.0923   H         1 RES1   0.0000
   238 H149     -1.4547    0.9047    5.2606   H         1 RES1   0.0000
   239 H150      0.2641    0.6691    7.1230   H         1 RES1   0.0000
   240 H151      1.5096    0.9009    5.8909   H         1 RES1   0.0000
   241 H152      0.6249    3.0953    5.3297   H         1 RES1   0.0000
   242 H153     -0.7718    2.8369    6.3840   H         1 RES1   0.0000
   243 H154      2.1118    2.9190    7.3821   H         1 RES1   0.0000
   244 H155      1.0081    4.2881    7.4071   H         1 RES1   0.0000
   245 H156      0.6456    2.8536    8.3636   H         1 RES1   0.0000
   246 C79       4.0710    6.4696   -0.4832   C.3       1 RES1   0.0000
   247 C80       2.7863    7.0814   -1.0344   C.3       1 RES1   0.0000
   248 C81       2.9085    7.5600   -2.4818   C.3       1 RES1   0.0000
   249 C82       3.2672    6.4701   -3.4928   C.3       1 RES1   0.0000
   250 C83       2.1813    5.4039   -3.6293   C.3       1 RES1   0.0000
   251 C84       2.4759    4.3379   -4.6898   C.3       1 RES1   0.0000
   252 C85       3.8115    3.6107   -4.5289   C.3       1 RES1   0.0000
   253 C86       3.9774    2.8865   -3.1885   C.3       1 RES1   0.0000
   254 N5        2.9970    1.8283   -2.9595   N.am      1 RES1   0.0000
   255 C87       3.0139    0.7296   -3.9275   C.3       1 RES1   0.0000
   256 C88       1.9447    0.8541   -5.0140   C.3       1 RES1   0.0000
   257 C89       1.7066   -0.4446   -5.7902   C.3       1 RES1   0.0000
   258 C90       2.9509   -1.0608   -6.4605   C.3       1 RES1   0.0000
   259 C91       3.5038   -2.2480   -5.6709   C.3       1 RES1   0.0000
   260 C92       4.7050   -2.9396   -6.3097   C.3       1 RES1   0.0000
   261 C93       5.1969   -4.1021   -5.4480   C.3       1 RES1   0.0000
   262 C94       6.4048   -4.7956   -6.0602   C.3       1 RES1   0.0000
   263 C95       2.2316    1.6779   -1.8814   C.2       1 RES1   0.0000
   264 O7        1.5146    0.6613   -1.7273   O.2       1 RES1   0.0000
   265 C96       2.2990    2.6916   -0.7357   C.3       1 RES1   0.0000
   266 C97       3.5964    2.3956    0.0347   C.3       1 RES1   0.0000
   267 O8        1.1249    2.4672    0.0471   O.3       1 RES1   0.0000
   268 C98       0.6428    3.5734    0.8230   C.3       1 RES1   0.0000
   269 C99       1.5621    3.8867    2.0168   C.3       1 RES1   0.0000
   270 C100      1.7375    2.6483    2.8760   C.3       1 RES1   0.0000
   271 C101     -0.7616    3.1220    1.2679   C.2       1 RES1   0.0000
   272 O9       -1.0718    1.9249    1.0468   O.2       1 RES1   0.0000
   273 N6       -1.6269    3.9887    1.8018   N.am      1 RES1   0.0000
   274 C102     -1.2953    5.2944    2.3488   C.3       1 RES1   0.0000
   275 C103     -1.0914    5.2443    3.8810   C.3       1 RES1   0.0000
   276 C104     -2.2000    5.9120    4.7135   C.3       1 RES1   0.0000
   277 C105     -2.4691    5.2281    6.0609   C.3       1 RES1   0.0000
   278 C106     -3.2244    3.9029    5.9340   C.3       1 RES1   0.0000
   279 C107     -3.4518    3.1985    7.2766   C.3       1 RES1   0.0000
   280 C108     -3.8177    1.7206    7.1108   C.3       1 RES1   0.0000
   281 C109     -5.1823    1.4898    6.4730   C.3       1 RES1   0.0000
   282 C110     -2.9571    3.5302    2.2284   C.3       1 RES1   0.0000
   283 C111     -4.1586    4.4767    2.0455   C.3       1 RES1   0.0000
   284 C112     -4.6517    4.7921    0.6226   C.3       1 RES1   0.0000
   285 C113     -6.1777    4.6968    0.4480   C.3       1 RES1   0.0000
   286 C114     -6.8381    3.3123    0.4337   C.3       1 RES1   0.0000
   287 C115     -6.8784    2.5624    1.7648   C.3       1 RES1   0.0000
   288 C116     -7.6691    1.2581    1.6584   C.3       1 RES1   0.0000
   289 C117     -7.7046    0.5140    2.9899   C.3       1 RES1   0.0000
   290 H157      3.9745    6.2767    0.5850   H         1 RES1   0.0000
   291 H158      4.9025    7.1560   -0.6252   H         1 RES1   0.0000
   292 H159      4.3205    5.5320   -0.9788   H         1 RES1   0.0000
   293 H160      2.5315    7.9453   -0.4220   H         1 RES1   0.0000
   294 H161      1.9613    6.3682   -0.9392   H         1 RES1   0.0000
   295 H162      3.6781    8.3303   -2.5260   H         1 RES1   0.0000
   296 H163      1.9639    8.0190   -2.7770   H         1 RES1   0.0000
   297 H164      4.2158    6.0120   -3.2105   H         1 RES1   0.0000
   298 H165      3.4083    6.9392   -4.4682   H         1 RES1   0.0000
   299 H166      1.2480    5.8995   -3.9023   H         1 RES1   0.0000
   300 H167      2.0099    4.9145   -2.6666   H         1 RES1   0.0000
   301 H168      2.4792    4.8108   -5.6734   H         1 RES1   0.0000
   302 H169      1.6575    3.6146   -4.6748   H         1 RES1   0.0000
   303 H170      4.6263    4.3294   -4.6144   H         1 RES1   0.0000
   304 H171      3.9349    2.9025   -5.3478   H         1 RES1   0.0000
   305 H172      3.9286    3.6144   -2.3830   H         1 RES1   0.0000
   306 H173      4.9729    2.4234   -3.1671   H         1 RES1   0.0000
   307 H174      2.8204   -0.1842   -3.3682   H         1 RES1   0.0000
   308 H175      4.0123    0.6772   -4.3664   H         1 RES1   0.0000
   309 H176      2.2059    1.6396   -5.7222   H         1 RES1   0.0000
   310 H177      1.0088    1.1262   -4.5189   H         1 RES1   0.0000
   311 H178      0.9610   -0.2250   -6.5567   H         1 RES1   0.0000
   312 H179      1.2645   -1.1793   -5.1140   H         1 RES1   0.0000
   313 H180      3.7233   -0.2990   -6.5791   H         1 RES1   0.0000
   314 H181      2.6891   -1.4085   -7.4609   H         1 RES1   0.0000
   315 H182      2.7014   -2.9828   -5.5630   H         1 RES1   0.0000
   316 H183      3.7929   -1.9045   -4.6761   H         1 RES1   0.0000
   317 H184      5.5178   -2.2233   -6.4391   H         1 RES1   0.0000
   318 H185      4.4334   -3.3200   -7.2958   H         1 RES1   0.0000
   319 H186      4.3886   -4.8279   -5.3272   H         1 RES1   0.0000
   320 H187      5.4598   -3.7330   -4.4520   H         1 RES1   0.0000
   321 H188      6.1557   -5.2073   -7.0325   H         1 RES1   0.0000
   322 H189      6.7407   -5.6108   -5.4272   H         1 RES1   0.0000
   323 H190      7.2268   -4.0973   -6.1879   H         1 RES1   0.0000
   324 H191      2.2988    3.7247   -1.1046   H         1 RES1   0.0000
   325 H192      3.4440    1.5124    0.6486   H         1 RES1   0.0000
   326 H193      3.8874    3.2239    0.6751   H         1 RES1   0.0000
   327 H194      4.4151    2.2135   -0.6545   H         1 RES1   0.0000
   328 H195      0.5440    4.4613    0.1764   H         1 RES1   0.0000
   329 H196      1.1426    4.6874    2.6135   H         1 RES1   0.0000
   330 H197      2.5251    4.2452    1.6564   H         1 RES1   0.0000
   331 H198      0.7773    2.3431    3.2774   H         1 RES1   0.0000
   332 H199      2.4199    2.8389    3.6960   H         1 RES1   0.0000
   333 H200      2.1281    1.8319    2.2803   H         1 RES1   0.0000
   334 H201     -2.1248    5.9613    2.1158   H         1 RES1   0.0000
   335 H202     -0.4260    5.6907    1.8350   H         1 RES1   0.0000
   336 H203     -0.1517    5.7409    4.1293   H         1 RES1   0.0000
   337 H204     -0.9801    4.2037    4.1872   H         1 RES1   0.0000
   338 H205     -3.1379    5.9479    4.1695   H         1 RES1   0.0000
   339 H206     -1.9198    6.9475    4.8973   H         1 RES1   0.0000
   340 H207     -3.0626    5.9105    6.6715   H         1 RES1   0.0000
   341 H208     -1.5251    5.0709    6.5841   H         1 RES1   0.0000
   342 H209     -2.6603    3.2206    5.2879   H         1 RES1   0.0000
   343 H210     -4.1891    4.0896    5.4569   H         1 RES1   0.0000
   344 H211     -4.2433    3.7079    7.8279   H         1 RES1   0.0000
   345 H212     -2.5425    3.2645    7.8809   H         1 RES1   0.0000
   346 H213     -3.8081    1.2460    8.0911   H         1 RES1   0.0000
   347 H214     -3.0493    1.2245    6.5119   H         1 RES1   0.0000
   348 H215     -5.9649    1.9160    7.0931   H         1 RES1   0.0000
   349 H216     -5.3803    0.4244    6.3753   H         1 RES1   0.0000
   350 H217     -5.2472    1.9414    5.4850   H         1 RES1   0.0000
   351 H218     -2.8874    3.3369    3.3018   H         1 RES1   0.0000
   352 H219     -3.1531    2.5877    1.7413   H         1 RES1   0.0000
   353 H220     -3.9803    5.4117    2.5619   H         1 RES1   0.0000
   354 H221     -4.9695    4.0081    2.6017   H         1 RES1   0.0000
   355 H222     -4.1476    4.1657   -0.1044   H         1 RES1   0.0000
   356 H223     -4.3733    5.8217    0.3805   H         1 RES1   0.0000
   357 H224     -6.4180    5.1641   -0.5094   H         1 RES1   0.0000
   358 H225     -6.6472    5.2996    1.2267   H         1 RES1   0.0000
   359 H226     -6.3762    2.6880   -0.3308   H         1 RES1   0.0000
   360 H227     -7.8736    3.4590    0.1258   H         1 RES1   0.0000
   361 H228     -7.3422    3.1967    2.5199   H         1 RES1   0.0000
   362 H229     -5.8722    2.3136    2.1048   H         1 RES1   0.0000
   363 H230     -8.6895    1.4768    1.3436   H         1 RES1   0.0000
   364 H231     -7.2212    0.6194    0.8894   H         1 RES1   0.0000
   365 H232     -6.7011    0.3668    3.3861   H         1 RES1   0.0000
   366 H233     -8.1707   -0.4599    2.8697   H         1 RES1   0.0000
   367 H234     -8.2761    1.0744    3.7236   H         1 RES1   0.0000
@<TRIPOS>BOND
     1     1    20    1
     2     1    23    1
     3     1    28    1
     4     1   142    1
     5     1   145    1
     6     1   150    1
     7     1   264    1
     8     1   267    1
     9     1   272    1
    10     2     3    1
    11     2    46    1
    12     2    47    1
    13     2    48    1
    14     3     4    1
    15     3    49    1
    16     3    50    1
    17     4     5    1
    18     4    51    1
    19     4    52    1
    20     5     6    1
    21     5    53    1
    22     5    54    1
    23     6     7    1
    24     6    55    1
    25     6    56    1
    26     7     8    1
    27     7    57    1
    28     7    58    1
    29     8     9    1
    30     8    59    1
    31     8    60    1
    32     9    10    1
    33     9    61    1
    34     9    62    1
    35    10    11    1
    36    10    19    1
    37    11    12    1
    38    11    63    1
    39    11    64    1
    40    12    13    1
    41    12    65    1
    42    12    66    1
    43    13    14    1
    44    13    67    1
    45    13    68    1
    46    14    15    1
    47    14    69    1
    48    14    70    1
    49    15    16    1
    50    15    71    1
    51    15    72    1
    52    16    17    1
    53    16    73    1
    54    16    74    1
    55    17    18    1
    56    17    75    1
    57    17    76    1
    58    18    77    1
    59    18    78    1
    60    18    79    1
    61    19    20    2
    62    19    21    1
    63    21    22    1
    64    21    23    1
    65    21    80    1
    66    22    81    1
    67    22    82    1
    68    22    83    1
    69    23    24    1
    70    24    25    1
    71    24    27    1
    72    24    84    1
    73    25    26    1
    74    25    85    1
    75    25    86    1
    76    26    87    1
    77    26    88    1
    78    26    89    1
    79    27    28    2
    80    27    29    1
    81    29    30    1
    82    29    38    1
    83    30    31    1
    84    30    90    1
    85    30    91    1
    86    31    32    1
    87    31    92    1
    88    31    93    1
    89    32    33    1
    90    32    94    1
    91    32    95    1
    92    33    34    1
    93    33    96    1
    94    33    97    1
    95    34    35    1
    96    34    98    1
    97    34    99    1
    98    35    36    1
    99    35   100    1
   100    35   101    1
   101    36    37    1
   102    36   102    1
   103    36   103    1
   104    37   104    1
   105    37   105    1
   106    37   106    1
   107    38    39    1
   108    38   107    1
   109    38   108    1
   110    39    40    1
   111    39   109    1
   112    39   110    1
   113    40    41    1
   114    40   111    1
   115    40   112    1
   116    41    42    1
   117    41   113    1
   118    41   114    1
   119    42    43    1
   120    42   115    1
   121    42   116    1
   122    43    44    1
   123    43   117    1
   124    43   118    1
   125    44    45    1
   126    44   119    1
   127    44   120    1
   128    45   121    1
   129    45   122    1
   130    45   123    1
   131   124   125    1
   132   124   168    1
   133   124   169    1
   134   124   170    1
   135   125   126    1
   136   125   171    1
   137   125   172    1
   138   126   127    1
   139   126   173    1
   140   126   174    1
   141   127   128    1
   142   127   175    1
   143   127   176    1
   144   128   129    1
   145   128   177    1
   146   128   178    1
   147   129   130    1
   148   129   179    1
   149   129   180    1
   150   130   131    1
   151   130   181    1
   152   130   182    1
   153   131   132    1
   154   131   183    1
   155   131   184    1
   156   132   133    1
   157   132   141    1
   158   133   134    1
   159   133   185    1
   160   133   186    1
   161   134   135    1
   162   134   187    1
   163   134   188    1
   164   135   136    1
   165   135   189    1
   166   135   190    1
   167   136   137    1
   168   136   191    1
   169   136   192    1
   170   137   138    1
   171   137   193    1
   172   137   194    1
   173   138   139    1
   174   138   195    1
   175   138   196    1
   176   139   140    1
   177   139   197    1
   178   139   198    1
   179   140   199    1
   180   140   200    1
   181   140   201    1
   182   141   142    2
   183   141   143    1
   184   143   144    1
   185   143   145    1
   186   143   202    1
   187   144   203    1
   188   144   204    1
   189   144   205    1
   190   145   146    1
   191   146   147    1
   192   146   149    1
   193   146   206    1
   194   147   148    1
   195   147   207    1
   196   147   208    1
   197   148   209    1
   198   148   210    1
   199   148   211    1
   200   149   150    2
   201   149   151    1
   202   151   152    1
   203   151   160    1
   204   152   153    1
   205   152   212    1
   206   152   213    1
   207   153   154    1
   208   153   214    1
   209   153   215    1
   210   154   155    1
   211   154   216    1
   212   154   217    1
   213   155   156    1
   214   155   218    1
   215   155   219    1
   216   156   157    1
   217   156   220    1
   218   156   221    1
   219   157   158    1
   220   157   222    1
   221   157   223    1
   222   158   159    1
   223   158   224    1
   224   158   225    1
   225   159   226    1
   226   159   227    1
   227   159   228    1
   228   160   161    1
   229   160   229    1
   230   160   230    1
   231   161   162    1
   232   161   231    1
   233   161   232    1
   234   162   163    1
   235   162   233    1
   236   162   234    1
   237   163   164    1
   238   163   235    1
   239   163   236    1
   240   164   165    1
   241   164   237    1
   242   164   238    1
   243   165   166    1
   244   165   239    1
   245   165   240    1
   246   166   167    1
   247   166   241    1
   248   166   242    1
   249   167   243    1
   250   167   244    1
   251   167   245    1
   252   246   247    1
   253   246   290    1
   254   246   291    1
   255   246   292    1
   256   247   248    1
   257   247   293    1
   258   247   294    1
   259   248   249    1
   260   248   295    1
   261   248   296    1
   262   249   250    1
   263   249   297    1
   264   249   298    1
   265   250   251    1
   266   250   299    1
   267   250   300    1
   268   251   252    1
   269   251   301    1
   270   251   302    1
   271   252   253    1
   272   252   303    1
   273   252   304    1
   274   253   254    1
   275   253   305    1
   276   253   306    1
   277   254   255    1
   278   254   263    1
   279   255   256    1
   280   255   307    1
   281   255   308    1
   282   256   257    1
   283   256   309    1
   284   256   310    1
   285   257   258    1
   286   257   311    1
   287   257   312    1
   288   258   259    1
   289   258   313    1
   290   258   314    1
   291   259   260    1
   292   259   315    1
   293   259   316    1
   294   260   261    1
   295   260   317    1
   296   260   318    1
   297   261   262    1
   298   261   319    1
   299   261   320    1
   300   262   321    1
   301   262   322    1
   302   262   323    1
   303   263   264    2
   304   263   265    1
   305   265   266    1
   306   265   267    1
   307   265   324    1
   308   266   325    1
   309   266   326    1
   310   266   327    1
   311   267   268    1
   312   268   269    1
   313   268   271    1
   314   268   328    1
   315   269   270    1
   316   269   329    1
   317   269   330    1
   318   270   331    1
   319   270   332    1
   320   270   333    1
   321   271   272    2
   322   271   273    1
   323   273   274    1
   324   273   282    1
   325   274   275    1
   326   274   334    1
   327   274   335    1
   328   275   276    1
   329   275   336    1
   330   275   337    1
   331   276   277    1
   332   276   338    1
   333   276   339    1
   334   277   278    1
   335   277   340    1
   336   277   341    1
   337   278   279    1
   338   278   342    1
   339   278   343    1
   340   279   280    1
   341   279   344    1
   342   279   345    1
   343   280   281    1
   344   280   346    1
   345   280   347    1
   346   281   348    1
   347   281   349    1
   348   281   350    1
   349   282   283    1
   350   282   351    1
   351   282   352    1
   352   283   284    1
   353   283   353    1
   354   283   354    1
   355   284   285    1
   356   284   355    1
   357   284   356    1
   358   285   286    1
   359   285   357    1
   360   285   358    1
   361   286   287    1
   362   286   359    1
   363   286   360    1
   364   287   288    1
   365   287   361    1
   366   287   362    1
   367   288   289    1
   368   288   363    1
   369   288   364    1
   370   289   365    1
   371   289   366    1
   372   289   367    1
@<TRIPOS>SUBSTRUCTURE
     1 RES1      367 GROUP             0 ****  ****    0  
