@<TRIPOS>MOLECULE
am_c3_9H2O_c0_0_nunpairedes_0_charge_3 Charge: 3 Unpaired_Electrons: 0 XTB_Unpaired_Electrons: 0 XTB_Charge: 3
   250   255     1     0     0
SMALL
NoCharges
****
Generated from Architector

@<TRIPOS>ATOM
     1 La1       0.1648    0.1683   -0.0017   La        1 RES1   0.0000
     2 C1       -2.7432   -8.2308    0.8032   C.3       1 RES1   0.0000
     3 C2       -3.6531   -7.1205    1.3193   C.3       1 RES1   0.0000
     4 C3       -4.1652   -7.3442    2.7466   C.3       1 RES1   0.0000
     5 C4       -4.9927   -6.1568    3.2658   C.3       1 RES1   0.0000
     6 C5       -4.2645   -5.0975    4.1236   C.3       1 RES1   0.0000
     7 C6       -4.9288   -3.7211    3.9183   C.3       1 RES1   0.0000
     8 C7       -4.1229   -2.4262    4.1835   C.3       1 RES1   0.0000
     9 C8       -4.4684   -1.4486    3.0436   C.3       1 RES1   0.0000
    10 N1       -4.0185   -0.0562    3.1341   N.am      1 RES1   0.0000
    11 C9       -5.0119    0.8797    3.6491   C.3       1 RES1   0.0000
    12 C10      -6.1311    1.1756    2.6406   C.3       1 RES1   0.0000
    13 C11      -5.7005    1.8604    1.3531   C.3       1 RES1   0.0000
    14 C12      -2.8974    0.3036    2.5142   C.2       1 RES1   0.0000
    15 O1       -2.1332   -0.4891    1.9442   O.2       1 RES1   0.0000
    16 C13      -2.4800    1.7746    2.4480   C.3       1 RES1   0.0000
    17 O2       -1.6793    1.9057    1.2661   O.3       1 RES1   0.0000
    18 C14      -2.1347    2.9416    0.4216   C.3       1 RES1   0.0000
    19 C15      -1.4603    2.8237   -0.9363   C.2       1 RES1   0.0000
    20 O3       -0.9691    1.7246   -1.2912   O.2       1 RES1   0.0000
    21 N2       -1.4639    3.8953   -1.7010   N.am      1 RES1   0.0000
    22 C16      -2.2204    5.1076   -1.4273   C.3       1 RES1   0.0000
    23 C17      -3.6854    4.9337   -1.8391   C.3       1 RES1   0.0000
    24 C18      -4.5185    6.1398   -1.4329   C.3       1 RES1   0.0000
    25 C19      -0.8130    3.8897   -3.0017   C.3       1 RES1   0.0000
    26 C20       0.4763    4.7166   -2.9635   C.3       1 RES1   0.0000
    27 C21       1.7031    3.8144   -2.8935   C.3       1 RES1   0.0000
    28 C22       3.0062    4.6116   -2.9676   C.3       1 RES1   0.0000
    29 C23       3.4436    5.2750   -1.6609   C.3       1 RES1   0.0000
    30 C24       4.0591    4.2930   -0.6625   C.3       1 RES1   0.0000
    31 C25       4.8327    5.0166    0.4406   C.3       1 RES1   0.0000
    32 C26       5.4601    4.0471    1.4404   C.3       1 RES1   0.0000
    33 H1       -2.4105   -8.0091   -0.2127   H         1 RES1   0.0000
    34 H2       -1.8663   -8.3481    1.4366   H         1 RES1   0.0000
    35 H3       -3.2745   -9.1759    0.7775   H         1 RES1   0.0000
    36 H4       -3.0931   -6.1866    1.2819   H         1 RES1   0.0000
    37 H5       -4.5065   -7.0281    0.6414   H         1 RES1   0.0000
    38 H6       -4.8076   -8.2237    2.7323   H         1 RES1   0.0000
    39 H7       -3.3348   -7.5619    3.4194   H         1 RES1   0.0000
    40 H8       -5.4294   -5.6696    2.3890   H         1 RES1   0.0000
    41 H9       -5.8261   -6.5441    3.8458   H         1 RES1   0.0000
    42 H10      -4.3375   -5.3752    5.1766   H         1 RES1   0.0000
    43 H11      -3.1991   -5.0605    3.8927   H         1 RES1   0.0000
    44 H12      -5.2547   -3.6631    2.8772   H         1 RES1   0.0000
    45 H13      -5.8286   -3.7014    4.5325   H         1 RES1   0.0000
    46 H14      -4.4236   -2.0018    5.1446   H         1 RES1   0.0000
    47 H15      -3.0517   -2.6136    4.2243   H         1 RES1   0.0000
    48 H16      -4.0594   -1.8465    2.1143   H         1 RES1   0.0000
    49 H17      -5.5591   -1.4307    2.9723   H         1 RES1   0.0000
    50 H18      -5.4687    0.4096    4.5202   H         1 RES1   0.0000
    51 H19      -4.5273    1.8008    3.9732   H         1 RES1   0.0000
    52 H20      -6.6203    0.2394    2.3779   H         1 RES1   0.0000
    53 H21      -6.8882    1.7854    3.1349   H         1 RES1   0.0000
    54 H22      -4.9415    1.2779    0.8296   H         1 RES1   0.0000
    55 H23      -6.5560    1.9566    0.6904   H         1 RES1   0.0000
    56 H24      -5.3297    2.8622    1.5466   H         1 RES1   0.0000
    57 H25      -3.3249    2.4629    2.4142   H         1 RES1   0.0000
    58 H26      -1.8621    2.0126    3.3221   H         1 RES1   0.0000
    59 H27      -3.2205    2.8595    0.2573   H         1 RES1   0.0000
    60 H28      -1.9031    3.9087    0.8797   H         1 RES1   0.0000
    61 H29      -2.1590    5.3940   -0.3761   H         1 RES1   0.0000
    62 H30      -1.7728    5.9166   -2.0046   H         1 RES1   0.0000
    63 H31      -3.7298    4.8050   -2.9202   H         1 RES1   0.0000
    64 H32      -4.0908    4.0299   -1.3798   H         1 RES1   0.0000
    65 H33      -4.1178    7.0496   -1.8698   H         1 RES1   0.0000
    66 H34      -5.5431    6.0176   -1.7728   H         1 RES1   0.0000
    67 H35      -4.5357    6.2516   -0.3540   H         1 RES1   0.0000
    68 H36      -0.5852    2.8566   -3.2571   H         1 RES1   0.0000
    69 H37      -1.5205    4.2825   -3.7293   H         1 RES1   0.0000
    70 H38       0.5408    5.3366   -3.8585   H         1 RES1   0.0000
    71 H39       0.4610    5.3865   -2.1035   H         1 RES1   0.0000
    72 H40       1.6648    3.1921   -1.9905   H         1 RES1   0.0000
    73 H41       1.6665    3.1481   -3.7540   H         1 RES1   0.0000
    74 H42       3.8071    3.9530   -3.3073   H         1 RES1   0.0000
    75 H43       2.8861    5.3833   -3.7298   H         1 RES1   0.0000
    76 H44       4.1948    6.0273   -1.9041   H         1 RES1   0.0000
    77 H45       2.6019    5.7966   -1.1999   H         1 RES1   0.0000
    78 H46       3.2792    3.6609   -0.2200   H         1 RES1   0.0000
    79 H47       4.7535    3.6403   -1.1951   H         1 RES1   0.0000
    80 H48       5.6289    5.6083   -0.0139   H         1 RES1   0.0000
    81 H49       4.1726    5.7104    0.9658   H         1 RES1   0.0000
    82 H50       6.1424    3.3658    0.9320   H         1 RES1   0.0000
    83 H51       6.0316    4.5888    2.1936   H         1 RES1   0.0000
    84 H52       4.6929    3.4562    1.9478   H         1 RES1   0.0000
    85 C27      -3.1013   -0.9209   -4.9806   C.3       1 RES1   0.0000
    86 C28      -1.8628   -1.5450   -5.6195   C.3       1 RES1   0.0000
    87 C29      -1.0319   -0.5182   -6.3964   C.3       1 RES1   0.0000
    88 C30      -0.0909    0.3218   -5.5234   C.3       1 RES1   0.0000
    89 C31       1.2905   -0.3074   -5.3364   C.3       1 RES1   0.0000
    90 C32       2.2324    0.6728   -4.6403   C.3       1 RES1   0.0000
    91 C33       3.6017    0.0913   -4.2866   C.3       1 RES1   0.0000
    92 C34       3.5478   -0.7921   -3.0345   C.3       1 RES1   0.0000
    93 N3        4.0368   -0.2086   -1.7799   N.am      1 RES1   0.0000
    94 C35       5.4406   -0.4452   -1.4462   C.3       1 RES1   0.0000
    95 C36       6.2693    0.8260   -1.2347   C.3       1 RES1   0.0000
    96 C37       6.4566    1.6259   -2.5162   C.3       1 RES1   0.0000
    97 C38       3.1640    0.3278   -0.9348   C.2       1 RES1   0.0000
    98 O4        2.0136    0.6682   -1.2836   O.2       1 RES1   0.0000
    99 C39       3.5585    0.5127    0.5383   C.3       1 RES1   0.0000
   100 O5        2.4185    0.2117    1.3578   O.3       1 RES1   0.0000
   101 C40       2.3630    1.0280    2.5266   C.3       1 RES1   0.0000
   102 C41       1.7101    2.3661    2.1194   C.2       1 RES1   0.0000
   103 O6        0.9853    2.3152    1.1021   O.2       1 RES1   0.0000
   104 N4        1.9631    3.4932    2.7640   N.am      1 RES1   0.0000
   105 C42       1.5362    4.7605    2.1619   C.3       1 RES1   0.0000
   106 C43       0.1104    5.2015    2.5079   C.3       1 RES1   0.0000
   107 C44      -0.2703    6.4384    1.7001   C.3       1 RES1   0.0000
   108 C45       2.6853    3.5760    4.0277   C.3       1 RES1   0.0000
   109 C46       1.8522    4.1200    5.1932   C.3       1 RES1   0.0000
   110 C47       0.6847    3.2218    5.6040   C.3       1 RES1   0.0000
   111 C48      -0.2630    3.9684    6.5503   C.3       1 RES1   0.0000
   112 C49      -1.0803    3.0918    7.4978   C.3       1 RES1   0.0000
   113 C50      -2.0485    2.1210    6.8197   C.3       1 RES1   0.0000
   114 C51      -1.3908    0.8189    6.3530   C.3       1 RES1   0.0000
   115 C52      -2.3973   -0.3202    6.2806   C.3       1 RES1   0.0000
   116 H53      -3.6787   -1.6717   -4.4450   H         1 RES1   0.0000
   117 H54      -3.7400   -0.4988   -5.7530   H         1 RES1   0.0000
   118 H55      -2.8286   -0.1253   -4.2885   H         1 RES1   0.0000
   119 H56      -2.1860   -2.3285   -6.3083   H         1 RES1   0.0000
   120 H57      -1.2419   -2.0097   -4.8484   H         1 RES1   0.0000
   121 H58      -1.7205    0.1433   -6.9230   H         1 RES1   0.0000
   122 H59      -0.4395   -1.0308   -7.1555   H         1 RES1   0.0000
   123 H60      -0.5416    0.4804   -4.5382   H         1 RES1   0.0000
   124 H61       0.0405    1.3010   -5.9900   H         1 RES1   0.0000
   125 H62       1.7012   -0.5719   -6.3125   H         1 RES1   0.0000
   126 H63       1.2010   -1.2272   -4.7552   H         1 RES1   0.0000
   127 H64       1.7599    1.0206   -3.7161   H         1 RES1   0.0000
   128 H65       2.3812    1.5232   -5.3089   H         1 RES1   0.0000
   129 H66       4.3066    0.9028   -4.1261   H         1 RES1   0.0000
   130 H67       3.9737   -0.4945   -5.1286   H         1 RES1   0.0000
   131 H68       4.1384   -1.6937   -3.1898   H         1 RES1   0.0000
   132 H69       2.5095   -1.0755   -2.8581   H         1 RES1   0.0000
   133 H70       5.8887   -0.9987   -2.2742   H         1 RES1   0.0000
   134 H71       5.5077   -1.0704   -0.5460   H         1 RES1   0.0000
   135 H72       7.2471    0.5114   -0.8668   H         1 RES1   0.0000
   136 H73       5.8181    1.4555   -0.4691   H         1 RES1   0.0000
   137 H74       6.8226    0.9884   -3.3146   H         1 RES1   0.0000
   138 H75       7.1849    2.4145   -2.3577   H         1 RES1   0.0000
   139 H76       5.5270    2.0871   -2.8364   H         1 RES1   0.0000
   140 H77       3.8832    1.5475    0.6977   H         1 RES1   0.0000
   141 H78       4.3671   -0.1716    0.8129   H         1 RES1   0.0000
   142 H79       3.3668    1.1337    2.9492   H         1 RES1   0.0000
   143 H80       1.7217    0.5081    3.2462   H         1 RES1   0.0000
   144 H81       1.6045    4.6405    1.0750   H         1 RES1   0.0000
   145 H82       2.2424    5.5339    2.4726   H         1 RES1   0.0000
   146 H83      -0.5717    4.3769    2.2954   H         1 RES1   0.0000
   147 H84       0.0277    5.4362    3.5670   H         1 RES1   0.0000
   148 H85       0.3912    7.2643    1.9504   H         1 RES1   0.0000
   149 H86      -1.2916    6.7439    1.9179   H         1 RES1   0.0000
   150 H87      -0.1853    6.2533    0.6311   H         1 RES1   0.0000
   151 H88       3.5442    4.2378    3.8875   H         1 RES1   0.0000
   152 H89       3.0485    2.5850    4.3042   H         1 RES1   0.0000
   153 H90       1.4952    5.1236    4.9592   H         1 RES1   0.0000
   154 H91       2.5293    4.2100    6.0427   H         1 RES1   0.0000
   155 H92       1.0785    2.3363    6.1048   H         1 RES1   0.0000
   156 H93       0.1427    2.8877    4.7148   H         1 RES1   0.0000
   157 H94      -0.9484    4.5842    5.9646   H         1 RES1   0.0000
   158 H95       0.3263    4.6464    7.1689   H         1 RES1   0.0000
   159 H96      -1.6578    3.7593    8.1400   H         1 RES1   0.0000
   160 H97      -0.4081    2.5296    8.1473   H         1 RES1   0.0000
   161 H98      -2.5439    2.6201    5.9799   H         1 RES1   0.0000
   162 H99      -2.8268    1.8643    7.5414   H         1 RES1   0.0000
   163 H100     -0.6004    0.5469    7.0540   H         1 RES1   0.0000
   164 H101     -0.9317    0.9521    5.3693   H         1 RES1   0.0000
   165 H102     -2.7996   -0.5274    7.2683   H         1 RES1   0.0000
   166 H103     -1.9298   -1.2273    5.9060   H         1 RES1   0.0000
   167 H104     -3.2183   -0.0518    5.6230   H         1 RES1   0.0000
   168 C53       7.9679   -6.6038    1.6666   C.3       1 RES1   0.0000
   169 C54       7.2034   -7.7666    1.0476   C.3       1 RES1   0.0000
   170 C55       6.0018   -7.2647    0.2533   C.3       1 RES1   0.0000
   171 C56       5.1549   -8.3889   -0.3387   C.3       1 RES1   0.0000
   172 C57       4.0254   -7.8777   -1.2370   C.3       1 RES1   0.0000
   173 C58       2.9557   -7.1191   -0.4489   C.3       1 RES1   0.0000
   174 C59       1.9271   -6.3780   -1.3153   C.3       1 RES1   0.0000
   175 C60       2.4364   -5.0881   -1.9864   C.3       1 RES1   0.0000
   176 N5        2.4211   -3.8862   -1.1501   N.am      1 RES1   0.0000
   177 C61       3.5708   -3.6332   -0.2687   C.3       1 RES1   0.0000
   178 C62       3.2183   -3.3287    1.1966   C.3       1 RES1   0.0000
   179 C63       3.0176   -4.5656    2.0585   C.3       1 RES1   0.0000
   180 C64       1.5656   -2.8759   -1.2933   C.2       1 RES1   0.0000
   181 O7        1.6874   -1.8272   -0.6289   O.2       1 RES1   0.0000
   182 C65       0.4273   -2.9439   -2.3202   C.3       1 RES1   0.0000
   183 O8       -0.4176   -1.7973   -2.1955   O.3       1 RES1   0.0000
   184 C66      -1.7304   -2.1028   -1.7423   C.3       1 RES1   0.0000
   185 C67      -1.6483   -2.3869   -0.2451   C.2       1 RES1   0.0000
   186 O9       -0.7117   -1.8363    0.3794   O.2       1 RES1   0.0000
   187 N6       -2.4372   -3.2606    0.3387   N.am      1 RES1   0.0000
   188 C68      -2.0734   -3.6083    1.7143   C.3       1 RES1   0.0000
   189 C69      -0.8121   -4.4757    1.7500   C.3       1 RES1   0.0000
   190 C70      -0.2716   -4.5964    3.1707   C.3       1 RES1   0.0000
   191 C71      -3.6315   -3.8281   -0.2582   C.3       1 RES1   0.0000
   192 C72      -4.7459   -2.8052   -0.5103   C.3       1 RES1   0.0000
   193 C73      -6.1097   -3.4958   -0.3531   C.3       1 RES1   0.0000
   194 C74      -7.2319   -2.6161    0.2194   C.3       1 RES1   0.0000
   195 C75      -8.0072   -3.3856    1.2954   C.3       1 RES1   0.0000
   196 C76      -9.2459   -2.6565    1.8211   C.3       1 RES1   0.0000
   197 C77      -8.9796   -1.5402    2.8295   C.3       1 RES1   0.0000
   198 C78      -8.5763   -2.0979    4.1891   C.3       1 RES1   0.0000
   199 H105      8.8359   -6.9572    2.2121   H         1 RES1   0.0000
   200 H106      8.3083   -5.9165    0.8948   H         1 RES1   0.0000
   201 H107      7.3338   -6.0531    2.3588   H         1 RES1   0.0000
   202 H108      7.8682   -8.3304    0.3944   H         1 RES1   0.0000
   203 H109      6.8626   -8.4411    1.8329   H         1 RES1   0.0000
   204 H110      5.3898   -6.6547    0.9216   H         1 RES1   0.0000
   205 H111      6.3577   -6.6231   -0.5567   H         1 RES1   0.0000
   206 H112      5.7997   -9.0353   -0.9327   H         1 RES1   0.0000
   207 H113      4.7365   -8.9996    0.4614   H         1 RES1   0.0000
   208 H114      4.4533   -7.2323   -2.0061   H         1 RES1   0.0000
   209 H115      3.5610   -8.7272   -1.7402   H         1 RES1   0.0000
   210 H116      2.4218   -7.8344    0.1787   H         1 RES1   0.0000
   211 H117      3.4364   -6.4102    0.2185   H         1 RES1   0.0000
   212 H118      1.6126   -7.0455   -2.1188   H         1 RES1   0.0000
   213 H119      1.0474   -6.1429   -0.7113   H         1 RES1   0.0000
   214 H120      3.4646   -5.2515   -2.3223   H         1 RES1   0.0000
   215 H121      1.8316   -4.8847   -2.8718   H         1 RES1   0.0000
   216 H122      4.2329   -4.4978   -0.3138   H         1 RES1   0.0000
   217 H123      4.0940   -2.7622   -0.6802   H         1 RES1   0.0000
   218 H124      4.0425   -2.7436    1.6103   H         1 RES1   0.0000
   219 H125      2.3255   -2.7019    1.2385   H         1 RES1   0.0000
   220 H126      3.9451   -5.1253    2.1423   H         1 RES1   0.0000
   221 H127      2.7187   -4.2673    3.0593   H         1 RES1   0.0000
   222 H128      2.2462   -5.2108    1.6495   H         1 RES1   0.0000
   223 H129      0.8370   -2.9135   -3.3412   H         1 RES1   0.0000
   224 H130     -0.1348   -3.8731   -2.1944   H         1 RES1   0.0000
   225 H131     -2.3298   -1.2131   -1.9505   H         1 RES1   0.0000
   226 H132     -2.1322   -2.9510   -2.3068   H         1 RES1   0.0000
   227 H133     -1.8872   -2.6767    2.2517   H         1 RES1   0.0000
   228 H134     -2.9055   -4.1415    2.1666   H         1 RES1   0.0000
   229 H135     -1.0251   -5.4614    1.3347   H         1 RES1   0.0000
   230 H136     -0.0435   -4.0071    1.1299   H         1 RES1   0.0000
   231 H137     -1.0512   -4.8643    3.8802   H         1 RES1   0.0000
   232 H138      0.5020   -5.3536    3.2210   H         1 RES1   0.0000
   233 H139      0.1627   -3.6516    3.4884   H         1 RES1   0.0000
   234 H140     -3.3953   -4.3525   -1.1815   H         1 RES1   0.0000
   235 H141     -4.0085   -4.5584    0.4522   H         1 RES1   0.0000
   236 H142     -4.6617   -1.9997    0.2235   H         1 RES1   0.0000
   237 H143     -4.6547   -2.3622   -1.5012   H         1 RES1   0.0000
   238 H144     -6.4198   -3.9195   -1.3056   H         1 RES1   0.0000
   239 H145     -5.9801   -4.3266    0.3414   H         1 RES1   0.0000
   240 H146     -6.8058   -1.7041    0.6432   H         1 RES1   0.0000
   241 H147     -7.9235   -2.3144   -0.5653   H         1 RES1   0.0000
   242 H148     -8.3329   -4.3378    0.8712   H         1 RES1   0.0000
   243 H149     -7.3251   -3.6087    2.1182   H         1 RES1   0.0000
   244 H150     -9.7888   -2.2537    0.9654   H         1 RES1   0.0000
   245 H151     -9.8903   -3.3891    2.3049   H         1 RES1   0.0000
   246 H152     -8.2157   -0.8563    2.4542   H         1 RES1   0.0000
   247 H153     -9.8929   -0.9587    2.9514   H         1 RES1   0.0000
   248 H154     -7.6784   -2.7119    4.1267   H         1 RES1   0.0000
   249 H155     -8.4000   -1.3035    4.9110   H         1 RES1   0.0000
   250 H156     -9.3753   -2.7286    4.5665   H         1 RES1   0.0000
@<TRIPOS>BOND
     1     1    15    1
     2     1    17    1
     3     1    20    1
     4     1    98    1
     5     1   100    1
     6     1   103    1
     7     1   181    1
     8     1   183    1
     9     1   186    1
    10     2     3    1
    11     2    33    1
    12     2    34    1
    13     2    35    1
    14     3     4    1
    15     3    36    1
    16     3    37    1
    17     4     5    1
    18     4    38    1
    19     4    39    1
    20     5     6    1
    21     5    40    1
    22     5    41    1
    23     6     7    1
    24     6    42    1
    25     6    43    1
    26     7     8    1
    27     7    44    1
    28     7    45    1
    29     8     9    1
    30     8    46    1
    31     8    47    1
    32     9    10    1
    33     9    48    1
    34     9    49    1
    35    10    11    1
    36    10    14    1
    37    11    12    1
    38    11    50    1
    39    11    51    1
    40    12    13    1
    41    12    52    1
    42    12    53    1
    43    13    54    1
    44    13    55    1
    45    13    56    1
    46    14    15    2
    47    14    16    1
    48    16    17    1
    49    16    57    1
    50    16    58    1
    51    17    18    1
    52    18    19    1
    53    18    59    1
    54    18    60    1
    55    19    20    2
    56    19    21    1
    57    21    22    1
    58    21    25    1
    59    22    23    1
    60    22    61    1
    61    22    62    1
    62    23    24    1
    63    23    63    1
    64    23    64    1
    65    24    65    1
    66    24    66    1
    67    24    67    1
    68    25    26    1
    69    25    68    1
    70    25    69    1
    71    26    27    1
    72    26    70    1
    73    26    71    1
    74    27    28    1
    75    27    72    1
    76    27    73    1
    77    28    29    1
    78    28    74    1
    79    28    75    1
    80    29    30    1
    81    29    76    1
    82    29    77    1
    83    30    31    1
    84    30    78    1
    85    30    79    1
    86    31    32    1
    87    31    80    1
    88    31    81    1
    89    32    82    1
    90    32    83    1
    91    32    84    1
    92    85    86    1
    93    85   116    1
    94    85   117    1
    95    85   118    1
    96    86    87    1
    97    86   119    1
    98    86   120    1
    99    87    88    1
   100    87   121    1
   101    87   122    1
   102    88    89    1
   103    88   123    1
   104    88   124    1
   105    89    90    1
   106    89   125    1
   107    89   126    1
   108    90    91    1
   109    90   127    1
   110    90   128    1
   111    91    92    1
   112    91   129    1
   113    91   130    1
   114    92    93    1
   115    92   131    1
   116    92   132    1
   117    93    94    1
   118    93    97    1
   119    94    95    1
   120    94   133    1
   121    94   134    1
   122    95    96    1
   123    95   135    1
   124    95   136    1
   125    96   137    1
   126    96   138    1
   127    96   139    1
   128    97    98    2
   129    97    99    1
   130    99   100    1
   131    99   140    1
   132    99   141    1
   133   100   101    1
   134   101   102    1
   135   101   142    1
   136   101   143    1
   137   102   103    2
   138   102   104    1
   139   104   105    1
   140   104   108    1
   141   105   106    1
   142   105   144    1
   143   105   145    1
   144   106   107    1
   145   106   146    1
   146   106   147    1
   147   107   148    1
   148   107   149    1
   149   107   150    1
   150   108   109    1
   151   108   151    1
   152   108   152    1
   153   109   110    1
   154   109   153    1
   155   109   154    1
   156   110   111    1
   157   110   155    1
   158   110   156    1
   159   111   112    1
   160   111   157    1
   161   111   158    1
   162   112   113    1
   163   112   159    1
   164   112   160    1
   165   113   114    1
   166   113   161    1
   167   113   162    1
   168   114   115    1
   169   114   163    1
   170   114   164    1
   171   115   165    1
   172   115   166    1
   173   115   167    1
   174   168   169    1
   175   168   199    1
   176   168   200    1
   177   168   201    1
   178   169   170    1
   179   169   202    1
   180   169   203    1
   181   170   171    1
   182   170   204    1
   183   170   205    1
   184   171   172    1
   185   171   206    1
   186   171   207    1
   187   172   173    1
   188   172   208    1
   189   172   209    1
   190   173   174    1
   191   173   210    1
   192   173   211    1
   193   174   175    1
   194   174   212    1
   195   174   213    1
   196   175   176    1
   197   175   214    1
   198   175   215    1
   199   176   177    1
   200   176   180    1
   201   177   178    1
   202   177   216    1
   203   177   217    1
   204   178   179    1
   205   178   218    1
   206   178   219    1
   207   179   220    1
   208   179   221    1
   209   179   222    1
   210   180   181    2
   211   180   182    1
   212   182   183    1
   213   182   223    1
   214   182   224    1
   215   183   184    1
   216   184   185    1
   217   184   225    1
   218   184   226    1
   219   185   186    2
   220   185   187    1
   221   187   188    1
   222   187   191    1
   223   188   189    1
   224   188   227    1
   225   188   228    1
   226   189   190    1
   227   189   229    1
   228   189   230    1
   229   190   231    1
   230   190   232    1
   231   190   233    1
   232   191   192    1
   233   191   234    1
   234   191   235    1
   235   192   193    1
   236   192   236    1
   237   192   237    1
   238   193   194    1
   239   193   238    1
   240   193   239    1
   241   194   195    1
   242   194   240    1
   243   194   241    1
   244   195   196    1
   245   195   242    1
   246   195   243    1
   247   196   197    1
   248   196   244    1
   249   196   245    1
   250   197   198    1
   251   197   246    1
   252   197   247    1
   253   198   248    1
   254   198   249    1
   255   198   250    1
@<TRIPOS>SUBSTRUCTURE
     1 RES1      250 GROUP             0 ****  ****    0  
