@<TRIPOS>MOLECULE
cn9_YICLED_0_nunpairedes_0_charge_3 Charge: 3 Unpaired_Electrons: 0 XTB_Unpaired_Electrons: 0 XTB_Charge: 3
   340   345     1     0     0
SMALL
NoCharges
****
Generated from Architector

@<TRIPOS>ATOM
     1 La1       0.3507   -0.1411   -0.0789   La        1 RES1   0.0000
     2 C1       -1.2474   -0.8778   -4.5710   C.3       1 RES1   0.0000
     3 C2       -0.0233   -0.7726   -5.4968   C.3       1 RES1   0.0000
     4 C3        1.2903   -0.5677   -4.7371   C.3       1 RES1   0.0000
     5 C4        2.5345   -0.6344   -5.6425   C.3       1 RES1   0.0000
     6 C5        3.1676    0.7011   -6.0553   C.3       1 RES1   0.0000
     7 C6        3.4283    1.6902   -4.9174   C.3       1 RES1   0.0000
     8 C7        4.1267    1.0857   -3.7002   C.3       1 RES1   0.0000
     9 C8        4.0412    2.0495   -2.5169   C.3       1 RES1   0.0000
    10 N1        4.4787    1.4359   -1.2676   N.am      1 RES1   0.0000
    11 C9        5.8339    1.7054   -0.8134   C.3       1 RES1   0.0000
    12 C10       5.9214    2.8096    0.2509   C.3       1 RES1   0.0000
    13 C11       5.0655    4.0334   -0.0781   C.3       1 RES1   0.0000
    14 C12       5.3097    5.1747    0.9067   C.3       1 RES1   0.0000
    15 C13       4.4638    6.4197    0.6351   C.3       1 RES1   0.0000
    16 C14       2.9753    6.2124    0.9155   C.3       1 RES1   0.0000
    17 C15       2.2166    7.5180    1.1631   C.3       1 RES1   0.0000
    18 C16       2.1398    8.4232   -0.0583   C.3       1 RES1   0.0000
    19 C17       3.6030    0.6701   -0.6338   C.2       1 RES1   0.0000
    20 O1        2.4580    0.4540   -1.0941   O.2       1 RES1   0.0000
    21 C18       3.9616    0.0622    0.7180   C.3       1 RES1   0.0000
    22 O2        2.9343   -0.8309    1.1181   O.3       1 RES1   0.0000
    23 C19       3.3035   -2.1939    0.9877   C.3       1 RES1   0.0000
    24 C20       2.0395   -3.0214    1.1860   C.2       1 RES1   0.0000
    25 O3        0.9406   -2.4762    0.9473   O.2       1 RES1   0.0000
    26 N2        2.1372   -4.2876    1.5758   N.am      1 RES1   0.0000
    27 C21       0.9126   -5.0856    1.5799   C.3       1 RES1   0.0000
    28 C22      -0.0334   -4.8594    2.7651   C.3       1 RES1   0.0000
    29 C23       0.4379   -5.3993    4.1165   C.3       1 RES1   0.0000
    30 C24       1.4854   -4.5209    4.7980   C.3       1 RES1   0.0000
    31 C25       1.6803   -4.8523    6.2810   C.3       1 RES1   0.0000
    32 C26       2.6214   -6.0345    6.5165   C.3       1 RES1   0.0000
    33 C27       3.2591   -6.0041    7.9049   C.3       1 RES1   0.0000
    34 C28       2.2510   -6.0806    9.0435   C.3       1 RES1   0.0000
    35 C29       3.3780   -4.9428    1.9745   C.3       1 RES1   0.0000
    36 C30       4.3077   -5.3765    0.8340   C.3       1 RES1   0.0000
    37 C31       5.6875   -5.7593    1.3819   C.3       1 RES1   0.0000
    38 C32       6.5369   -4.5909    1.8891   C.3       1 RES1   0.0000
    39 C33       6.9981   -3.6361    0.7845   C.3       1 RES1   0.0000
    40 C34       8.1061   -2.6838    1.2469   C.3       1 RES1   0.0000
    41 C35       7.6460   -1.5843    2.2029   C.3       1 RES1   0.0000
    42 C36       8.8354   -0.8117    2.7617   C.3       1 RES1   0.0000
    43 H1       -1.8807   -0.0051   -4.6570   H         1 RES1   0.0000
    44 H2       -0.9474   -0.9554   -3.5274   H         1 RES1   0.0000
    45 H3       -1.8693   -1.7362   -4.8229   H         1 RES1   0.0000
    46 H4       -0.1609    0.0567   -6.1920   H         1 RES1   0.0000
    47 H5        0.0529   -1.6790   -6.0998   H         1 RES1   0.0000
    48 H6        1.3809   -1.3346   -3.9635   H         1 RES1   0.0000
    49 H7        1.2477    0.3850   -4.2119   H         1 RES1   0.0000
    50 H8        2.2773   -1.1689   -6.5600   H         1 RES1   0.0000
    51 H9        3.3038   -1.2314   -5.1484   H         1 RES1   0.0000
    52 H10       2.5331    1.1991   -6.7877   H         1 RES1   0.0000
    53 H11       4.1132    0.4701   -6.5453   H         1 RES1   0.0000
    54 H12       2.4810    2.1261   -4.5940   H         1 RES1   0.0000
    55 H13       4.0319    2.5062   -5.3146   H         1 RES1   0.0000
    56 H14       5.1673    0.8616   -3.9334   H         1 RES1   0.0000
    57 H15       3.6277    0.1603   -3.4167   H         1 RES1   0.0000
    58 H16       2.9990    2.3578   -2.3891   H         1 RES1   0.0000
    59 H17       4.6518    2.9324   -2.7014   H         1 RES1   0.0000
    60 H18       6.4147    2.0170   -1.6834   H         1 RES1   0.0000
    61 H19       6.2941    0.7912   -0.4340   H         1 RES1   0.0000
    62 H20       6.9661    3.1123    0.3133   H         1 RES1   0.0000
    63 H21       5.6381    2.4245    1.2313   H         1 RES1   0.0000
    64 H22       4.0097    3.7494   -0.0746   H         1 RES1   0.0000
    65 H23       5.3132    4.3923   -1.0774   H         1 RES1   0.0000
    66 H24       6.3619    5.4495    0.8493   H         1 RES1   0.0000
    67 H25       5.1283    4.8310    1.9268   H         1 RES1   0.0000
    68 H26       4.6113    6.7500   -0.3917   H         1 RES1   0.0000
    69 H27       4.8284    7.2130    1.2854   H         1 RES1   0.0000
    70 H28       2.8881    5.5944    1.8089   H         1 RES1   0.0000
    71 H29       2.5047    5.6702    0.0903   H         1 RES1   0.0000
    72 H30       2.7031    8.0619    1.9735   H         1 RES1   0.0000
    73 H31       1.2016    7.2812    1.4940   H         1 RES1   0.0000
    74 H32       3.1321    8.7246   -0.3778   H         1 RES1   0.0000
    75 H33       1.5754    9.3212    0.1760   H         1 RES1   0.0000
    76 H34       1.6487    7.9211   -0.8882   H         1 RES1   0.0000
    77 H35       3.9955    0.8616    1.4645   H         1 RES1   0.0000
    78 H36       4.9319   -0.4459    0.6904   H         1 RES1   0.0000
    79 H37       4.0718   -2.4340    1.7311   H         1 RES1   0.0000
    80 H38       3.6880   -2.3951   -0.0212   H         1 RES1   0.0000
    81 H39       1.1869   -6.1387    1.5338   H         1 RES1   0.0000
    82 H40       0.3800   -4.8296    0.6610   H         1 RES1   0.0000
    83 H41      -0.9684   -5.3585    2.4988   H         1 RES1   0.0000
    84 H42      -0.2369   -3.7910    2.8484   H         1 RES1   0.0000
    85 H43       0.8138   -6.4161    3.9975   H         1 RES1   0.0000
    86 H44      -0.4346   -5.4599    4.7671   H         1 RES1   0.0000
    87 H45       1.1844   -3.4768    4.7032   H         1 RES1   0.0000
    88 H46       2.4452   -4.6322    4.2980   H         1 RES1   0.0000
    89 H47       0.7143   -5.0619    6.7404   H         1 RES1   0.0000
    90 H48       2.0954   -3.9750    6.7792   H         1 RES1   0.0000
    91 H49       3.4241   -6.0064    5.7768   H         1 RES1   0.0000
    92 H50       2.0846   -6.9743    6.3822   H         1 RES1   0.0000
    93 H51       3.8549   -5.0942    8.0030   H         1 RES1   0.0000
    94 H52       3.9428   -6.8480    7.9851   H         1 RES1   0.0000
    95 H53       1.6097   -5.2025    9.0644   H         1 RES1   0.0000
    96 H54       2.7677   -6.1434    9.9974   H         1 RES1   0.0000
    97 H55       1.6294   -6.9670    8.9412   H         1 RES1   0.0000
    98 H56       3.1052   -5.8376    2.5362   H         1 RES1   0.0000
    99 H57       3.9288   -4.2843    2.6466   H         1 RES1   0.0000
   100 H58       4.4145   -4.5811    0.0997   H         1 RES1   0.0000
   101 H59       3.8837   -6.2423    0.3274   H         1 RES1   0.0000
   102 H60       6.2440   -6.2722    0.5973   H         1 RES1   0.0000
   103 H61       5.5554   -6.4696    2.1993   H         1 RES1   0.0000
   104 H62       7.4286   -5.0056    2.3587   H         1 RES1   0.0000
   105 H63       6.0080   -4.0393    2.6693   H         1 RES1   0.0000
   106 H64       6.1522   -3.0545    0.4002   H         1 RES1   0.0000
   107 H65       7.3905   -4.2332   -0.0414   H         1 RES1   0.0000
   108 H66       8.5572   -2.2114    0.3719   H         1 RES1   0.0000
   109 H67       8.8853   -3.2688    1.7356   H         1 RES1   0.0000
   110 H68       7.0865   -2.0188    3.0325   H         1 RES1   0.0000
   111 H69       6.9756   -0.8947    1.6750   H         1 RES1   0.0000
   112 H70       9.4718   -1.4753    3.3402   H         1 RES1   0.0000
   113 H71       8.5084   -0.0025    3.4097   H         1 RES1   0.0000
   114 H72       9.4308   -0.3888    1.9569   H         1 RES1   0.0000
   115 C37      -2.0918    6.3542    0.7665   C.3       1 RES1   0.0000
   116 C38      -3.2024    5.8327   -0.1431   C.3       1 RES1   0.0000
   117 C39      -3.2510    4.3102   -0.2557   C.3       1 RES1   0.0000
   118 C40      -4.6000    3.7904   -0.7564   C.3       1 RES1   0.0000
   119 C41      -5.7183    3.8615    0.2909   C.3       1 RES1   0.0000
   120 C42      -5.3125    3.3213    1.6663   C.3       1 RES1   0.0000
   121 C43      -4.8233    1.8772    1.5645   C.3       1 RES1   0.0000
   122 C44      -3.9408    1.3975    2.7185   C.3       1 RES1   0.0000
   123 N3       -3.7241   -0.0368    2.5261   N.am      1 RES1   0.0000
   124 C45      -4.8058   -0.8734    3.0370   C.3       1 RES1   0.0000
   125 C46      -4.5609   -1.4537    4.4389   C.3       1 RES1   0.0000
   126 C47      -4.3746   -0.4222    5.5585   C.3       1 RES1   0.0000
   127 C48      -4.4142   -1.0801    6.9461   C.3       1 RES1   0.0000
   128 C49      -3.7220   -0.2646    8.0479   C.3       1 RES1   0.0000
   129 C50      -2.2067   -0.4660    8.0704   C.3       1 RES1   0.0000
   130 C51      -1.5233    0.0190    9.3527   C.3       1 RES1   0.0000
   131 C52      -1.8629    1.4560    9.7318   C.3       1 RES1   0.0000
   132 C53      -2.7617   -0.4225    1.7004   C.2       1 RES1   0.0000
   133 O4       -1.8595    0.3454    1.2986   O.2       1 RES1   0.0000
   134 C54      -2.7500   -1.8586    1.1777   C.3       1 RES1   0.0000
   135 O5       -1.7520   -1.9133    0.1756   O.3       1 RES1   0.0000
   136 C55      -1.8059   -3.1134   -0.5712   C.3       1 RES1   0.0000
   137 C56      -0.7763   -3.0301   -1.6998   C.2       1 RES1   0.0000
   138 O6        0.0132   -2.0611   -1.7291   O.2       1 RES1   0.0000
   139 N4       -0.7797   -4.0009   -2.6002   N.am      1 RES1   0.0000
   140 C57       0.1243   -3.9182   -3.7505   C.3       1 RES1   0.0000
   141 C58       1.6154   -4.0403   -3.4283   C.3       1 RES1   0.0000
   142 C59       2.0520   -5.4611   -3.0858   C.3       1 RES1   0.0000
   143 C60       1.6444   -5.8493   -1.6698   C.3       1 RES1   0.0000
   144 C61       1.9147   -7.3182   -1.3482   C.3       1 RES1   0.0000
   145 C62       0.8865   -8.2642   -1.9682   C.3       1 RES1   0.0000
   146 C63       0.9210   -9.6484   -1.3224   C.3       1 RES1   0.0000
   147 C64       2.2784  -10.3321   -1.4286   C.3       1 RES1   0.0000
   148 C65      -1.7772   -5.0694   -2.6691   C.3       1 RES1   0.0000
   149 C66      -2.9817   -4.6747   -3.5343   C.3       1 RES1   0.0000
   150 C67      -3.9859   -5.8182   -3.7406   C.3       1 RES1   0.0000
   151 C68      -4.3719   -6.5932   -2.4804   C.3       1 RES1   0.0000
   152 C69      -4.9791   -5.7340   -1.3660   C.3       1 RES1   0.0000
   153 C70      -4.9664   -6.4296   -0.0018   C.3       1 RES1   0.0000
   154 C71      -3.5657   -6.5383    0.5966   C.3       1 RES1   0.0000
   155 C72      -3.5716   -7.1938    1.9730   C.3       1 RES1   0.0000
   156 H73      -2.1306    7.4388    0.8120   H         1 RES1   0.0000
   157 H74      -2.2193    5.9684    1.7761   H         1 RES1   0.0000
   158 H75      -1.1004    6.0688    0.4111   H         1 RES1   0.0000
   159 H76      -4.1502    6.1971    0.2518   H         1 RES1   0.0000
   160 H77      -3.0864    6.2610   -1.1362   H         1 RES1   0.0000
   161 H78      -2.4811    3.9584   -0.9433   H         1 RES1   0.0000
   162 H79      -3.0305    3.8678    0.7134   H         1 RES1   0.0000
   163 H80      -4.9101    4.3567   -1.6369   H         1 RES1   0.0000
   164 H81      -4.4720    2.7548   -1.0816   H         1 RES1   0.0000
   165 H82      -6.0530    4.8911    0.4062   H         1 RES1   0.0000
   166 H83      -6.5736    3.2953   -0.0821   H         1 RES1   0.0000
   167 H84      -4.5428    3.9598    2.0988   H         1 RES1   0.0000
   168 H85      -6.1757    3.3784    2.3276   H         1 RES1   0.0000
   169 H86      -5.6952    1.2256    1.4918   H         1 RES1   0.0000
   170 H87      -4.2387    1.7445    0.6524   H         1 RES1   0.0000
   171 H88      -2.9720    1.8949    2.7000   H         1 RES1   0.0000
   172 H89      -4.3971    1.5559    3.6925   H         1 RES1   0.0000
   173 H90      -5.7049   -0.2556    3.0758   H         1 RES1   0.0000
   174 H91      -4.9942   -1.6982    2.3475   H         1 RES1   0.0000
   175 H92      -5.4390   -2.0600    4.6693   H         1 RES1   0.0000
   176 H93      -3.6977   -2.1208    4.4129   H         1 RES1   0.0000
   177 H94      -3.4231    0.0919    5.4222   H         1 RES1   0.0000
   178 H95      -5.1630    0.3295    5.5092   H         1 RES1   0.0000
   179 H96      -5.4556   -1.2347    7.2235   H         1 RES1   0.0000
   180 H97      -3.9481   -2.0662    6.8978   H         1 RES1   0.0000
   181 H98      -3.9546    0.7927    7.9230   H         1 RES1   0.0000
   182 H99      -4.1266   -0.5753    9.0100   H         1 RES1   0.0000
   183 H100     -1.9926   -1.5319    7.9774   H         1 RES1   0.0000
   184 H101     -1.7534    0.0385    7.2152   H         1 RES1   0.0000
   185 H102     -1.7962   -0.6401   10.1785   H         1 RES1   0.0000
   186 H103     -0.4425   -0.0718    9.2142   H         1 RES1   0.0000
   187 H104     -2.8891    1.5343   10.0731   H         1 RES1   0.0000
   188 H105     -1.2160    1.7882   10.5373   H         1 RES1   0.0000
   189 H106     -1.7270    2.1231    8.8845   H         1 RES1   0.0000
   190 H107     -2.5484   -2.5803    1.9809   H         1 RES1   0.0000
   191 H108     -3.7326   -2.0867    0.7385   H         1 RES1   0.0000
   192 H109     -1.5831   -3.9663    0.0819   H         1 RES1   0.0000
   193 H110     -2.8066   -3.2400   -0.9970   H         1 RES1   0.0000
   194 H111     -0.1517   -4.7137   -4.4418   H         1 RES1   0.0000
   195 H112     -0.0536   -2.9586   -4.2271   H         1 RES1   0.0000
   196 H113      2.1533   -3.7021   -4.3151   H         1 RES1   0.0000
   197 H114      1.8727   -3.3653   -2.6096   H         1 RES1   0.0000
   198 H115      1.6255   -6.1596   -3.8049   H         1 RES1   0.0000
   199 H116      3.1352   -5.5331   -3.1723   H         1 RES1   0.0000
   200 H117      2.1886   -5.2054   -0.9735   H         1 RES1   0.0000
   201 H118      0.5794   -5.6558   -1.5318   H         1 RES1   0.0000
   202 H119      2.9097   -7.5893   -1.6992   H         1 RES1   0.0000
   203 H120      1.8899   -7.4538   -0.2650   H         1 RES1   0.0000
   204 H121     -0.1143   -7.8462   -1.8322   H         1 RES1   0.0000
   205 H122      1.0598   -8.3617   -3.0415   H         1 RES1   0.0000
   206 H123      0.6434   -9.5633   -0.2696   H         1 RES1   0.0000
   207 H124      0.1698  -10.2735   -1.8033   H         1 RES1   0.0000
   208 H125      3.0266   -9.8236   -0.8240   H         1 RES1   0.0000
   209 H126      2.2045  -11.3580   -1.0785   H         1 RES1   0.0000
   210 H127      2.6180  -10.3504   -2.4615   H         1 RES1   0.0000
   211 H128     -1.2990   -5.9440   -3.1117   H         1 RES1   0.0000
   212 H129     -2.1072   -5.3463   -1.6713   H         1 RES1   0.0000
   213 H130     -3.4876   -3.8165   -3.0855   H         1 RES1   0.0000
   214 H131     -2.6275   -4.3555   -4.5152   H         1 RES1   0.0000
   215 H132     -4.8840   -5.3946   -4.1906   H         1 RES1   0.0000
   216 H133     -3.5747   -6.5336   -4.4516   H         1 RES1   0.0000
   217 H134     -5.1074   -7.3479   -2.7580   H         1 RES1   0.0000
   218 H135     -3.5044   -7.1366   -2.1054   H         1 RES1   0.0000
   219 H136     -4.4413   -4.7856   -1.2734   H         1 RES1   0.0000
   220 H137     -6.0087   -5.4940   -1.6346   H         1 RES1   0.0000
   221 H138     -5.6003   -5.8696    0.6885   H         1 RES1   0.0000
   222 H139     -5.3924   -7.4265   -0.0967   H         1 RES1   0.0000
   223 H140     -2.9239   -7.1297   -0.0599   H         1 RES1   0.0000
   224 H141     -3.1336   -5.5333    0.6776   H         1 RES1   0.0000
   225 H142     -4.0106   -8.1859    1.9143   H         1 RES1   0.0000
   226 H143     -2.5562   -7.2957    2.3545   H         1 RES1   0.0000
   227 H144     -4.1526   -6.6092    2.6842   H         1 RES1   0.0000
   228 C73      -1.0598   -2.0027    5.0262   C.3       1 RES1   0.0000
   229 C74      -0.3247   -1.0747    4.0670   C.3       1 RES1   0.0000
   230 C75       0.3168    0.1153    4.7957   C.3       1 RES1   0.0000
   231 C76      -0.5749    1.3609    4.8496   C.3       1 RES1   0.0000
   232 C77      -0.1761    2.3012    5.9934   C.3       1 RES1   0.0000
   233 C78      -0.5071    3.7788    5.7693   C.3       1 RES1   0.0000
   234 C79       0.6172    4.6175    5.1486   C.3       1 RES1   0.0000
   235 C80       0.7318    4.6081    3.6153   C.3       1 RES1   0.0000
   236 N5        1.4513    3.4824    3.0128   N.am      1 RES1   0.0000
   237 C81       2.8646    3.3727    3.3782   C.3       1 RES1   0.0000
   238 C82       3.2384    2.2380    4.3292   C.3       1 RES1   0.0000
   239 C83       4.6102    2.5093    4.9494   C.3       1 RES1   0.0000
   240 C84       5.1150    1.3710    5.8396   C.3       1 RES1   0.0000
   241 C85       5.5533    0.1403    5.0499   C.3       1 RES1   0.0000
   242 C86       6.2733   -0.8990    5.9103   C.3       1 RES1   0.0000
   243 C87       5.4600   -1.4306    7.0896   C.3       1 RES1   0.0000
   244 C88       4.1594   -2.1130    6.6797   C.3       1 RES1   0.0000
   245 C89       0.9607    2.7006    2.0586   C.2       1 RES1   0.0000
   246 O7        1.5476    1.6973    1.5989   O.2       1 RES1   0.0000
   247 C90      -0.3746    3.0610    1.3902   C.3       1 RES1   0.0000
   248 O8       -0.4343    2.4726    0.1031   O.3       1 RES1   0.0000
   249 C91       0.1703    3.2849   -0.8956   C.3       1 RES1   0.0000
   250 C92      -0.2084    2.6583   -2.2390   C.2       1 RES1   0.0000
   251 O9       -0.1658    1.4113   -2.2895   O.2       1 RES1   0.0000
   252 N6       -0.5207    3.4696   -3.2488   N.am      1 RES1   0.0000
   253 C93      -0.5776    2.9727   -4.6299   C.3       1 RES1   0.0000
   254 C94      -1.8747    3.1993   -5.4198   C.3       1 RES1   0.0000
   255 C95      -3.0845    2.4341   -4.8687   C.3       1 RES1   0.0000
   256 C96      -4.0009    1.8901   -5.9757   C.3       1 RES1   0.0000
   257 C97      -4.7369    0.5849   -5.6503   C.3       1 RES1   0.0000
   258 C98      -5.6087    0.5673   -4.3879   C.3       1 RES1   0.0000
   259 C99      -4.8817    0.0644   -3.1365   C.3       1 RES1   0.0000
   260 C100     -5.8361   -0.1293   -1.9620   C.3       1 RES1   0.0000
   261 C101     -0.7645    4.9051   -3.1185   C.3       1 RES1   0.0000
   262 C102      0.4484    5.8408   -3.1041   C.3       1 RES1   0.0000
   263 C103      0.0722    7.2062   -3.7032   C.3       1 RES1   0.0000
   264 C104     -1.1099    7.9323   -3.0224   C.3       1 RES1   0.0000
   265 C105     -2.3676    7.9660   -3.9005   C.3       1 RES1   0.0000
   266 C106     -3.4744    8.9188   -3.4290   C.3       1 RES1   0.0000
   267 C107     -4.2558    8.4521   -2.2035   C.3       1 RES1   0.0000
   268 C108     -5.4673    9.3405   -1.9301   C.3       1 RES1   0.0000
   269 H145     -1.4988   -2.8477    4.5026   H         1 RES1   0.0000
   270 H146     -1.8446   -1.4723    5.5488   H         1 RES1   0.0000
   271 H147     -0.3726   -2.3910    5.7715   H         1 RES1   0.0000
   272 H148     -1.0102   -0.6990    3.3055   H         1 RES1   0.0000
   273 H149      0.4584   -1.6301    3.5454   H         1 RES1   0.0000
   274 H150      1.2335    0.3910    4.2739   H         1 RES1   0.0000
   275 H151      0.5824   -0.1939    5.8098   H         1 RES1   0.0000
   276 H152     -1.6175    1.0664    4.9895   H         1 RES1   0.0000
   277 H153     -0.5160    1.8683    3.8851   H         1 RES1   0.0000
   278 H154      0.8916    2.2106    6.1992   H         1 RES1   0.0000
   279 H155     -0.6889    1.9571    6.8919   H         1 RES1   0.0000
   280 H156     -0.7072    4.2237    6.7434   H         1 RES1   0.0000
   281 H157     -1.4195    3.8789    5.1776   H         1 RES1   0.0000
   282 H158      1.5645    4.3450    5.6126   H         1 RES1   0.0000
   283 H159      0.4210    5.6600    5.4070   H         1 RES1   0.0000
   284 H160      1.2597    5.5217    3.3191   H         1 RES1   0.0000
   285 H161     -0.2748    4.6537    3.2058   H         1 RES1   0.0000
   286 H162      3.1425    4.3230    3.8332   H         1 RES1   0.0000
   287 H163      3.4244    3.2588    2.4458   H         1 RES1   0.0000
   288 H164      3.2422    1.2981    3.7772   H         1 RES1   0.0000
   289 H165      2.4975    2.1661    5.1230   H         1 RES1   0.0000
   290 H166      4.5453    3.4188    5.5502   H         1 RES1   0.0000
   291 H167      5.3430    2.6929    4.1582   H         1 RES1   0.0000
   292 H168      4.3445    1.0995    6.5627   H         1 RES1   0.0000
   293 H169      5.9718    1.7391    6.4035   H         1 RES1   0.0000
   294 H170      6.2406    0.4591    4.2639   H         1 RES1   0.0000
   295 H171      4.6919   -0.3187    4.5623   H         1 RES1   0.0000
   296 H172      7.1965   -0.4609    6.2896   H         1 RES1   0.0000
   297 H173      6.5516   -1.7439    5.2778   H         1 RES1   0.0000
   298 H174      5.2396   -0.6235    7.7877   H         1 RES1   0.0000
   299 H175      6.0756   -2.1557    7.6240   H         1 RES1   0.0000
   300 H176      3.4649   -1.4167    6.2148   H         1 RES1   0.0000
   301 H177      3.6738   -2.5352    7.5559   H         1 RES1   0.0000
   302 H178      4.3533   -2.9232    5.9796   H         1 RES1   0.0000
   303 H179     -0.5043    4.1391    1.2885   H         1 RES1   0.0000
   304 H180     -1.2126    2.6290    1.9472   H         1 RES1   0.0000
   305 H181      1.2673    3.2488   -0.7980   H         1 RES1   0.0000
   306 H182     -0.1504    4.3210   -0.7928   H         1 RES1   0.0000
   307 H183     -0.3671    1.9063   -4.6040   H         1 RES1   0.0000
   308 H184      0.2295    3.4817   -5.1658   H         1 RES1   0.0000
   309 H185     -1.6536    2.8412   -6.4269   H         1 RES1   0.0000
   310 H186     -2.1021    4.2617   -5.5211   H         1 RES1   0.0000
   311 H187     -3.6517    3.0653   -4.1841   H         1 RES1   0.0000
   312 H188     -2.7026    1.5957   -4.2864   H         1 RES1   0.0000
   313 H189     -3.4003    1.6676   -6.8607   H         1 RES1   0.0000
   314 H190     -4.7231    2.6601   -6.2645   H         1 RES1   0.0000
   315 H191     -4.0082   -0.2243   -5.5851   H         1 RES1   0.0000
   316 H192     -5.3720    0.3798   -6.5116   H         1 RES1   0.0000
   317 H193     -6.4541   -0.1004   -4.5690   H         1 RES1   0.0000
   318 H194     -6.0117    1.5625   -4.2022   H         1 RES1   0.0000
   319 H195     -4.1078    0.7714   -2.8362   H         1 RES1   0.0000
   320 H196     -4.3873   -0.8851   -3.3679   H         1 RES1   0.0000
   321 H197     -6.3869    0.7903   -1.7679   H         1 RES1   0.0000
   322 H198     -5.2857   -0.3986   -1.0592   H         1 RES1   0.0000
   323 H199     -6.5564   -0.9142   -2.1798   H         1 RES1   0.0000
   324 H200     -1.3741    5.0950   -2.2400   H         1 RES1   0.0000
   325 H201     -1.3692    5.1782   -3.9789   H         1 RES1   0.0000
   326 H202      1.2607    5.4182   -3.6973   H         1 RES1   0.0000
   327 H203      0.8242    5.9807   -2.0878   H         1 RES1   0.0000
   328 H204     -0.1626    7.0654   -4.7591   H         1 RES1   0.0000
   329 H205      0.9562    7.8418   -3.6635   H         1 RES1   0.0000
   330 H206     -0.8187    8.9608   -2.8202   H         1 RES1   0.0000
   331 H207     -1.3352    7.4690   -2.0630   H         1 RES1   0.0000
   332 H208     -2.7840    6.9572   -3.9872   H         1 RES1   0.0000
   333 H209     -2.0727    8.2888   -4.9015   H         1 RES1   0.0000
   334 H210     -4.1773    9.0389   -4.2548   H         1 RES1   0.0000
   335 H211     -3.0446    9.9001   -3.2267   H         1 RES1   0.0000
   336 H212     -3.6119    8.4684   -1.3231   H         1 RES1   0.0000
   337 H213     -4.6006    7.4265   -2.3579   H         1 RES1   0.0000
   338 H214     -5.1618   10.3704   -1.7608   H         1 RES1   0.0000
   339 H215     -6.0013    8.9983   -1.0456   H         1 RES1   0.0000
   340 H216     -6.1561    9.3275   -2.7735   H         1 RES1   0.0000
@<TRIPOS>BOND
     1     1    20    1
     2     1    22    1
     3     1    25    1
     4     1   133    1
     5     1   135    1
     6     1   138    1
     7     1   246    1
     8     1   248    1
     9     1   251    1
    10     2     3    1
    11     2    43    1
    12     2    44    1
    13     2    45    1
    14     3     4    1
    15     3    46    1
    16     3    47    1
    17     4     5    1
    18     4    48    1
    19     4    49    1
    20     5     6    1
    21     5    50    1
    22     5    51    1
    23     6     7    1
    24     6    52    1
    25     6    53    1
    26     7     8    1
    27     7    54    1
    28     7    55    1
    29     8     9    1
    30     8    56    1
    31     8    57    1
    32     9    10    1
    33     9    58    1
    34     9    59    1
    35    10    11    1
    36    10    19    1
    37    11    12    1
    38    11    60    1
    39    11    61    1
    40    12    13    1
    41    12    62    1
    42    12    63    1
    43    13    14    1
    44    13    64    1
    45    13    65    1
    46    14    15    1
    47    14    66    1
    48    14    67    1
    49    15    16    1
    50    15    68    1
    51    15    69    1
    52    16    17    1
    53    16    70    1
    54    16    71    1
    55    17    18    1
    56    17    72    1
    57    17    73    1
    58    18    74    1
    59    18    75    1
    60    18    76    1
    61    19    20    2
    62    19    21    1
    63    21    22    1
    64    21    77    1
    65    21    78    1
    66    22    23    1
    67    23    24    1
    68    23    79    1
    69    23    80    1
    70    24    25    2
    71    24    26    1
    72    26    27    1
    73    26    35    1
    74    27    28    1
    75    27    81    1
    76    27    82    1
    77    28    29    1
    78    28    83    1
    79    28    84    1
    80    29    30    1
    81    29    85    1
    82    29    86    1
    83    30    31    1
    84    30    87    1
    85    30    88    1
    86    31    32    1
    87    31    89    1
    88    31    90    1
    89    32    33    1
    90    32    91    1
    91    32    92    1
    92    33    34    1
    93    33    93    1
    94    33    94    1
    95    34    95    1
    96    34    96    1
    97    34    97    1
    98    35    36    1
    99    35    98    1
   100    35    99    1
   101    36    37    1
   102    36   100    1
   103    36   101    1
   104    37    38    1
   105    37   102    1
   106    37   103    1
   107    38    39    1
   108    38   104    1
   109    38   105    1
   110    39    40    1
   111    39   106    1
   112    39   107    1
   113    40    41    1
   114    40   108    1
   115    40   109    1
   116    41    42    1
   117    41   110    1
   118    41   111    1
   119    42   112    1
   120    42   113    1
   121    42   114    1
   122   115   116    1
   123   115   156    1
   124   115   157    1
   125   115   158    1
   126   116   117    1
   127   116   159    1
   128   116   160    1
   129   117   118    1
   130   117   161    1
   131   117   162    1
   132   118   119    1
   133   118   163    1
   134   118   164    1
   135   119   120    1
   136   119   165    1
   137   119   166    1
   138   120   121    1
   139   120   167    1
   140   120   168    1
   141   121   122    1
   142   121   169    1
   143   121   170    1
   144   122   123    1
   145   122   171    1
   146   122   172    1
   147   123   124    1
   148   123   132    1
   149   124   125    1
   150   124   173    1
   151   124   174    1
   152   125   126    1
   153   125   175    1
   154   125   176    1
   155   126   127    1
   156   126   177    1
   157   126   178    1
   158   127   128    1
   159   127   179    1
   160   127   180    1
   161   128   129    1
   162   128   181    1
   163   128   182    1
   164   129   130    1
   165   129   183    1
   166   129   184    1
   167   130   131    1
   168   130   185    1
   169   130   186    1
   170   131   187    1
   171   131   188    1
   172   131   189    1
   173   132   133    2
   174   132   134    1
   175   134   135    1
   176   134   190    1
   177   134   191    1
   178   135   136    1
   179   136   137    1
   180   136   192    1
   181   136   193    1
   182   137   138    2
   183   137   139    1
   184   139   140    1
   185   139   148    1
   186   140   141    1
   187   140   194    1
   188   140   195    1
   189   141   142    1
   190   141   196    1
   191   141   197    1
   192   142   143    1
   193   142   198    1
   194   142   199    1
   195   143   144    1
   196   143   200    1
   197   143   201    1
   198   144   145    1
   199   144   202    1
   200   144   203    1
   201   145   146    1
   202   145   204    1
   203   145   205    1
   204   146   147    1
   205   146   206    1
   206   146   207    1
   207   147   208    1
   208   147   209    1
   209   147   210    1
   210   148   149    1
   211   148   211    1
   212   148   212    1
   213   149   150    1
   214   149   213    1
   215   149   214    1
   216   150   151    1
   217   150   215    1
   218   150   216    1
   219   151   152    1
   220   151   217    1
   221   151   218    1
   222   152   153    1
   223   152   219    1
   224   152   220    1
   225   153   154    1
   226   153   221    1
   227   153   222    1
   228   154   155    1
   229   154   223    1
   230   154   224    1
   231   155   225    1
   232   155   226    1
   233   155   227    1
   234   228   229    1
   235   228   269    1
   236   228   270    1
   237   228   271    1
   238   229   230    1
   239   229   272    1
   240   229   273    1
   241   230   231    1
   242   230   274    1
   243   230   275    1
   244   231   232    1
   245   231   276    1
   246   231   277    1
   247   232   233    1
   248   232   278    1
   249   232   279    1
   250   233   234    1
   251   233   280    1
   252   233   281    1
   253   234   235    1
   254   234   282    1
   255   234   283    1
   256   235   236    1
   257   235   284    1
   258   235   285    1
   259   236   237    1
   260   236   245    1
   261   237   238    1
   262   237   286    1
   263   237   287    1
   264   238   239    1
   265   238   288    1
   266   238   289    1
   267   239   240    1
   268   239   290    1
   269   239   291    1
   270   240   241    1
   271   240   292    1
   272   240   293    1
   273   241   242    1
   274   241   294    1
   275   241   295    1
   276   242   243    1
   277   242   296    1
   278   242   297    1
   279   243   244    1
   280   243   298    1
   281   243   299    1
   282   244   300    1
   283   244   301    1
   284   244   302    1
   285   245   246    2
   286   245   247    1
   287   247   248    1
   288   247   303    1
   289   247   304    1
   290   248   249    1
   291   249   250    1
   292   249   305    1
   293   249   306    1
   294   250   251    2
   295   250   252    1
   296   252   253    1
   297   252   261    1
   298   253   254    1
   299   253   307    1
   300   253   308    1
   301   254   255    1
   302   254   309    1
   303   254   310    1
   304   255   256    1
   305   255   311    1
   306   255   312    1
   307   256   257    1
   308   256   313    1
   309   256   314    1
   310   257   258    1
   311   257   315    1
   312   257   316    1
   313   258   259    1
   314   258   317    1
   315   258   318    1
   316   259   260    1
   317   259   319    1
   318   259   320    1
   319   260   321    1
   320   260   322    1
   321   260   323    1
   322   261   262    1
   323   261   324    1
   324   261   325    1
   325   262   263    1
   326   262   326    1
   327   262   327    1
   328   263   264    1
   329   263   328    1
   330   263   329    1
   331   264   265    1
   332   264   330    1
   333   264   331    1
   334   265   266    1
   335   265   332    1
   336   265   333    1
   337   266   267    1
   338   266   334    1
   339   266   335    1
   340   267   268    1
   341   267   336    1
   342   267   337    1
   343   268   338    1
   344   268   339    1
   345   268   340    1
@<TRIPOS>SUBSTRUCTURE
     1 RES1      340 GROUP             0 ****  ****    0  
