@<TRIPOS>MOLECULE
am_c3_9H2O_c0_0_nunpairedes_0_charge_3 Charge: 3 Unpaired_Electrons: 0 XTB_Unpaired_Electrons: 0 XTB_Charge: 3
   322   327     1     0     0
SMALL
NoCharges
****
Generated from Architector

@<TRIPOS>ATOM
     1 La1      -0.0364    0.0572   -0.3555   La        1 RES1   0.0000
     2 C1        1.4945   -3.7441   -4.1975   C.3       1 RES1   0.0000
     3 C2        0.0197   -3.4016   -4.3512   C.3       1 RES1   0.0000
     4 C3       -0.2807   -1.9102   -4.1854   C.3       1 RES1   0.0000
     5 C4       -1.7978   -1.6618   -4.0797   C.3       1 RES1   0.0000
     6 C5       -2.4345   -0.9066   -5.2522   C.3       1 RES1   0.0000
     7 C6       -2.5404    0.5907   -4.9725   C.3       1 RES1   0.0000
     8 C7       -3.5229    1.3232   -5.8889   C.3       1 RES1   0.0000
     9 C8       -3.1423    1.3901   -7.3870   C.3       1 RES1   0.0000
    10 C9       -1.7094    1.6909   -7.8521   C.3       1 RES1   0.0000
    11 C10      -0.7348    0.5066   -7.9159   C.3       1 RES1   0.0000
    12 C11      -1.1591   -0.6451   -8.8187   C.3       1 RES1   0.0000
    13 C12      -3.9574    2.6629   -5.2566   C.3       1 RES1   0.0000
    14 C13      -2.8914    3.7031   -4.8970   C.3       1 RES1   0.0000
    15 C14      -2.0182    3.4908   -3.6582   C.3       1 RES1   0.0000
    16 N1       -2.6575    3.4579   -2.3348   N.am      1 RES1   0.0000
    17 C15      -3.6068    4.5128   -2.0422   C.3       1 RES1   0.0000
    18 C16      -2.1576    2.6304   -1.4211   C.2       1 RES1   0.0000
    19 O1       -1.3959    1.6833   -1.7154   O.2       1 RES1   0.0000
    20 C17      -2.4688    2.9038    0.0597   C.3       1 RES1   0.0000
    21 O2       -1.7564    1.9814    0.8899   O.3       1 RES1   0.0000
    22 C18      -2.5770    1.2144    1.7644   C.3       1 RES1   0.0000
    23 C19      -3.4589    0.3255    0.8992   C.2       1 RES1   0.0000
    24 O3       -2.9646   -0.1026   -0.1577   O.2       1 RES1   0.0000
    25 N2       -4.6917    0.0620    1.3073   N.am      1 RES1   0.0000
    26 C20      -5.6261   -0.6511    0.4579   C.3       1 RES1   0.0000
    27 C21      -5.1959    0.4438    2.6227   C.3       1 RES1   0.0000
    28 C22      -5.7695    1.8641    2.6895   C.3       1 RES1   0.0000
    29 C23      -6.1908    2.2464    4.1123   C.3       1 RES1   0.0000
    30 C24      -5.1187    2.7232    5.1137   C.3       1 RES1   0.0000
    31 C25      -5.8771    2.9785    6.4343   C.3       1 RES1   0.0000
    32 C26      -5.1529    2.6302    7.7345   C.3       1 RES1   0.0000
    33 C27      -4.7151    1.1702    7.8398   C.3       1 RES1   0.0000
    34 C28      -3.9333    0.9186    9.1229   C.3       1 RES1   0.0000
    35 C29      -4.4161    3.9736    4.5471   C.3       1 RES1   0.0000
    36 C30      -3.6066    4.8964    5.4788   C.3       1 RES1   0.0000
    37 C31      -2.1091    4.6125    5.6791   C.3       1 RES1   0.0000
    38 C32      -1.7777    3.5103    6.6843   C.3       1 RES1   0.0000
    39 C33      -0.2949    3.4421    7.0524   C.3       1 RES1   0.0000
    40 C34      -0.0251    2.2779    7.9997   C.3       1 RES1   0.0000
    41 H1        1.6336   -4.8204   -4.2567   H         1 RES1   0.0000
    42 H2        2.0779   -3.2872   -4.9898   H         1 RES1   0.0000
    43 H3        1.8661   -3.3792   -3.2405   H         1 RES1   0.0000
    44 H4       -0.3348   -3.7358   -5.3258   H         1 RES1   0.0000
    45 H5       -0.5546   -3.9522   -3.6030   H         1 RES1   0.0000
    46 H6        0.2190   -1.5416   -3.2770   H         1 RES1   0.0000
    47 H7        0.1260   -1.3608   -5.0357   H         1 RES1   0.0000
    48 H8       -2.2946   -2.6326   -4.0164   H         1 RES1   0.0000
    49 H9       -2.0062   -1.1061   -3.1565   H         1 RES1   0.0000
    50 H10      -1.8695   -1.0894   -6.1633   H         1 RES1   0.0000
    51 H11      -3.4391   -1.2909   -5.4180   H         1 RES1   0.0000
    52 H12      -2.9064    0.7227   -3.9450   H         1 RES1   0.0000
    53 H13      -1.5495    1.0306   -5.0438   H         1 RES1   0.0000
    54 H14      -4.4527    0.7370   -5.8818   H         1 RES1   0.0000
    55 H15      -3.4338    0.4313   -7.8143   H         1 RES1   0.0000
    56 H16      -3.7945    2.1423   -7.8375   H         1 RES1   0.0000
    57 H17      -1.7844    2.0966   -8.8621   H         1 RES1   0.0000
    58 H18      -1.2595    2.4736   -7.2391   H         1 RES1   0.0000
    59 H19       0.2213    0.8865   -8.2805   H         1 RES1   0.0000
    60 H20      -0.5530    0.1147   -6.9176   H         1 RES1   0.0000
    61 H21      -1.2206   -0.3245   -9.8519   H         1 RES1   0.0000
    62 H22      -0.4316   -1.4517   -8.7626   H         1 RES1   0.0000
    63 H23      -2.1234   -1.0543   -8.5341   H         1 RES1   0.0000
    64 H24      -4.6197    3.1461   -5.9795   H         1 RES1   0.0000
    65 H25      -4.5396    2.4214   -4.3599   H         1 RES1   0.0000
    66 H26      -2.1922    3.7832   -5.7270   H         1 RES1   0.0000
    67 H27      -3.3912    4.6689   -4.8139   H         1 RES1   0.0000
    68 H28      -1.4575    2.5660   -3.7479   H         1 RES1   0.0000
    69 H29      -1.3011    4.3192   -3.6379   H         1 RES1   0.0000
    70 H30      -4.0643    4.8401   -2.9739   H         1 RES1   0.0000
    71 H31      -4.4129    4.1746   -1.3956   H         1 RES1   0.0000
    72 H32      -3.1337    5.3788   -1.5757   H         1 RES1   0.0000
    73 H33      -2.0919    3.9127    0.2805   H         1 RES1   0.0000
    74 H34      -3.5417    2.8774    0.2706   H         1 RES1   0.0000
    75 H35      -1.9011    0.5666    2.3353   H         1 RES1   0.0000
    76 H36      -3.1201    1.8614    2.4564   H         1 RES1   0.0000
    77 H37      -5.1681   -0.8555   -0.5069   H         1 RES1   0.0000
    78 H38      -5.9134   -1.5910    0.9298   H         1 RES1   0.0000
    79 H39      -6.5209   -0.0468    0.2988   H         1 RES1   0.0000
    80 H40      -5.9946   -0.2581    2.8694   H         1 RES1   0.0000
    81 H41      -4.4096    0.3135    3.3666   H         1 RES1   0.0000
    82 H42      -5.0712    2.6014    2.2944   H         1 RES1   0.0000
    83 H43      -6.6621    1.9012    2.0673   H         1 RES1   0.0000
    84 H44      -6.9200    3.0547    4.0351   H         1 RES1   0.0000
    85 H45      -6.6990    1.3882    4.5502   H         1 RES1   0.0000
    86 H46      -4.3750    1.9377    5.2717   H         1 RES1   0.0000
    87 H47      -6.1894    4.0228    6.4740   H         1 RES1   0.0000
    88 H48      -6.7905    2.3838    6.4216   H         1 RES1   0.0000
    89 H49      -4.2880    3.2735    7.8734   H         1 RES1   0.0000
    90 H50      -5.8427    2.8426    8.5541   H         1 RES1   0.0000
    91 H51      -5.5950    0.5253    7.8099   H         1 RES1   0.0000
    92 H52      -4.0774    0.8952    6.9949   H         1 RES1   0.0000
    93 H53      -4.5278    1.1865    9.9910   H         1 RES1   0.0000
    94 H54      -3.6565   -0.1299    9.2103   H         1 RES1   0.0000
    95 H55      -3.0271    1.5203    9.1282   H         1 RES1   0.0000
    96 H56      -3.7556    3.6728    3.7228   H         1 RES1   0.0000
    97 H57      -5.2013    4.5993    4.1129   H         1 RES1   0.0000
    98 H58      -3.6632    5.8932    5.0327   H         1 RES1   0.0000
    99 H59      -4.0855    4.9589    6.4534   H         1 RES1   0.0000
   100 H60      -1.6359    4.4022    4.7116   H         1 RES1   0.0000
   101 H61      -1.6641    5.5374    6.0551   H         1 RES1   0.0000
   102 H62      -2.3250    3.7000    7.6065   H         1 RES1   0.0000
   103 H63      -2.1041    2.5394    6.3051   H         1 RES1   0.0000
   104 H64       0.3111    3.3372    6.1499   H         1 RES1   0.0000
   105 H65      -0.0019    4.3772    7.5341   H         1 RES1   0.0000
   106 H66      -0.3634    1.3403    7.5628   H         1 RES1   0.0000
   107 H67       1.0346    2.1875    8.2210   H         1 RES1   0.0000
   108 H68      -0.5547    2.4224    8.9370   H         1 RES1   0.0000
   109 C35       4.6178    0.4352    5.1995   C.3       1 RES1   0.0000
   110 C36       3.8154    0.6746    6.4707   C.3       1 RES1   0.0000
   111 C37       4.4723    1.7106    7.3836   C.3       1 RES1   0.0000
   112 C38       4.7534    3.0589    6.7134   C.3       1 RES1   0.0000
   113 C39       3.5126    3.6388    6.0373   C.3       1 RES1   0.0000
   114 C40       3.6499    5.0960    5.5943   C.3       1 RES1   0.0000
   115 C41       4.7792    5.4443    4.6097   C.3       1 RES1   0.0000
   116 C42       4.7591    6.9656    4.4180   C.3       1 RES1   0.0000
   117 C43       5.9184    7.5202    3.5958   C.3       1 RES1   0.0000
   118 C44       5.9146    9.0488    3.5350   C.3       1 RES1   0.0000
   119 C45       4.6992    9.6110    2.8052   C.3       1 RES1   0.0000
   120 C46       4.7998    4.6637    3.2805   C.3       1 RES1   0.0000
   121 C47       3.7675    5.0202    2.2018   C.3       1 RES1   0.0000
   122 C48       2.3460    4.5849    2.5808   C.3       1 RES1   0.0000
   123 N3        1.5299    4.1580    1.4552   N.am      1 RES1   0.0000
   124 C49       0.6685    5.1644    0.8669   C.3       1 RES1   0.0000
   125 C50       1.5438    2.9312    0.9597   C.2       1 RES1   0.0000
   126 O4        0.7632    2.5446    0.0662   O.2       1 RES1   0.0000
   127 C51       2.5739    1.9375    1.4856   C.3       1 RES1   0.0000
   128 O5        2.5006    0.7593    0.6983   O.3       1 RES1   0.0000
   129 C52       3.6155    0.5886   -0.1649   C.3       1 RES1   0.0000
   130 C53       3.1931    0.0684   -1.5358   C.2       1 RES1   0.0000
   131 O6        1.9819   -0.1041   -1.7852   O.2       1 RES1   0.0000
   132 N4        4.1462   -0.1864   -2.4261   N.am      1 RES1   0.0000
   133 C54       3.8027   -0.8049   -3.6980   C.3       1 RES1   0.0000
   134 C55       5.5846   -0.0827   -2.1942   C.3       1 RES1   0.0000
   135 C56       6.3005    1.1199   -2.8321   C.3       1 RES1   0.0000
   136 C57       6.0153    2.4957   -2.2198   C.3       1 RES1   0.0000
   137 C58       4.8765    3.3004   -2.8800   C.3       1 RES1   0.0000
   138 C59       4.5740    4.5225   -1.9818   C.3       1 RES1   0.0000
   139 C60       3.1103    4.9545   -1.7986   C.3       1 RES1   0.0000
   140 C61       2.4424    5.7555   -2.9224   C.3       1 RES1   0.0000
   141 C62       3.0961    7.0999   -3.2214   C.3       1 RES1   0.0000
   142 C63       5.2841    3.7045   -4.3189   C.3       1 RES1   0.0000
   143 C64       4.5564    2.9196   -5.4148   C.3       1 RES1   0.0000
   144 C65       3.1011    3.3641   -5.4686   C.3       1 RES1   0.0000
   145 C66       2.1029    2.3833   -6.0831   C.3       1 RES1   0.0000
   146 C67       0.8597    2.2778   -5.1963   C.3       1 RES1   0.0000
   147 C68       1.1141    1.4922   -3.9173   C.3       1 RES1   0.0000
   148 H69       4.1772   -0.3630    4.6087   H         1 RES1   0.0000
   149 H70       5.6348    0.1502    5.4532   H         1 RES1   0.0000
   150 H71       4.6562    1.3297    4.5819   H         1 RES1   0.0000
   151 H72       3.7378   -0.2665    7.0176   H         1 RES1   0.0000
   152 H73       2.7970    0.9833    6.2210   H         1 RES1   0.0000
   153 H74       5.4144    1.3022    7.7527   H         1 RES1   0.0000
   154 H75       3.8245    1.8690    8.2473   H         1 RES1   0.0000
   155 H76       5.5577    2.9511    5.9857   H         1 RES1   0.0000
   156 H77       5.1044    3.7508    7.4798   H         1 RES1   0.0000
   157 H78       2.6893    3.6014    6.7532   H         1 RES1   0.0000
   158 H79       3.2338    3.0101    5.1864   H         1 RES1   0.0000
   159 H80       3.8358    5.6866    6.4938   H         1 RES1   0.0000
   160 H81       2.6881    5.4289    5.1920   H         1 RES1   0.0000
   161 H82       5.7253    5.1923    5.1005   H         1 RES1   0.0000
   162 H83       4.8082    7.4254    5.4061   H         1 RES1   0.0000
   163 H84       3.8076    7.2679    3.9786   H         1 RES1   0.0000
   164 H85       5.8874    7.1367    2.5748   H         1 RES1   0.0000
   165 H86       6.8561    7.1919    4.0460   H         1 RES1   0.0000
   166 H87       6.8176    9.3787    3.0170   H         1 RES1   0.0000
   167 H88       5.9471    9.4539    4.5474   H         1 RES1   0.0000
   168 H89       4.6188    9.1820    1.8075   H         1 RES1   0.0000
   169 H90       4.7836   10.6889    2.7027   H         1 RES1   0.0000
   170 H91       3.7805    9.4027    3.3481   H         1 RES1   0.0000
   171 H92       4.7245    3.5972    3.5076   H         1 RES1   0.0000
   172 H93       5.7880    4.8201    2.8448   H         1 RES1   0.0000
   173 H94       4.0611    4.5110    1.2799   H         1 RES1   0.0000
   174 H95       3.8047    6.0890    1.9939   H         1 RES1   0.0000
   175 H96       1.8289    5.4166    3.0541   H         1 RES1   0.0000
   176 H97       2.4087    3.7826    3.3164   H         1 RES1   0.0000
   177 H98       1.2730    6.0333    0.6000   H         1 RES1   0.0000
   178 H99      -0.1113    5.4627    1.5716   H         1 RES1   0.0000
   179 H100      0.2192    4.7409   -0.0294   H         1 RES1   0.0000
   180 H101      2.3466    1.6672    2.5179   H         1 RES1   0.0000
   181 H102      3.5761    2.3682    1.4629   H         1 RES1   0.0000
   182 H103      4.2840   -0.1420    0.3020   H         1 RES1   0.0000
   183 H104      4.1595    1.5264   -0.3057   H         1 RES1   0.0000
   184 H105      2.7251   -0.7926   -3.8284   H         1 RES1   0.0000
   185 H106      4.1460   -1.8413   -3.7076   H         1 RES1   0.0000
   186 H107      4.2742   -0.2688   -4.5220   H         1 RES1   0.0000
   187 H108      6.0375   -0.9697   -2.6447   H         1 RES1   0.0000
   188 H109      5.8006   -0.1194   -1.1264   H         1 RES1   0.0000
   189 H110      6.1021    1.1477   -3.9011   H         1 RES1   0.0000
   190 H111      7.3665    0.9175   -2.7107   H         1 RES1   0.0000
   191 H112      6.9216    3.1019   -2.2947   H         1 RES1   0.0000
   192 H113      5.8179    2.3646   -1.1511   H         1 RES1   0.0000
   193 H114      3.9833    2.6651   -2.9301   H         1 RES1   0.0000
   194 H115      5.1610    5.3771   -2.3162   H         1 RES1   0.0000
   195 H116      4.9341    4.2836   -0.9769   H         1 RES1   0.0000
   196 H117      3.0937    5.5911   -0.9093   H         1 RES1   0.0000
   197 H118      2.4901    4.0737   -1.5841   H         1 RES1   0.0000
   198 H119      1.4027    5.9260   -2.6224   H         1 RES1   0.0000
   199 H120      2.4183    5.1796   -3.8417   H         1 RES1   0.0000
   200 H121      3.1323    7.7286   -2.3338   H         1 RES1   0.0000
   201 H122      2.5224    7.6229   -3.9844   H         1 RES1   0.0000
   202 H123      4.1061    6.9655   -3.6012   H         1 RES1   0.0000
   203 H124      6.3625    3.5843   -4.4404   H         1 RES1   0.0000
   204 H125      5.0656    4.7597   -4.4901   H         1 RES1   0.0000
   205 H126      4.6017    1.8494   -5.2133   H         1 RES1   0.0000
   206 H127      5.0481    3.0885   -6.3737   H         1 RES1   0.0000
   207 H128      3.0582    4.3225   -5.9841   H         1 RES1   0.0000
   208 H129      2.7839    3.5269   -4.4422   H         1 RES1   0.0000
   209 H130      2.5480    1.3934   -6.2079   H         1 RES1   0.0000
   210 H131      1.7974    2.7261   -7.0705   H         1 RES1   0.0000
   211 H132      0.0922    1.7622   -5.7628   H         1 RES1   0.0000
   212 H133      0.4977    3.2807   -4.9679   H         1 RES1   0.0000
   213 H134      1.6098    0.5728   -4.1967   H         1 RES1   0.0000
   214 H135      0.1920    1.2100   -3.4051   H         1 RES1   0.0000
   215 H136      1.7392    2.0342   -3.2104   H         1 RES1   0.0000
   216 C69      -0.0181    1.7846    3.8033   C.3       1 RES1   0.0000
   217 C70       0.0047    0.3326    4.2728   C.3       1 RES1   0.0000
   218 C71       1.0335   -0.5257    3.5369   C.3       1 RES1   0.0000
   219 C72       1.0130   -1.9900    4.0057   C.3       1 RES1   0.0000
   220 C73       2.4026   -2.6113    4.1622   C.3       1 RES1   0.0000
   221 C74       3.2167   -2.6266    2.8661   C.3       1 RES1   0.0000
   222 C75       4.5098   -3.4595    3.0106   C.3       1 RES1   0.0000
   223 C76       5.8087   -2.6307    3.0483   C.3       1 RES1   0.0000
   224 C77       6.1585   -1.7688    1.8234   C.3       1 RES1   0.0000
   225 C78       6.3552   -0.2766    2.1121   C.3       1 RES1   0.0000
   226 C79       7.5455    0.0475    3.0031   C.3       1 RES1   0.0000
   227 C80       4.5476   -4.6667    2.0544   C.3       1 RES1   0.0000
   228 C81       4.8580   -4.4361    0.5710   C.3       1 RES1   0.0000
   229 C82       3.9135   -3.5409   -0.2392   C.3       1 RES1   0.0000
   230 N5        2.5523   -4.0451   -0.4369   N.am      1 RES1   0.0000
   231 C83       2.4470   -5.4354   -0.8336   C.3       1 RES1   0.0000
   232 C84       1.5342   -3.1946   -0.3675   C.2       1 RES1   0.0000
   233 O7        1.6380   -2.0165    0.0206   O.2       1 RES1   0.0000
   234 C85       0.1396   -3.6806   -0.7486   C.3       1 RES1   0.0000
   235 O8       -0.6338   -2.5538   -1.1613   O.3       1 RES1   0.0000
   236 C86      -2.0047   -2.7490   -0.8576   C.3       1 RES1   0.0000
   237 C87      -2.1440   -2.5483    0.6540   C.2       1 RES1   0.0000
   238 O9       -1.3269   -1.7861    1.2090   O.2       1 RES1   0.0000
   239 N6       -3.0600   -3.2538    1.3030   N.am      1 RES1   0.0000
   240 C88      -3.0942   -3.2735    2.7578   C.3       1 RES1   0.0000
   241 C89      -4.1684   -3.8853    0.5867   C.3       1 RES1   0.0000
   242 C90      -3.9716   -5.3506    0.1842   C.3       1 RES1   0.0000
   243 C91      -5.2528   -5.9531   -0.4072   C.3       1 RES1   0.0000
   244 C92      -5.8239   -5.3048   -1.6845   C.3       1 RES1   0.0000
   245 C93      -7.1785   -5.9798   -1.9795   C.3       1 RES1   0.0000
   246 C94      -8.2398   -5.1300   -2.6832   C.3       1 RES1   0.0000
   247 C95      -8.7176   -3.9211   -1.8817   C.3       1 RES1   0.0000
   248 C96      -9.6795   -3.0689   -2.6997   C.3       1 RES1   0.0000
   249 C97      -4.7972   -5.4692   -2.8203   C.3       1 RES1   0.0000
   250 C98      -5.1949   -5.1592   -4.2733   C.3       1 RES1   0.0000
   251 C99      -5.0842   -3.6946   -4.7085   C.3       1 RES1   0.0000
   252 C100     -6.1660   -2.7696   -4.1518   C.3       1 RES1   0.0000
   253 C101     -5.8016   -1.2934   -4.2685   C.3       1 RES1   0.0000
   254 C102     -6.8773   -0.3875   -3.6853   C.3       1 RES1   0.0000
   255 H137     -0.8582    2.3131    4.2458   H         1 RES1   0.0000
   256 H138      0.8889    2.2972    4.1152   H         1 RES1   0.0000
   257 H139     -0.0979    1.8587    2.7166   H         1 RES1   0.0000
   258 H140      0.2332    0.3214    5.3405   H         1 RES1   0.0000
   259 H141     -0.9853   -0.1122    4.1455   H         1 RES1   0.0000
   260 H142      0.8462   -0.4776    2.4423   H         1 RES1   0.0000
   261 H143      2.0235   -0.1116    3.7314   H         1 RES1   0.0000
   262 H144      0.5164   -2.0450    4.9764   H         1 RES1   0.0000
   263 H145      0.4332   -2.5897    3.3011   H         1 RES1   0.0000
   264 H146      2.9448   -2.0919    4.9530   H         1 RES1   0.0000
   265 H147      2.2763   -3.6442    4.4907   H         1 RES1   0.0000
   266 H148      2.5725   -3.0563    2.0997   H         1 RES1   0.0000
   267 H149      3.4435   -1.6065    2.5535   H         1 RES1   0.0000
   268 H150      4.4656   -3.9179    4.0057   H         1 RES1   0.0000
   269 H151      5.7439   -1.9886    3.9269   H         1 RES1   0.0000
   270 H152      6.6227   -3.3322    3.2294   H         1 RES1   0.0000
   271 H153      7.0716   -2.1409    1.3594   H         1 RES1   0.0000
   272 H154      5.3648   -1.8395    1.0822   H         1 RES1   0.0000
   273 H155      6.5138    0.2356    1.1559   H         1 RES1   0.0000
   274 H156      5.4442    0.1301    2.5589   H         1 RES1   0.0000
   275 H157      8.4766   -0.1696    2.4903   H         1 RES1   0.0000
   276 H158      7.5411    1.1054    3.2520   H         1 RES1   0.0000
   277 H159      7.5273   -0.5233    3.9249   H         1 RES1   0.0000
   278 H160      5.3277   -5.3375    2.4230   H         1 RES1   0.0000
   279 H161      3.5975   -5.1991    2.1581   H         1 RES1   0.0000
   280 H162      5.8482   -3.9893    0.4928   H         1 RES1   0.0000
   281 H163      4.9292   -5.4147    0.0938   H         1 RES1   0.0000
   282 H164      3.8104   -2.5614    0.2302   H         1 RES1   0.0000
   283 H165      4.3597   -3.4062   -1.2343   H         1 RES1   0.0000
   284 H166      2.7635   -6.0779   -0.0136   H         1 RES1   0.0000
   285 H167      1.4326   -5.7179   -1.0837   H         1 RES1   0.0000
   286 H168      3.0841   -5.6211   -1.6993   H         1 RES1   0.0000
   287 H169      0.1512   -4.4022   -1.5676   H         1 RES1   0.0000
   288 H170     -0.2971   -4.1554    0.1392   H         1 RES1   0.0000
   289 H171     -2.5579   -1.9807   -1.4054   H         1 RES1   0.0000
   290 H172     -2.3346   -3.7341   -1.1958   H         1 RES1   0.0000
   291 H173     -2.1971   -2.7915    3.1448   H         1 RES1   0.0000
   292 H174     -3.9764   -2.7464    3.1260   H         1 RES1   0.0000
   293 H175     -3.1184   -4.3045    3.1177   H         1 RES1   0.0000
   294 H176     -5.0407   -3.8408    1.2387   H         1 RES1   0.0000
   295 H177     -4.3818   -3.2840   -0.2988   H         1 RES1   0.0000
   296 H178     -3.1628   -5.4558   -0.5372   H         1 RES1   0.0000
   297 H179     -3.7104   -5.9387    1.0638   H         1 RES1   0.0000
   298 H180     -5.0493   -7.0010   -0.6370   H         1 RES1   0.0000
   299 H181     -6.0274   -5.9299    0.3580   H         1 RES1   0.0000
   300 H182     -5.9991   -4.2421   -1.4960   H         1 RES1   0.0000
   301 H183     -7.0065   -6.8779   -2.5738   H         1 RES1   0.0000
   302 H184     -7.6092   -6.3022   -1.0309   H         1 RES1   0.0000
   303 H185     -7.8792   -4.7878   -3.6496   H         1 RES1   0.0000
   304 H186     -9.1019   -5.7723   -2.8719   H         1 RES1   0.0000
   305 H187     -9.2096   -4.2575   -0.9690   H         1 RES1   0.0000
   306 H188     -7.8721   -3.2969   -1.5818   H         1 RES1   0.0000
   307 H189    -10.5516   -3.6489   -2.9837   H         1 RES1   0.0000
   308 H190    -10.0149   -2.2006   -2.1365   H         1 RES1   0.0000
   309 H191     -9.1934   -2.7256   -3.6093   H         1 RES1   0.0000
   310 H192     -3.9158   -4.8603   -2.5860   H         1 RES1   0.0000
   311 H193     -4.4770   -6.5143   -2.8047   H         1 RES1   0.0000
   312 H194     -4.5042   -5.7243   -4.9061   H         1 RES1   0.0000
   313 H195     -6.1936   -5.5334   -4.4825   H         1 RES1   0.0000
   314 H196     -4.1025   -3.3185   -4.4085   H         1 RES1   0.0000
   315 H197     -5.1197   -3.6699   -5.8004   H         1 RES1   0.0000
   316 H198     -7.1041   -2.9438   -4.6782   H         1 RES1   0.0000
   317 H199     -6.3340   -2.9977   -3.1022   H         1 RES1   0.0000
   318 H200     -4.8598   -1.1203   -3.7393   H         1 RES1   0.0000
   319 H201     -5.6530   -1.0421   -5.3204   H         1 RES1   0.0000
   320 H202     -7.0664   -0.6392   -2.6435   H         1 RES1   0.0000
   321 H203     -6.5690    0.6531   -3.7464   H         1 RES1   0.0000
   322 H204     -7.8073   -0.4962   -4.2339   H         1 RES1   0.0000
@<TRIPOS>BOND
     1     1    19    1
     2     1    21    1
     3     1    24    1
     4     1   126    1
     5     1   128    1
     6     1   131    1
     7     1   233    1
     8     1   235    1
     9     1   238    1
    10     2     3    1
    11     2    41    1
    12     2    42    1
    13     2    43    1
    14     3     4    1
    15     3    44    1
    16     3    45    1
    17     4     5    1
    18     4    46    1
    19     4    47    1
    20     5     6    1
    21     5    48    1
    22     5    49    1
    23     6     7    1
    24     6    50    1
    25     6    51    1
    26     7     8    1
    27     7    52    1
    28     7    53    1
    29     8     9    1
    30     8    13    1
    31     8    54    1
    32     9    10    1
    33     9    55    1
    34     9    56    1
    35    10    11    1
    36    10    57    1
    37    10    58    1
    38    11    12    1
    39    11    59    1
    40    11    60    1
    41    12    61    1
    42    12    62    1
    43    12    63    1
    44    13    14    1
    45    13    64    1
    46    13    65    1
    47    14    15    1
    48    14    66    1
    49    14    67    1
    50    15    16    1
    51    15    68    1
    52    15    69    1
    53    16    17    1
    54    16    18    1
    55    17    70    1
    56    17    71    1
    57    17    72    1
    58    18    19    2
    59    18    20    1
    60    20    21    1
    61    20    73    1
    62    20    74    1
    63    21    22    1
    64    22    23    1
    65    22    75    1
    66    22    76    1
    67    23    24    2
    68    23    25    1
    69    25    26    1
    70    25    27    1
    71    26    77    1
    72    26    78    1
    73    26    79    1
    74    27    28    1
    75    27    80    1
    76    27    81    1
    77    28    29    1
    78    28    82    1
    79    28    83    1
    80    29    30    1
    81    29    84    1
    82    29    85    1
    83    30    31    1
    84    30    35    1
    85    30    86    1
    86    31    32    1
    87    31    87    1
    88    31    88    1
    89    32    33    1
    90    32    89    1
    91    32    90    1
    92    33    34    1
    93    33    91    1
    94    33    92    1
    95    34    93    1
    96    34    94    1
    97    34    95    1
    98    35    36    1
    99    35    96    1
   100    35    97    1
   101    36    37    1
   102    36    98    1
   103    36    99    1
   104    37    38    1
   105    37   100    1
   106    37   101    1
   107    38    39    1
   108    38   102    1
   109    38   103    1
   110    39    40    1
   111    39   104    1
   112    39   105    1
   113    40   106    1
   114    40   107    1
   115    40   108    1
   116   109   110    1
   117   109   148    1
   118   109   149    1
   119   109   150    1
   120   110   111    1
   121   110   151    1
   122   110   152    1
   123   111   112    1
   124   111   153    1
   125   111   154    1
   126   112   113    1
   127   112   155    1
   128   112   156    1
   129   113   114    1
   130   113   157    1
   131   113   158    1
   132   114   115    1
   133   114   159    1
   134   114   160    1
   135   115   116    1
   136   115   120    1
   137   115   161    1
   138   116   117    1
   139   116   162    1
   140   116   163    1
   141   117   118    1
   142   117   164    1
   143   117   165    1
   144   118   119    1
   145   118   166    1
   146   118   167    1
   147   119   168    1
   148   119   169    1
   149   119   170    1
   150   120   121    1
   151   120   171    1
   152   120   172    1
   153   121   122    1
   154   121   173    1
   155   121   174    1
   156   122   123    1
   157   122   175    1
   158   122   176    1
   159   123   124    1
   160   123   125    1
   161   124   177    1
   162   124   178    1
   163   124   179    1
   164   125   126    2
   165   125   127    1
   166   127   128    1
   167   127   180    1
   168   127   181    1
   169   128   129    1
   170   129   130    1
   171   129   182    1
   172   129   183    1
   173   130   131    2
   174   130   132    1
   175   132   133    1
   176   132   134    1
   177   133   184    1
   178   133   185    1
   179   133   186    1
   180   134   135    1
   181   134   187    1
   182   134   188    1
   183   135   136    1
   184   135   189    1
   185   135   190    1
   186   136   137    1
   187   136   191    1
   188   136   192    1
   189   137   138    1
   190   137   142    1
   191   137   193    1
   192   138   139    1
   193   138   194    1
   194   138   195    1
   195   139   140    1
   196   139   196    1
   197   139   197    1
   198   140   141    1
   199   140   198    1
   200   140   199    1
   201   141   200    1
   202   141   201    1
   203   141   202    1
   204   142   143    1
   205   142   203    1
   206   142   204    1
   207   143   144    1
   208   143   205    1
   209   143   206    1
   210   144   145    1
   211   144   207    1
   212   144   208    1
   213   145   146    1
   214   145   209    1
   215   145   210    1
   216   146   147    1
   217   146   211    1
   218   146   212    1
   219   147   213    1
   220   147   214    1
   221   147   215    1
   222   216   217    1
   223   216   255    1
   224   216   256    1
   225   216   257    1
   226   217   218    1
   227   217   258    1
   228   217   259    1
   229   218   219    1
   230   218   260    1
   231   218   261    1
   232   219   220    1
   233   219   262    1
   234   219   263    1
   235   220   221    1
   236   220   264    1
   237   220   265    1
   238   221   222    1
   239   221   266    1
   240   221   267    1
   241   222   223    1
   242   222   227    1
   243   222   268    1
   244   223   224    1
   245   223   269    1
   246   223   270    1
   247   224   225    1
   248   224   271    1
   249   224   272    1
   250   225   226    1
   251   225   273    1
   252   225   274    1
   253   226   275    1
   254   226   276    1
   255   226   277    1
   256   227   228    1
   257   227   278    1
   258   227   279    1
   259   228   229    1
   260   228   280    1
   261   228   281    1
   262   229   230    1
   263   229   282    1
   264   229   283    1
   265   230   231    1
   266   230   232    1
   267   231   284    1
   268   231   285    1
   269   231   286    1
   270   232   233    2
   271   232   234    1
   272   234   235    1
   273   234   287    1
   274   234   288    1
   275   235   236    1
   276   236   237    1
   277   236   289    1
   278   236   290    1
   279   237   238    2
   280   237   239    1
   281   239   240    1
   282   239   241    1
   283   240   291    1
   284   240   292    1
   285   240   293    1
   286   241   242    1
   287   241   294    1
   288   241   295    1
   289   242   243    1
   290   242   296    1
   291   242   297    1
   292   243   244    1
   293   243   298    1
   294   243   299    1
   295   244   245    1
   296   244   249    1
   297   244   300    1
   298   245   246    1
   299   245   301    1
   300   245   302    1
   301   246   247    1
   302   246   303    1
   303   246   304    1
   304   247   248    1
   305   247   305    1
   306   247   306    1
   307   248   307    1
   308   248   308    1
   309   248   309    1
   310   249   250    1
   311   249   310    1
   312   249   311    1
   313   250   251    1
   314   250   312    1
   315   250   313    1
   316   251   252    1
   317   251   314    1
   318   251   315    1
   319   252   253    1
   320   252   316    1
   321   252   317    1
   322   253   254    1
   323   253   318    1
   324   253   319    1
   325   254   320    1
   326   254   321    1
   327   254   322    1
@<TRIPOS>SUBSTRUCTURE
     1 RES1      322 GROUP             0 ****  ****    0  
