@<TRIPOS>MOLECULE
cn9_YICLED_0_nunpairedes_0_charge_3 Charge: 3 Unpaired_Electrons: 0 XTB_Unpaired_Electrons: 0 XTB_Charge: 3
   340   345     1     0     0
SMALL
NoCharges
****
Generated from Architector

@<TRIPOS>ATOM
     1 La1      -0.4352   -0.1811    0.1670   La        1 RES1   0.0000
     2 C1       -3.3478   -2.0871    7.2000   C.3       1 RES1   0.0000
     3 C2       -3.4579   -3.5518    6.7935   C.3       1 RES1   0.0000
     4 C3       -2.1947   -4.0935    6.1201   C.3       1 RES1   0.0000
     5 C4       -2.0170   -3.7189    4.6390   C.3       1 RES1   0.0000
     6 C5       -0.8340   -4.4976    4.0479   C.3       1 RES1   0.0000
     7 C6       -0.7997   -4.6954    2.5332   C.3       1 RES1   0.0000
     8 C7       -0.0391   -5.9598    2.1524   C.3       1 RES1   0.0000
     9 C8        0.5120   -4.0023    4.5544   C.3       1 RES1   0.0000
    10 N1        1.1302   -2.7381    4.1117   N.am      1 RES1   0.0000
    11 C9        2.5304   -2.7443    4.5515   C.3       1 RES1   0.0000
    12 C10       2.8258   -2.8410    6.0576   C.3       1 RES1   0.0000
    13 C11       2.1604   -1.7048    6.8410   C.3       1 RES1   0.0000
    14 C12       2.2643   -1.9346    8.3436   C.3       1 RES1   0.0000
    15 C13       4.3565   -2.9038    6.2104   C.3       1 RES1   0.0000
    16 C14       5.1082   -1.6043    5.9153   C.3       1 RES1   0.0000
    17 C15       6.5438   -1.8705    5.4625   C.3       1 RES1   0.0000
    18 C16       6.6248   -2.4165    4.0398   C.3       1 RES1   0.0000
    19 C17       0.6843   -1.7366    3.3514   C.2       1 RES1   0.0000
    20 O1       -0.2404   -1.7524    2.5188   O.2       1 RES1   0.0000
    21 C18       1.4058   -0.3741    3.5314   C.3       1 RES1   0.0000
    22 O2        0.6852    0.6327    2.8415   O.3       1 RES1   0.0000
    23 C19      -0.2456    1.2912    3.6868   C.3       1 RES1   0.0000
    24 C20      -1.3996    1.8219    2.8498   C.2       1 RES1   0.0000
    25 O3       -1.6089    1.2943    1.7357   O.2       1 RES1   0.0000
    26 N2       -2.1881    2.7488    3.3799   N.am      1 RES1   0.0000
    27 C21      -3.5236    2.8991    2.7967   C.3       1 RES1   0.0000
    28 C22      -3.9490    4.2253    2.1466   C.3       1 RES1   0.0000
    29 C23      -4.1872    5.3413    3.1764   C.3       1 RES1   0.0000
    30 C24      -5.4258    6.1853    2.9031   C.3       1 RES1   0.0000
    31 C25      -3.0076    4.6276    1.0005   C.3       1 RES1   0.0000
    32 C26      -3.7221    5.3431   -0.1637   C.3       1 RES1   0.0000
    33 C27      -3.3240    6.8105   -0.3697   C.3       1 RES1   0.0000
    34 C28      -2.0146    6.9865   -1.1318   C.3       1 RES1   0.0000
    35 C29      -1.9094    3.3775    4.6709   C.3       1 RES1   0.0000
    36 C30      -1.0663    4.6770    4.6490   C.3       1 RES1   0.0000
    37 C31      -0.8696    5.1533    6.1022   C.3       1 RES1   0.0000
    38 C32       0.0374    4.2918    6.9776   C.3       1 RES1   0.0000
    39 C33       0.2473    4.5845    3.8612   C.3       1 RES1   0.0000
    40 C34       0.8917    5.9479    3.5668   C.3       1 RES1   0.0000
    41 C35       0.0856    6.8386    2.6080   C.3       1 RES1   0.0000
    42 C36      -0.6231    7.9926    3.3085   C.3       1 RES1   0.0000
    43 H1       -4.1932   -1.8137    7.8273   H         1 RES1   0.0000
    44 H2       -2.4373   -1.9336    7.7786   H         1 RES1   0.0000
    45 H3       -3.3291   -1.4389    6.3243   H         1 RES1   0.0000
    46 H4       -3.6334   -4.1389    7.6972   H         1 RES1   0.0000
    47 H5       -4.3128   -3.6987    6.1327   H         1 RES1   0.0000
    48 H6       -1.3407   -3.7510    6.7095   H         1 RES1   0.0000
    49 H7       -2.2254   -5.1837    6.1912   H         1 RES1   0.0000
    50 H8       -2.9203   -4.0125    4.1041   H         1 RES1   0.0000
    51 H9       -1.8978   -2.6392    4.5197   H         1 RES1   0.0000
    52 H10      -0.9148   -5.5073    4.4727   H         1 RES1   0.0000
    53 H11      -0.3347   -3.8384    2.0559   H         1 RES1   0.0000
    54 H12      -1.8136   -4.7762    2.1641   H         1 RES1   0.0000
    55 H13      -0.4766   -6.8361    2.6256   H         1 RES1   0.0000
    56 H14      -0.0655   -6.1335    1.0800   H         1 RES1   0.0000
    57 H15       1.0031   -5.8911    2.4461   H         1 RES1   0.0000
    58 H16       0.4401   -3.9188    5.6410   H         1 RES1   0.0000
    59 H17       1.2487   -4.7796    4.3392   H         1 RES1   0.0000
    60 H18       2.9967   -3.6101    4.0609   H         1 RES1   0.0000
    61 H19       3.0256   -1.8526    4.1857   H         1 RES1   0.0000
    62 H20       2.4439   -3.7851    6.4570   H         1 RES1   0.0000
    63 H21       1.1046   -1.6503    6.5540   H         1 RES1   0.0000
    64 H22       2.6279   -0.7491    6.5941   H         1 RES1   0.0000
    65 H23       1.8163   -2.8846    8.6234   H         1 RES1   0.0000
    66 H24       3.3047   -1.9469    8.6497   H         1 RES1   0.0000
    67 H25       1.7570   -1.1490    8.8954   H         1 RES1   0.0000
    68 H26       4.6022   -3.2335    7.2179   H         1 RES1   0.0000
    69 H27       4.7130   -3.6844    5.5363   H         1 RES1   0.0000
    70 H28       4.6009   -1.0371    5.1314   H         1 RES1   0.0000
    71 H29       5.1290   -0.9807    6.8080   H         1 RES1   0.0000
    72 H30       7.1115   -0.9408    5.5070   H         1 RES1   0.0000
    73 H31       7.0108   -2.5762    6.1485   H         1 RES1   0.0000
    74 H32       6.1688   -1.7202    3.3332   H         1 RES1   0.0000
    75 H33       7.6625   -2.5592    3.7498   H         1 RES1   0.0000
    76 H34       6.1231   -3.3780    3.9457   H         1 RES1   0.0000
    77 H35       1.4866   -0.1373    4.5944   H         1 RES1   0.0000
    78 H36       2.4019   -0.3737    3.0924   H         1 RES1   0.0000
    79 H37      -0.6964    0.5761    4.3903   H         1 RES1   0.0000
    80 H38       0.2704    2.0782    4.2404   H         1 RES1   0.0000
    81 H39      -3.5826    2.1129    2.0421   H         1 RES1   0.0000
    82 H40      -4.2385    2.6602    3.5887   H         1 RES1   0.0000
    83 H41      -4.9237    3.9776    1.7093   H         1 RES1   0.0000
    84 H42      -4.3077    4.9003    4.1669   H         1 RES1   0.0000
    85 H43      -3.3258    6.0056    3.2046   H         1 RES1   0.0000
    86 H44      -6.3242    5.5733    2.9015   H         1 RES1   0.0000
    87 H45      -5.5324    6.9315    3.6861   H         1 RES1   0.0000
    88 H46      -5.3544    6.7053    1.9535   H         1 RES1   0.0000
    89 H47      -2.2239    5.2749    1.3920   H         1 RES1   0.0000
    90 H48      -2.5177    3.7245    0.6295   H         1 RES1   0.0000
    91 H49      -3.5339    4.8085   -1.0986   H         1 RES1   0.0000
    92 H50      -4.7995    5.3081    0.0019   H         1 RES1   0.0000
    93 H51      -4.1128    7.3097   -0.9361   H         1 RES1   0.0000
    94 H52      -3.2526    7.3114    0.5967   H         1 RES1   0.0000
    95 H53      -2.0884    6.5624   -2.1322   H         1 RES1   0.0000
    96 H54      -1.7831    8.0432   -1.2350   H         1 RES1   0.0000
    97 H55      -1.1871    6.5076   -0.6158   H         1 RES1   0.0000
    98 H56      -2.8738    3.6343    5.1110   H         1 RES1   0.0000
    99 H57      -1.4445    2.6543    5.3404   H         1 RES1   0.0000
   100 H58      -1.6712    5.4350    4.1529   H         1 RES1   0.0000
   101 H59      -0.4691    6.1666    6.0758   H         1 RES1   0.0000
   102 H60      -1.8490    5.2157    6.5796   H         1 RES1   0.0000
   103 H61       1.0142    4.1394    6.5227   H         1 RES1   0.0000
   104 H62       0.1961    4.7904    7.9304   H         1 RES1   0.0000
   105 H63      -0.4093    3.3235    7.1925   H         1 RES1   0.0000
   106 H64       0.9820    3.9930    4.4142   H         1 RES1   0.0000
   107 H65       0.0541    4.0823    2.9065   H         1 RES1   0.0000
   108 H66       1.0545    6.4825    4.5019   H         1 RES1   0.0000
   109 H67       1.8783    5.7576    3.1349   H         1 RES1   0.0000
   110 H68       0.7541    7.2574    1.8534   H         1 RES1   0.0000
   111 H69      -0.6477    6.2273    2.0766   H         1 RES1   0.0000
   112 H70       0.1017    8.6416    3.7923   H         1 RES1   0.0000
   113 H71      -1.1798    8.5872    2.5889   H         1 RES1   0.0000
   114 H72      -1.3179    7.6367    4.0652   H         1 RES1   0.0000
   115 C37       5.5140   -0.8654   -2.9831   C.3       1 RES1   0.0000
   116 C38       4.0506   -0.4748   -2.8440   C.3       1 RES1   0.0000
   117 C39       3.4218    0.0083   -4.1443   C.3       1 RES1   0.0000
   118 C40       1.9648    0.3975   -3.9080   C.3       1 RES1   0.0000
   119 C41       1.1720    0.5465   -5.2066   C.3       1 RES1   0.0000
   120 C42       1.7889    1.5520   -6.2012   C.3       1 RES1   0.0000
   121 C43       2.2678    2.9133   -5.6924   C.3       1 RES1   0.0000
   122 C44      -0.3414    0.6754   -4.9340   C.3       1 RES1   0.0000
   123 N3       -0.8023    1.7659   -4.0803   N.am      1 RES1   0.0000
   124 C45      -1.0383    3.0553   -4.7267   C.3       1 RES1   0.0000
   125 C46      -2.4832    3.4766   -5.0834   C.3       1 RES1   0.0000
   126 C47      -2.4143    4.6413   -6.0843   C.3       1 RES1   0.0000
   127 C48      -1.8114    5.9285   -5.5320   C.3       1 RES1   0.0000
   128 C49      -3.2849    2.3025   -5.6577   C.3       1 RES1   0.0000
   129 C50      -4.7727    2.5838   -5.8931   C.3       1 RES1   0.0000
   130 C51      -5.5561    2.9097   -4.6218   C.3       1 RES1   0.0000
   131 C52      -7.0604    2.8482   -4.8630   C.3       1 RES1   0.0000
   132 C53      -0.8863    1.5566   -2.7739   C.2       1 RES1   0.0000
   133 O4       -0.4512    0.5263   -2.2152   O.2       1 RES1   0.0000
   134 C54      -1.5977    2.5909   -1.9036   C.3       1 RES1   0.0000
   135 O5       -2.2423    1.9489   -0.8125   O.3       1 RES1   0.0000
   136 C55      -3.5858    1.5479   -1.0590   C.3       1 RES1   0.0000
   137 C56      -3.6578    0.0334   -1.2976   C.2       1 RES1   0.0000
   138 O6       -2.6242   -0.6370   -1.0647   O.2       1 RES1   0.0000
   139 N4       -4.7585   -0.5092   -1.8149   N.am      1 RES1   0.0000
   140 C57      -4.6199   -1.8499   -2.3960   C.3       1 RES1   0.0000
   141 C58      -5.3676   -2.1170   -3.7102   C.3       1 RES1   0.0000
   142 C59      -5.2102   -1.0034   -4.7494   C.3       1 RES1   0.0000
   143 C60      -6.1921   -1.1977   -5.8994   C.3       1 RES1   0.0000
   144 C61      -4.8579   -3.4488   -4.3028   C.3       1 RES1   0.0000
   145 C62      -5.9076   -4.5520   -4.4604   C.3       1 RES1   0.0000
   146 C63      -6.0472   -5.4789   -3.2408   C.3       1 RES1   0.0000
   147 C64      -7.3046   -5.2079   -2.4216   C.3       1 RES1   0.0000
   148 C65      -6.0778    0.1079   -1.7335   C.3       1 RES1   0.0000
   149 C66      -6.9164   -0.2214   -0.4708   C.3       1 RES1   0.0000
   150 C67      -7.5844   -1.6024   -0.5134   C.3       1 RES1   0.0000
   151 C68      -8.6638   -1.7317   -1.5849   C.3       1 RES1   0.0000
   152 C69      -6.1142   -0.0036    0.8196   C.3       1 RES1   0.0000
   153 C70      -6.9594   -0.1739    2.0863   C.3       1 RES1   0.0000
   154 C71      -6.3018    0.4039    3.3406   C.3       1 RES1   0.0000
   155 C72      -4.9708   -0.2553    3.6903   C.3       1 RES1   0.0000
   156 H73       5.9086   -1.2419   -2.0404   H         1 RES1   0.0000
   157 H74       6.1129   -0.0110   -3.2842   H         1 RES1   0.0000
   158 H75       5.6306   -1.6378   -3.7368   H         1 RES1   0.0000
   159 H76       3.9606    0.3367   -2.1161   H         1 RES1   0.0000
   160 H77       3.4749   -1.3293   -2.4745   H         1 RES1   0.0000
   161 H78       3.4750   -0.7848   -4.8898   H         1 RES1   0.0000
   162 H79       3.9871    0.8586   -4.5221   H         1 RES1   0.0000
   163 H80       1.9140    1.3165   -3.3216   H         1 RES1   0.0000
   164 H81       1.4871   -0.3835   -3.3101   H         1 RES1   0.0000
   165 H82       1.2374   -0.4180   -5.7249   H         1 RES1   0.0000
   166 H83       1.0870    1.7045   -7.0244   H         1 RES1   0.0000
   167 H84       2.6584    1.0490   -6.6282   H         1 RES1   0.0000
   168 H85       2.6906    2.8468   -4.6956   H         1 RES1   0.0000
   169 H86       1.4836    3.6626   -5.6710   H         1 RES1   0.0000
   170 H87       3.0423    3.2862   -6.3587   H         1 RES1   0.0000
   171 H88      -0.6582   -0.2504   -4.4431   H         1 RES1   0.0000
   172 H89      -0.8662    0.7640   -5.8877   H         1 RES1   0.0000
   173 H90      -0.4898    3.0062   -5.6656   H         1 RES1   0.0000
   174 H91      -0.5901    3.8323   -4.1056   H         1 RES1   0.0000
   175 H92      -3.0023    3.8480   -4.1955   H         1 RES1   0.0000
   176 H93      -3.4269    4.8665   -6.4151   H         1 RES1   0.0000
   177 H94      -1.8528    4.3267   -6.9642   H         1 RES1   0.0000
   178 H95      -2.3828    6.2904   -4.6791   H         1 RES1   0.0000
   179 H96      -1.8405    6.6942   -6.3030   H         1 RES1   0.0000
   180 H97      -0.7737    5.8028   -5.2321   H         1 RES1   0.0000
   181 H98      -3.2027    1.4507   -4.9756   H         1 RES1   0.0000
   182 H99      -2.8437    2.0105   -6.6119   H         1 RES1   0.0000
   183 H100     -5.2067    1.6931   -6.3513   H         1 RES1   0.0000
   184 H101     -4.8981    3.3953   -6.6084   H         1 RES1   0.0000
   185 H102     -5.2941    3.9082   -4.2645   H         1 RES1   0.0000
   186 H103     -5.2825    2.1901   -3.8417   H         1 RES1   0.0000
   187 H104     -7.3455    3.5713   -5.6223   H         1 RES1   0.0000
   188 H105     -7.6066    3.0761   -3.9503   H         1 RES1   0.0000
   189 H106     -7.3547    1.8583   -5.2057   H         1 RES1   0.0000
   190 H107     -2.3169    3.1799   -2.4782   H         1 RES1   0.0000
   191 H108     -0.8573    3.2606   -1.4565   H         1 RES1   0.0000
   192 H109     -3.9998    2.0755   -1.9283   H         1 RES1   0.0000
   193 H110     -4.1651    1.8313   -0.1740   H         1 RES1   0.0000
   194 H111     -4.9504   -2.6031   -1.6783   H         1 RES1   0.0000
   195 H112     -3.5473   -1.9670   -2.5629   H         1 RES1   0.0000
   196 H113     -6.4295   -2.2317   -3.4844   H         1 RES1   0.0000
   197 H114     -4.1889   -0.9984   -5.1335   H         1 RES1   0.0000
   198 H115     -5.3919   -0.0291   -4.3011   H         1 RES1   0.0000
   199 H116     -5.9700   -2.0961   -6.4647   H         1 RES1   0.0000
   200 H117     -6.1623   -0.3574   -6.5858   H         1 RES1   0.0000
   201 H118     -7.2089   -1.2875   -5.5244   H         1 RES1   0.0000
   202 H119     -4.0394   -3.8426   -3.7013   H         1 RES1   0.0000
   203 H120     -4.4320   -3.2447   -5.2827   H         1 RES1   0.0000
   204 H121     -5.6242   -5.1549   -5.3242   H         1 RES1   0.0000
   205 H122     -6.8745   -4.1054   -4.6910   H         1 RES1   0.0000
   206 H123     -5.1662   -5.3879   -2.5982   H         1 RES1   0.0000
   207 H124     -6.0865   -6.5120   -3.5879   H         1 RES1   0.0000
   208 H125     -7.3041   -4.1944   -2.0276   H         1 RES1   0.0000
   209 H126     -7.3773   -5.9066   -1.5899   H         1 RES1   0.0000
   210 H127     -8.1905   -5.3359   -3.0393   H         1 RES1   0.0000
   211 H128     -6.6525   -0.2126   -2.5988   H         1 RES1   0.0000
   212 H129     -5.9650    1.1914   -1.7818   H         1 RES1   0.0000
   213 H130     -7.7283    0.5152   -0.4817   H         1 RES1   0.0000
   214 H131     -8.0765   -1.7629    0.4448   H         1 RES1   0.0000
   215 H132     -6.8328   -2.3846   -0.6263   H         1 RES1   0.0000
   216 H133     -9.3957   -0.9343   -1.4819   H         1 RES1   0.0000
   217 H134     -9.1857   -2.6788   -1.4725   H         1 RES1   0.0000
   218 H135     -8.2659   -1.6983   -2.5958   H         1 RES1   0.0000
   219 H136     -5.7293    1.0206    0.8170   H         1 RES1   0.0000
   220 H137     -5.2613   -0.6865    0.8456   H         1 RES1   0.0000
   221 H138     -7.1612   -1.2302    2.2641   H         1 RES1   0.0000
   222 H139     -7.9146    0.3362    1.9390   H         1 RES1   0.0000
   223 H140     -6.9898    0.2552    4.1745   H         1 RES1   0.0000
   224 H141     -6.1656    1.4811    3.2149   H         1 RES1   0.0000
   225 H142     -5.1051   -1.3273    3.8082   H         1 RES1   0.0000
   226 H143     -4.5921    0.1443    4.6289   H         1 RES1   0.0000
   227 H144     -4.2195   -0.0870    2.9201   H         1 RES1   0.0000
   228 C73       7.0470    2.9411   -3.4764   C.3       1 RES1   0.0000
   229 C74       5.7610    3.6816   -3.8184   C.3       1 RES1   0.0000
   230 C75       5.1488    4.4537   -2.6494   C.3       1 RES1   0.0000
   231 C76       4.6046    3.5815   -1.5018   C.3       1 RES1   0.0000
   232 C77       3.3458    4.2259   -0.8991   C.3       1 RES1   0.0000
   233 C78       2.1564    4.0100   -1.8434   C.3       1 RES1   0.0000
   234 C79       1.0553    5.0392   -1.6290   C.3       1 RES1   0.0000
   235 C80       2.9966    3.8142    0.5516   C.3       1 RES1   0.0000
   236 N5        3.3703    2.4590    0.9614   N.am      1 RES1   0.0000
   237 C81       4.2533    2.3817    2.1275   C.3       1 RES1   0.0000
   238 C82       5.7749    2.5251    1.9389   C.3       1 RES1   0.0000
   239 C83       6.4393    1.2309    1.4519   C.3       1 RES1   0.0000
   240 C84       7.9576    1.3354    1.3247   C.3       1 RES1   0.0000
   241 C85       6.3566    3.0405    3.2693   C.3       1 RES1   0.0000
   242 C86       6.2540    2.0691    4.4547   C.3       1 RES1   0.0000
   243 C87       6.1455    2.7967    5.7990   C.3       1 RES1   0.0000
   244 C88       4.7809    3.4450    6.0180   C.3       1 RES1   0.0000
   245 C89       2.6107    1.4333    0.5795   C.2       1 RES1   0.0000
   246 O7        1.4903    1.5414    0.0423   O.2       1 RES1   0.0000
   247 C90       3.2216    0.0376    0.6674   C.3       1 RES1   0.0000
   248 O8        2.2066   -0.9224    0.9312   O.3       1 RES1   0.0000
   249 C91       2.6369   -2.2552    0.6816   C.3       1 RES1   0.0000
   250 C92       1.8242   -2.7912   -0.5029   C.2       1 RES1   0.0000
   251 O9        0.8799   -2.0652   -0.8846   O.2       1 RES1   0.0000
   252 N6        2.1504   -3.9437   -1.0725   N.am      1 RES1   0.0000
   253 C93       1.4649   -4.2867   -2.3295   C.3       1 RES1   0.0000
   254 C94       0.1048   -5.0197   -2.2630   C.3       1 RES1   0.0000
   255 C95       0.2167   -6.5357   -2.0022   C.3       1 RES1   0.0000
   256 C96      -0.2690   -7.3742   -3.1816   C.3       1 RES1   0.0000
   257 C97      -0.8610   -4.3281   -1.2927   C.3       1 RES1   0.0000
   258 C98      -2.3217   -4.7494   -1.4721   C.3       1 RES1   0.0000
   259 C99      -3.1514   -4.5679   -0.1972   C.3       1 RES1   0.0000
   260 C100     -3.0507   -3.1911    0.4601   C.3       1 RES1   0.0000
   261 C101      3.3860   -4.6607   -0.7429   C.3       1 RES1   0.0000
   262 C102      3.2624   -6.1167   -0.2169   C.3       1 RES1   0.0000
   263 C103      3.8903   -7.1013   -1.2194   C.3       1 RES1   0.0000
   264 C104      5.4042   -7.0020   -1.3855   C.3       1 RES1   0.0000
   265 C105      3.8939   -6.2268    1.1848   C.3       1 RES1   0.0000
   266 C106      4.0688   -7.6334    1.7862   C.3       1 RES1   0.0000
   267 C107      2.8411   -8.3155    2.3943   C.3       1 RES1   0.0000
   268 C108      1.9066   -8.9741    1.3862   C.3       1 RES1   0.0000
   269 H145      7.4689    2.5012   -4.3784   H         1 RES1   0.0000
   270 H146      7.7801    3.6275   -3.0601   H         1 RES1   0.0000
   271 H147      6.8646    2.1466   -2.7540   H         1 RES1   0.0000
   272 H148      5.9708    4.3990   -4.6130   H         1 RES1   0.0000
   273 H149      5.0271    2.9737   -4.2087   H         1 RES1   0.0000
   274 H150      5.8932    5.1457   -2.2544   H         1 RES1   0.0000
   275 H151      4.3376    5.0608   -3.0556   H         1 RES1   0.0000
   276 H152      4.3609    2.5837   -1.8789   H         1 RES1   0.0000
   277 H153      5.3781    3.4671   -0.7424   H         1 RES1   0.0000
   278 H154      3.5404    5.3031   -0.8479   H         1 RES1   0.0000
   279 H155      2.5120    4.0985   -2.8703   H         1 RES1   0.0000
   280 H156      1.7632    3.0004   -1.7048   H         1 RES1   0.0000
   281 H157      1.4429    6.0461   -1.7637   H         1 RES1   0.0000
   282 H158      0.2566    4.8976   -2.3535   H         1 RES1   0.0000
   283 H159      0.6346    4.9710   -0.6265   H         1 RES1   0.0000
   284 H160      3.5021    4.4985    1.2325   H         1 RES1   0.0000
   285 H161      1.9162    3.9286    0.6861   H         1 RES1   0.0000
   286 H162      3.9346    3.1912    2.7912   H         1 RES1   0.0000
   287 H163      4.0440    1.4537    2.6565   H         1 RES1   0.0000
   288 H164      5.9641    3.3022    1.1933   H         1 RES1   0.0000
   289 H165      6.0281    0.9780    0.4706   H         1 RES1   0.0000
   290 H166      6.2053    0.4162    2.1422   H         1 RES1   0.0000
   291 H167      8.2341    2.1446    0.6522   H         1 RES1   0.0000
   292 H168      8.4247    1.5094    2.2897   H         1 RES1   0.0000
   293 H169      8.3600    0.4048    0.9298   H         1 RES1   0.0000
   294 H170      7.4021    3.3076    3.1215   H         1 RES1   0.0000
   295 H171      5.8353    3.9671    3.5184   H         1 RES1   0.0000
   296 H172      5.3806    1.4192    4.3521   H         1 RES1   0.0000
   297 H173      7.1368    1.4271    4.4727   H         1 RES1   0.0000
   298 H174      6.3227    2.0754    6.5986   H         1 RES1   0.0000
   299 H175      6.9264    3.5548    5.8675   H         1 RES1   0.0000
   300 H176      3.9823    2.7093    5.9144   H         1 RES1   0.0000
   301 H177      4.7268    3.8660    7.0180   H         1 RES1   0.0000
   302 H178      4.6031    4.2509    5.3087   H         1 RES1   0.0000
   303 H179      3.6467   -0.1310   -0.3332   H         1 RES1   0.0000
   304 H180      4.0302   -0.0455    1.4000   H         1 RES1   0.0000
   305 H181      3.7096   -2.2551    0.4760   H         1 RES1   0.0000
   306 H182      2.4444   -2.8578    1.5773   H         1 RES1   0.0000
   307 H183      1.2881   -3.3333   -2.8383   H         1 RES1   0.0000
   308 H184      2.1557   -4.8886   -2.9221   H         1 RES1   0.0000
   309 H185     -0.3063   -4.9003   -3.2704   H         1 RES1   0.0000
   310 H186      1.2481   -6.8161   -1.8089   H         1 RES1   0.0000
   311 H187     -0.3699   -6.8061   -1.1229   H         1 RES1   0.0000
   312 H188      0.3257   -7.1765   -4.0698   H         1 RES1   0.0000
   313 H189     -0.1798   -8.4329   -2.9512   H         1 RES1   0.0000
   314 H190     -1.3105   -7.1655   -3.4160   H         1 RES1   0.0000
   315 H191     -0.5394   -4.5418   -0.2733   H         1 RES1   0.0000
   316 H192     -0.8055   -3.2476   -1.4539   H         1 RES1   0.0000
   317 H193     -2.7440   -4.1702   -2.2939   H         1 RES1   0.0000
   318 H194     -2.3907   -5.8020   -1.7497   H         1 RES1   0.0000
   319 H195     -4.2010   -4.7785   -0.4199   H         1 RES1   0.0000
   320 H196     -2.8240   -5.3313    0.5090   H         1 RES1   0.0000
   321 H197     -3.5787   -2.4512   -0.1272   H         1 RES1   0.0000
   322 H198     -3.4950   -3.2140    1.4530   H         1 RES1   0.0000
   323 H199     -2.0077   -2.8621    0.5657   H         1 RES1   0.0000
   324 H200      3.9946   -4.6790   -1.6500   H         1 RES1   0.0000
   325 H201      3.9333   -4.0872   -0.0008   H         1 RES1   0.0000
   326 H202      2.2029   -6.3552   -0.1189   H         1 RES1   0.0000
   327 H203      3.6442   -8.1139   -0.9048   H         1 RES1   0.0000
   328 H204      3.4259   -6.9533   -2.1967   H         1 RES1   0.0000
   329 H205      5.9266   -7.2343   -0.4625   H         1 RES1   0.0000
   330 H206      5.7227   -7.7212   -2.1362   H         1 RES1   0.0000
   331 H207      5.7189   -6.0143   -1.7174   H         1 RES1   0.0000
   332 H208      4.8939   -5.7881    1.1398   H         1 RES1   0.0000
   333 H209      3.2990   -5.6161    1.8742   H         1 RES1   0.0000
   334 H210      4.5040   -8.3036    1.0480   H         1 RES1   0.0000
   335 H211      4.8033   -7.5289    2.5883   H         1 RES1   0.0000
   336 H212      3.2086   -9.1021    3.0559   H         1 RES1   0.0000
   337 H213      2.2884   -7.6091    3.0174   H         1 RES1   0.0000
   338 H214      2.4499   -9.7075    0.7935   H         1 RES1   0.0000
   339 H215      1.1143   -9.5033    1.9102   H         1 RES1   0.0000
   340 H216      1.4454   -8.2537    0.7163   H         1 RES1   0.0000
@<TRIPOS>BOND
     1     1    20    1
     2     1    22    1
     3     1    25    1
     4     1   133    1
     5     1   135    1
     6     1   138    1
     7     1   246    1
     8     1   248    1
     9     1   251    1
    10     2     3    1
    11     2    43    1
    12     2    44    1
    13     2    45    1
    14     3     4    1
    15     3    46    1
    16     3    47    1
    17     4     5    1
    18     4    48    1
    19     4    49    1
    20     5     6    1
    21     5    50    1
    22     5    51    1
    23     6     7    1
    24     6     9    1
    25     6    52    1
    26     7     8    1
    27     7    53    1
    28     7    54    1
    29     8    55    1
    30     8    56    1
    31     8    57    1
    32     9    10    1
    33     9    58    1
    34     9    59    1
    35    10    11    1
    36    10    19    1
    37    11    12    1
    38    11    60    1
    39    11    61    1
    40    12    13    1
    41    12    15    1
    42    12    62    1
    43    13    14    1
    44    13    63    1
    45    13    64    1
    46    14    65    1
    47    14    66    1
    48    14    67    1
    49    15    16    1
    50    15    68    1
    51    15    69    1
    52    16    17    1
    53    16    70    1
    54    16    71    1
    55    17    18    1
    56    17    72    1
    57    17    73    1
    58    18    74    1
    59    18    75    1
    60    18    76    1
    61    19    20    2
    62    19    21    1
    63    21    22    1
    64    21    77    1
    65    21    78    1
    66    22    23    1
    67    23    24    1
    68    23    79    1
    69    23    80    1
    70    24    25    2
    71    24    26    1
    72    26    27    1
    73    26    35    1
    74    27    28    1
    75    27    81    1
    76    27    82    1
    77    28    29    1
    78    28    31    1
    79    28    83    1
    80    29    30    1
    81    29    84    1
    82    29    85    1
    83    30    86    1
    84    30    87    1
    85    30    88    1
    86    31    32    1
    87    31    89    1
    88    31    90    1
    89    32    33    1
    90    32    91    1
    91    32    92    1
    92    33    34    1
    93    33    93    1
    94    33    94    1
    95    34    95    1
    96    34    96    1
    97    34    97    1
    98    35    36    1
    99    35    98    1
   100    35    99    1
   101    36    37    1
   102    36    39    1
   103    36   100    1
   104    37    38    1
   105    37   101    1
   106    37   102    1
   107    38   103    1
   108    38   104    1
   109    38   105    1
   110    39    40    1
   111    39   106    1
   112    39   107    1
   113    40    41    1
   114    40   108    1
   115    40   109    1
   116    41    42    1
   117    41   110    1
   118    41   111    1
   119    42   112    1
   120    42   113    1
   121    42   114    1
   122   115   116    1
   123   115   156    1
   124   115   157    1
   125   115   158    1
   126   116   117    1
   127   116   159    1
   128   116   160    1
   129   117   118    1
   130   117   161    1
   131   117   162    1
   132   118   119    1
   133   118   163    1
   134   118   164    1
   135   119   120    1
   136   119   122    1
   137   119   165    1
   138   120   121    1
   139   120   166    1
   140   120   167    1
   141   121   168    1
   142   121   169    1
   143   121   170    1
   144   122   123    1
   145   122   171    1
   146   122   172    1
   147   123   124    1
   148   123   132    1
   149   124   125    1
   150   124   173    1
   151   124   174    1
   152   125   126    1
   153   125   128    1
   154   125   175    1
   155   126   127    1
   156   126   176    1
   157   126   177    1
   158   127   178    1
   159   127   179    1
   160   127   180    1
   161   128   129    1
   162   128   181    1
   163   128   182    1
   164   129   130    1
   165   129   183    1
   166   129   184    1
   167   130   131    1
   168   130   185    1
   169   130   186    1
   170   131   187    1
   171   131   188    1
   172   131   189    1
   173   132   133    2
   174   132   134    1
   175   134   135    1
   176   134   190    1
   177   134   191    1
   178   135   136    1
   179   136   137    1
   180   136   192    1
   181   136   193    1
   182   137   138    2
   183   137   139    1
   184   139   140    1
   185   139   148    1
   186   140   141    1
   187   140   194    1
   188   140   195    1
   189   141   142    1
   190   141   144    1
   191   141   196    1
   192   142   143    1
   193   142   197    1
   194   142   198    1
   195   143   199    1
   196   143   200    1
   197   143   201    1
   198   144   145    1
   199   144   202    1
   200   144   203    1
   201   145   146    1
   202   145   204    1
   203   145   205    1
   204   146   147    1
   205   146   206    1
   206   146   207    1
   207   147   208    1
   208   147   209    1
   209   147   210    1
   210   148   149    1
   211   148   211    1
   212   148   212    1
   213   149   150    1
   214   149   152    1
   215   149   213    1
   216   150   151    1
   217   150   214    1
   218   150   215    1
   219   151   216    1
   220   151   217    1
   221   151   218    1
   222   152   153    1
   223   152   219    1
   224   152   220    1
   225   153   154    1
   226   153   221    1
   227   153   222    1
   228   154   155    1
   229   154   223    1
   230   154   224    1
   231   155   225    1
   232   155   226    1
   233   155   227    1
   234   228   229    1
   235   228   269    1
   236   228   270    1
   237   228   271    1
   238   229   230    1
   239   229   272    1
   240   229   273    1
   241   230   231    1
   242   230   274    1
   243   230   275    1
   244   231   232    1
   245   231   276    1
   246   231   277    1
   247   232   233    1
   248   232   235    1
   249   232   278    1
   250   233   234    1
   251   233   279    1
   252   233   280    1
   253   234   281    1
   254   234   282    1
   255   234   283    1
   256   235   236    1
   257   235   284    1
   258   235   285    1
   259   236   237    1
   260   236   245    1
   261   237   238    1
   262   237   286    1
   263   237   287    1
   264   238   239    1
   265   238   241    1
   266   238   288    1
   267   239   240    1
   268   239   289    1
   269   239   290    1
   270   240   291    1
   271   240   292    1
   272   240   293    1
   273   241   242    1
   274   241   294    1
   275   241   295    1
   276   242   243    1
   277   242   296    1
   278   242   297    1
   279   243   244    1
   280   243   298    1
   281   243   299    1
   282   244   300    1
   283   244   301    1
   284   244   302    1
   285   245   246    2
   286   245   247    1
   287   247   248    1
   288   247   303    1
   289   247   304    1
   290   248   249    1
   291   249   250    1
   292   249   305    1
   293   249   306    1
   294   250   251    2
   295   250   252    1
   296   252   253    1
   297   252   261    1
   298   253   254    1
   299   253   307    1
   300   253   308    1
   301   254   255    1
   302   254   257    1
   303   254   309    1
   304   255   256    1
   305   255   310    1
   306   255   311    1
   307   256   312    1
   308   256   313    1
   309   256   314    1
   310   257   258    1
   311   257   315    1
   312   257   316    1
   313   258   259    1
   314   258   317    1
   315   258   318    1
   316   259   260    1
   317   259   319    1
   318   259   320    1
   319   260   321    1
   320   260   322    1
   321   260   323    1
   322   261   262    1
   323   261   324    1
   324   261   325    1
   325   262   263    1
   326   262   265    1
   327   262   326    1
   328   263   264    1
   329   263   327    1
   330   263   328    1
   331   264   329    1
   332   264   330    1
   333   264   331    1
   334   265   266    1
   335   265   332    1
   336   265   333    1
   337   266   267    1
   338   266   334    1
   339   266   335    1
   340   267   268    1
   341   267   336    1
   342   267   337    1
   343   268   338    1
   344   268   339    1
   345   268   340    1
@<TRIPOS>SUBSTRUCTURE
     1 RES1      340 GROUP             0 ****  ****    0  
