@<TRIPOS>MOLECULE
am_c3_9H2O_c0_0_nunpairedes_0_charge_3 Charge: 3 Unpaired_Electrons: 0 XTB_Unpaired_Electrons: 0 XTB_Charge: 3
   140   155     1     0     0
SMALL
NoCharges
****
Generated from Architector

@<TRIPOS>ATOM
     1 La1      -0.0415   -0.0026   -0.1230   La        1 RES1   0.0000
     2 C1       -0.5018   -1.1923    6.4038   C.3       1 RES1   0.0000
     3 C2        0.4891   -0.5639    5.4281   C.3       1 RES1   0.0000
     4 N1        0.5432   -1.2864    4.1590   N.am      1 RES1   0.0000
     5 C3       -0.1721   -0.8631    3.1056   C.2       1 RES1   0.0000
     6 O1       -0.0136   -1.3278    1.9506   O.2       1 RES1   0.0000
     7 C4       -1.2039    0.2473    3.1777   C.ar      1 RES1   0.0000
     8 C5       -1.8606    0.8749    4.2576   C.ar      1 RES1   0.0000
     9 C6       -2.7231    1.9285    4.0296   C.ar      1 RES1   0.0000
    10 C7       -3.0701    2.2807    2.7147   C.ar      1 RES1   0.0000
    11 C8       -3.9973    3.2946    2.3328   C.ar      1 RES1   0.0000
    12 C9       -4.3880    3.4402    1.0378   C.ar      1 RES1   0.0000
    13 C10      -3.9125    2.5703    0.0097   C.ar      1 RES1   0.0000
    14 C11      -4.3252    2.5706   -1.3384   C.ar      1 RES1   0.0000
    15 C12      -3.8930    1.5736   -2.1860   C.ar      1 RES1   0.0000
    16 C13      -3.0519    0.5482   -1.7067   C.ar      1 RES1   0.0000
    17 C14      -2.5989   -0.7666   -2.3149   C.2       1 RES1   0.0000
    18 O2       -1.5436   -1.2304   -1.8298   O.2       1 RES1   0.0000
    19 N2       -3.3419   -1.4215   -3.2183   N.am      1 RES1   0.0000
    20 C15      -4.7297   -1.0506   -3.5071   C.3       1 RES1   0.0000
    21 C16      -5.6202   -1.3721   -2.3138   C.3       1 RES1   0.0000
    22 C17      -2.8886   -2.6393   -3.8071   C.ar      1 RES1   0.0000
    23 C18      -1.5323   -2.8747   -4.0150   C.ar      1 RES1   0.0000
    24 C19      -1.1238   -4.0002   -4.7035   C.ar      1 RES1   0.0000
    25 C20      -2.0309   -4.8891   -5.2620   C.ar      1 RES1   0.0000
    26 C21      -1.5947   -6.0226   -6.1217   C.3       1 RES1   0.0000
    27 C22      -3.3804   -4.6795   -4.9989   C.ar      1 RES1   0.0000
    28 C23      -3.8028   -3.5976   -4.2570   C.ar      1 RES1   0.0000
    29 N3       -2.5231    0.6522   -0.4905   N.ar      1 RES1   0.0000
    30 C24      -2.9463    1.6012    0.3483   C.ar      1 RES1   0.0000
    31 C25      -2.4773    1.4974    1.7019   C.ar      1 RES1   0.0000
    32 N4       -1.5306    0.5891    1.9348   N.ar      1 RES1   0.0000
    33 C26       1.3908   -2.4372    4.1011   C.ar      1 RES1   0.0000
    34 C27       1.4241   -3.2996    2.9981   C.ar      1 RES1   0.0000
    35 C28       2.2667   -4.3938    2.9804   C.ar      1 RES1   0.0000
    36 C29       3.1012   -4.6935    4.0511   C.ar      1 RES1   0.0000
    37 C30       3.9921   -5.8822    4.0190   C.3       1 RES1   0.0000
    38 C31       3.0527   -3.8519    5.1529   C.ar      1 RES1   0.0000
    39 C32       2.2183   -2.7542    5.1827   C.ar      1 RES1   0.0000
    40 H1       -0.6789   -0.5371    7.2528   H         1 RES1   0.0000
    41 H2       -0.1131   -2.1286    6.7918   H         1 RES1   0.0000
    42 H3       -1.4463   -1.4049    5.9090   H         1 RES1   0.0000
    43 H4        1.4818   -0.5525    5.8725   H         1 RES1   0.0000
    44 H5        0.2609    0.4741    5.2081   H         1 RES1   0.0000
    45 H6       -1.7239    0.5569    5.2745   H         1 RES1   0.0000
    46 H7       -3.1493    2.4609    4.8704   H         1 RES1   0.0000
    47 H8       -4.3971    3.9352    3.1032   H         1 RES1   0.0000
    48 H9       -5.1102    4.1953    0.7736   H         1 RES1   0.0000
    49 H10      -5.0114    3.3279   -1.6979   H         1 RES1   0.0000
    50 H11      -4.2047    1.5967   -3.2176   H         1 RES1   0.0000
    51 H12      -5.0622   -1.6115   -4.3793   H         1 RES1   0.0000
    52 H13      -4.8009   -0.0040   -3.7819   H         1 RES1   0.0000
    53 H14      -5.5535   -2.4298   -2.0755   H         1 RES1   0.0000
    54 H15      -6.6568   -1.1380   -2.5308   H         1 RES1   0.0000
    55 H16      -5.3209   -0.8049   -1.4359   H         1 RES1   0.0000
    56 H17      -0.7971   -2.1795   -3.6451   H         1 RES1   0.0000
    57 H18      -0.0710   -4.1901   -4.8333   H         1 RES1   0.0000
    58 H19      -0.5151   -6.0574   -6.2275   H         1 RES1   0.0000
    59 H20      -2.0329   -5.9209   -7.1129   H         1 RES1   0.0000
    60 H21      -1.9370   -6.9676   -5.7076   H         1 RES1   0.0000
    61 H22      -4.1096   -5.3717   -5.3907   H         1 RES1   0.0000
    62 H23      -4.8548   -3.5342   -4.0336   H         1 RES1   0.0000
    63 H24       0.7773   -3.1506    2.1492   H         1 RES1   0.0000
    64 H25       2.2700   -5.0445    2.1166   H         1 RES1   0.0000
    65 H26       4.6832   -5.8265    3.1816   H         1 RES1   0.0000
    66 H27       3.4012   -6.7862    3.8908   H         1 RES1   0.0000
    67 H28       4.5603   -5.9615    4.9383   H         1 RES1   0.0000
    68 H29       3.6734   -4.0574    6.0107   H         1 RES1   0.0000
    69 H30       2.2316   -2.1839    6.0937   H         1 RES1   0.0000
    70 C33       0.8704    5.6422    0.5514   C.3       1 RES1   0.0000
    71 C34      -0.2365    4.9932    1.3752   C.3       1 RES1   0.0000
    72 N5        0.3298    4.0158    2.3151   N.am      1 RES1   0.0000
    73 C35       0.6917    2.8436    1.7600   C.2       1 RES1   0.0000
    74 O3        0.2615    2.5163    0.6281   O.2       1 RES1   0.0000
    75 C36       1.7250    1.9307    2.3548   C.ar      1 RES1   0.0000
    76 C37       2.6138    2.2545    3.3988   C.ar      1 RES1   0.0000
    77 C38       3.5779    1.3432    3.7630   C.ar      1 RES1   0.0000
    78 C39       3.7366    0.1535    3.0235   C.ar      1 RES1   0.0000
    79 C40       4.7684   -0.8032    3.2601   C.ar      1 RES1   0.0000
    80 C41       5.0137   -1.8035    2.3805   C.ar      1 RES1   0.0000
    81 C42       4.2565   -1.9295    1.1795   C.ar      1 RES1   0.0000
    82 C43       4.5960   -2.7749    0.1109   C.ar      1 RES1   0.0000
    83 C44       3.8823   -2.7237   -1.0663   C.ar      1 RES1   0.0000
    84 C45       2.7350   -1.9161   -1.1505   C.ar      1 RES1   0.0000
    85 C46       1.8842   -1.5713   -2.3477   C.2       1 RES1   0.0000
    86 O4        1.0211   -0.6902   -2.1237   O.2       1 RES1   0.0000
    87 N6        2.0876   -2.0145   -3.5994   N.am      1 RES1   0.0000
    88 C47       2.6701   -3.3120   -3.9248   C.3       1 RES1   0.0000
    89 C48       3.9721   -3.1839   -4.7059   C.3       1 RES1   0.0000
    90 C49       1.5151   -1.2588   -4.6732   C.ar      1 RES1   0.0000
    91 C50       1.3494    0.1250   -4.5445   C.ar      1 RES1   0.0000
    92 C51       0.6594    0.8430   -5.4989   C.ar      1 RES1   0.0000
    93 C52       0.1628    0.2325   -6.6491   C.ar      1 RES1   0.0000
    94 C53      -0.6005    1.0244   -7.6523   C.3       1 RES1   0.0000
    95 C54       0.4366   -1.1158   -6.8286   C.ar      1 RES1   0.0000
    96 C55       1.1003   -1.8520   -5.8636   C.ar      1 RES1   0.0000
    97 N7        2.3702   -1.1530   -0.1154   N.ar      1 RES1   0.0000
    98 C56       3.1329   -1.0932    0.9807   C.ar      1 RES1   0.0000
    99 C57       2.8652   -0.0348    1.9242   C.ar      1 RES1   0.0000
   100 N8        1.8608    0.8094    1.6489   N.ar      1 RES1   0.0000
   101 C58       0.2420    4.2948    3.7021   C.ar      1 RES1   0.0000
   102 C59       0.1401    5.5995    4.1851   C.ar      1 RES1   0.0000
   103 C60      -0.1825    5.8314    5.5090   C.ar      1 RES1   0.0000
   104 C61      -0.3725    4.7926    6.4167   C.ar      1 RES1   0.0000
   105 C62      -0.7640    5.0667    7.8248   C.3       1 RES1   0.0000
   106 C63      -0.1879    3.4971    5.9461   C.ar      1 RES1   0.0000
   107 C64       0.0980    3.2551    4.6182   C.ar      1 RES1   0.0000
   108 H31       0.4556    6.3700   -0.1398   H         1 RES1   0.0000
   109 H32       1.4062    4.8921   -0.0246   H         1 RES1   0.0000
   110 H33       1.5818    6.1522    1.1946   H         1 RES1   0.0000
   111 H34      -0.9341    4.4676    0.7201   H         1 RES1   0.0000
   112 H35      -0.7900    5.7420    1.9337   H         1 RES1   0.0000
   113 H36       2.5506    3.2105    3.9000   H         1 RES1   0.0000
   114 H37       4.2547    1.5644    4.5783   H         1 RES1   0.0000
   115 H38       5.3876   -0.6826    4.1355   H         1 RES1   0.0000
   116 H39       5.8277   -2.4934    2.5419   H         1 RES1   0.0000
   117 H40       5.4528   -3.4284    0.1928   H         1 RES1   0.0000
   118 H41       4.2394   -3.2865   -1.9113   H         1 RES1   0.0000
   119 H42       1.9515   -3.8674   -4.5316   H         1 RES1   0.0000
   120 H43       2.7819   -3.8832   -3.0068   H         1 RES1   0.0000
   121 H44       3.7918   -2.6869   -5.6557   H         1 RES1   0.0000
   122 H45       4.3792   -4.1683   -4.9220   H         1 RES1   0.0000
   123 H46       4.7140   -2.6111   -4.1549   H         1 RES1   0.0000
   124 H47       1.7832    0.6452   -3.7013   H         1 RES1   0.0000
   125 H48       0.5095    1.9074   -5.3761   H         1 RES1   0.0000
   126 H49      -1.5004    1.4458   -7.2095   H         1 RES1   0.0000
   127 H50      -0.8845    0.4096   -8.4978   H         1 RES1   0.0000
   128 H51       0.0017    1.8549   -8.0125   H         1 RES1   0.0000
   129 H52       0.1160   -1.6137   -7.7314   H         1 RES1   0.0000
   130 H53       1.2789   -2.8901   -6.0829   H         1 RES1   0.0000
   131 H54       0.3175    6.4461    3.5420   H         1 RES1   0.0000
   132 H55      -0.3072    6.8479    5.8460   H         1 RES1   0.0000
   133 H56      -0.0399    5.7209    8.3035   H         1 RES1   0.0000
   134 H57      -0.8430    4.1490    8.3971   H         1 RES1   0.0000
   135 H58      -1.7208    5.5823    7.8582   H         1 RES1   0.0000
   136 H59      -0.3012    2.6570    6.6136   H         1 RES1   0.0000
   137 H60       0.2057    2.2444    4.2611   H         1 RES1   0.0000
   138 O5       -0.3384    1.8445   -2.0432   O.3       1 RES1   0.0000
   139 H61      -0.1187    2.7776   -1.9340   H         1 RES1   0.0000
   140 H62      -0.0790    1.6065   -2.9454   H         1 RES1   0.0000
@<TRIPOS>BOND
     1     1     6    1
     2     1    18    1
     3     1    29    1
     4     1    32    1
     5     1    74    1
     6     1    86    1
     7     1    97    1
     8     1   100    1
     9     1   138    1
    10     2     3    1
    11     2    40    1
    12     2    41    1
    13     2    42    1
    14     3     4    1
    15     3    43    1
    16     3    44    1
    17     4     5    1
    18     4    33    1
    19     5     6    2
    20     5     7    1
    21     7     8    1
    22     7    32    2
    23     8     9    2
    24     8    45    1
    25     9    10    1
    26     9    46    1
    27    10    11    1
    28    10    31    2
    29    11    12    2
    30    11    47    1
    31    12    13    1
    32    12    48    1
    33    13    14    1
    34    13    30    2
    35    14    15    2
    36    14    49    1
    37    15    16    1
    38    15    50    1
    39    16    17    1
    40    16    29    2
    41    17    18    2
    42    17    19    1
    43    19    20    1
    44    19    22    1
    45    20    21    1
    46    20    51    1
    47    20    52    1
    48    21    53    1
    49    21    54    1
    50    21    55    1
    51    22    23    1
    52    22    28    2
    53    23    24    2
    54    23    56    1
    55    24    25    1
    56    24    57    1
    57    25    26    1
    58    25    27    2
    59    26    58    1
    60    26    59    1
    61    26    60    1
    62    27    28    1
    63    27    61    1
    64    28    62    1
    65    29    30    1
    66    30    31    1
    67    31    32    1
    68    33    34    1
    69    33    39    2
    70    34    35    2
    71    34    63    1
    72    35    36    1
    73    35    64    1
    74    36    37    1
    75    36    38    2
    76    37    65    1
    77    37    66    1
    78    37    67    1
    79    38    39    1
    80    38    68    1
    81    39    69    1
    82    70    71    1
    83    70   108    1
    84    70   109    1
    85    70   110    1
    86    71    72    1
    87    71   111    1
    88    71   112    1
    89    72    73    1
    90    72   101    1
    91    73    74    2
    92    73    75    1
    93    75    76    1
    94    75   100    2
    95    76    77    2
    96    76   113    1
    97    77    78    1
    98    77   114    1
    99    78    79    1
   100    78    99    2
   101    79    80    2
   102    79   115    1
   103    80    81    1
   104    80   116    1
   105    81    82    1
   106    81    98    2
   107    82    83    2
   108    82   117    1
   109    83    84    1
   110    83   118    1
   111    84    85    1
   112    84    97    2
   113    85    86    2
   114    85    87    1
   115    87    88    1
   116    87    90    1
   117    88    89    1
   118    88   119    1
   119    88   120    1
   120    89   121    1
   121    89   122    1
   122    89   123    1
   123    90    91    1
   124    90    96    2
   125    91    92    2
   126    91   124    1
   127    92    93    1
   128    92   125    1
   129    93    94    1
   130    93    95    2
   131    94   126    1
   132    94   127    1
   133    94   128    1
   134    95    96    1
   135    95   129    1
   136    96   130    1
   137    97    98    1
   138    98    99    1
   139    99   100    1
   140   101   102    1
   141   101   107    2
   142   102   103    2
   143   102   131    1
   144   103   104    1
   145   103   132    1
   146   104   105    1
   147   104   106    2
   148   105   133    1
   149   105   134    1
   150   105   135    1
   151   106   107    1
   152   106   136    1
   153   107   137    1
   154   138   139    1
   155   138   140    1
@<TRIPOS>SUBSTRUCTURE
     1 RES1      140 GROUP             0 ****  ****    0  
