@<TRIPOS>MOLECULE
am_c3_9H2O_c0_0_nunpairedes_0_charge_2 Charge: 2 Unpaired_Electrons: 0 XTB_Unpaired_Electrons: 0 XTB_Charge: 2
    37    46     1     0     0
SMALL
NoCharges
****
Generated from Architector

@<TRIPOS>ATOM
     1 La1       0.0000    0.0000    0.0000   La        1 RES1   0.0000
     2 O1       -0.6783   -1.1491   -1.9529   O.2       1 RES1   0.0000
     3 C1       -0.7937   -0.0633   -2.5104   C.ar      1 RES1   0.0000
     4 C2        0.5992    0.1449   -2.9491   C.ar      1 RES1   0.0000
     5 O2        1.0998   -0.7893   -2.0803   O.3       1 RES1   0.0000
     6 C3        1.0377    1.3829   -2.7358   C.ar      1 RES1   0.0000
     7 C4        2.5454    1.6459   -2.3230   C.ar      1 RES1   0.0000
     8 C5        3.4676    0.5897   -2.4583   C.ar      1 RES1   0.0000
     9 C6        3.7278   -0.1971   -1.3197   C.ar      1 RES1   0.0000
    10 C7        3.0134    0.1508   -0.1812   C.ar      1 RES1   0.0000
    11 O3        2.2586   -0.7785    0.5017   O.3       1 RES1   0.0000
    12 C8        2.5703    1.4690   -0.0275   C.ar      1 RES1   0.0000
    13 O4        1.4914    1.6390    0.7902   O.3       1 RES1   0.0000
    14 C9        2.6237    2.3331   -1.1084   C.ar      1 RES1   0.0000
    15 O5        0.2134    1.9221   -1.7610   O.2       1 RES1   0.0000
    16 C10      -1.1322    2.1920   -2.0125   C.ar      1 RES1   0.0000
    17 C11      -1.5527    3.2331   -1.1676   C.ar      1 RES1   0.0000
    18 C12      -2.2729    2.7701   -0.0752   C.ar      1 RES1   0.0000
    19 O6       -1.3202    2.0832    0.8003   O.3       1 RES1   0.0000
    20 C13      -3.2491    1.8171   -0.3106   C.ar      1 RES1   0.0000
    21 C14      -2.7136    0.7676   -1.0563   C.ar      1 RES1   0.0000
    22 O7       -2.3868   -0.2942   -0.2260   O.3       1 RES1   0.0000
    23 C15      -1.7733    0.9736   -2.0969   C.ar      1 RES1   0.0000
    24 H1        1.8580   -1.3582   -2.2710   H         1 RES1   0.0000
    25 H2        3.6615    0.1583   -3.4385   H         1 RES1   0.0000
    26 H3        4.1503   -1.1885   -1.4423   H         1 RES1   0.0000
    27 H4        2.4504   -1.7215    0.4014   H         1 RES1   0.0000
    28 H5        1.5119    2.2104    1.5697   H         1 RES1   0.0000
    29 H6        2.0706    3.2683   -1.0053   H         1 RES1   0.0000
    30 H7       -0.8275    4.0286   -0.9819   H         1 RES1   0.0000
    31 H8       -0.9822    2.5801    1.5581   H         1 RES1   0.0000
    32 H9       -3.8801    1.5560    0.5413   H         1 RES1   0.0000
    33 H10      -2.8689   -0.4614    0.5985   H         1 RES1   0.0000
    34 N1        2.1635   -1.3930    1.3903   N.3       1 RES1   0.0000
    35 O8        3.1853   -1.8317    1.8170   O.2       1 RES1   0.0000
    36 O9        1.5852   -0.0699    1.8312   O.co2     1 RES1   0.0000
    37 O10       1.5288   -1.8767    0.1088   O.co2     1 RES1   0.0000
@<TRIPOS>BOND
     1     1     2    1
     2     1     5    1
     3     1    11    1
     4     1    13    1
     5     1    15    1
     6     1    19    1
     7     1    22    1
     8     1    36    1
     9     1    37    1
    10     2     3    2
    11     3     4    1
    12     3    23    1
    13     4     5    1
    14     4     6    2
    15     5    24    1
    16     6     7    1
    17     6    15    1
    18     7     8    1
    19     7    14    2
    20     8     9    2
    21     8    25    1
    22     9    10    1
    23     9    26    1
    24    10    11    1
    25    10    12    2
    26    11    27    1
    27    12    13    1
    28    12    14    1
    29    13    28    1
    30    14    29    1
    31    15    16    1
    32    16    17    1
    33    16    23    2
    34    17    18    2
    35    17    30    1
    36    18    19    1
    37    18    20    1
    38    19    31    1
    39    20    21    2
    40    20    32    1
    41    21    22    1
    42    21    23    1
    43    22    33    1
    44    34    35    2
    45    34    36    1
    46    34    37    1
@<TRIPOS>SUBSTRUCTURE
     1 RES1       37 GROUP             0 ****  ****    0  
