@<TRIPOS>MOLECULE
am_c3_9H2O_c0_0_nunpairedes_0_charge_2 Charge: 2 Unpaired_Electrons: 0 XTB_Unpaired_Electrons: 0 XTB_Charge: 2
    58    66     1     0     0
SMALL
NoCharges
****
Generated from Architector

@<TRIPOS>ATOM
     1 La1       0.1096   -0.1389    0.2503   La        1 RES1   0.0000
     2 C1        1.5429    1.4192   -5.2121   C.ar      1 RES1   0.0000
     3 C2        0.5939    2.4072   -5.0304   C.ar      1 RES1   0.0000
     4 C3       -0.0959    2.4976   -3.8365   C.ar      1 RES1   0.0000
     5 C4        0.1338    1.5792   -2.8182   C.ar      1 RES1   0.0000
     6 C5        1.0472    0.5400   -3.0248   C.ar      1 RES1   0.0000
     7 C6        1.7709    0.4850   -4.2135   C.ar      1 RES1   0.0000
     8 O1        1.1846   -0.4422   -2.0259   O.3       1 RES1   0.0000
     9 C7        1.2197   -1.7756   -2.5826   C.3       1 RES1   0.0000
    10 C8        0.2860   -2.7257   -1.8154   C.3       1 RES1   0.0000
    11 O2       -0.7905   -1.9446   -1.2792   O.3       1 RES1   0.0000
    12 C9       -1.7663   -2.7394   -0.6005   C.3       1 RES1   0.0000
    13 C10      -2.8800   -1.8002   -0.1277   C.3       1 RES1   0.0000
    14 O3       -2.3009   -0.6121    0.4434   O.3       1 RES1   0.0000
    15 C11      -3.1320    0.1465    1.2916   C.ar      1 RES1   0.0000
    16 C12      -4.4734   -0.1210    1.5173   C.ar      1 RES1   0.0000
    17 C13      -5.2116    0.6521    2.4030   C.ar      1 RES1   0.0000
    18 C14      -4.6129    1.7019    3.0704   C.ar      1 RES1   0.0000
    19 C15      -3.2810    1.9980    2.8352   C.ar      1 RES1   0.0000
    20 C16      -2.5358    1.2392    1.9450   C.ar      1 RES1   0.0000
    21 O4       -1.2050    1.5192    1.6175   O.3       1 RES1   0.0000
    22 C17      -0.5923    2.6040    2.3256   C.3       1 RES1   0.0000
    23 C18       0.8999    2.6122    1.9587   C.3       1 RES1   0.0000
    24 O5        1.1231    2.2294    0.6017   O.3       1 RES1   0.0000
    25 C19       0.7866    3.2373   -0.3602   C.3       1 RES1   0.0000
    26 C20      -0.5695    2.9531   -1.0173   C.3       1 RES1   0.0000
    27 O6       -0.5486    1.6310   -1.5869   O.3       1 RES1   0.0000
    28 H1        2.0831    1.3589   -6.1429   H         1 RES1   0.0000
    29 H2        0.3842    3.1229   -5.8088   H         1 RES1   0.0000
    30 H3       -0.8364    3.2739   -3.7232   H         1 RES1   0.0000
    31 H4        2.5069   -0.2879   -4.3848   H         1 RES1   0.0000
    32 H5        2.2444   -2.1612   -2.5421   H         1 RES1   0.0000
    33 H6        0.8784   -1.7308   -3.6190   H         1 RES1   0.0000
    34 H7        0.8160   -3.2431   -1.0079   H         1 RES1   0.0000
    35 H8       -0.1050   -3.4818   -2.5075   H         1 RES1   0.0000
    36 H9       -1.3128   -3.2718    0.2518   H         1 RES1   0.0000
    37 H10      -2.1974   -3.4860   -1.2833   H         1 RES1   0.0000
    38 H11      -3.4639   -2.3411    0.6212   H         1 RES1   0.0000
    39 H12      -3.5221   -1.5156   -0.9708   H         1 RES1   0.0000
    40 H13      -4.9830   -0.9204    1.0075   H         1 RES1   0.0000
    41 H14      -6.2479    0.4078    2.5631   H         1 RES1   0.0000
    42 H15      -5.1627    2.3036    3.7747   H         1 RES1   0.0000
    43 H16      -2.8471    2.8288    3.3637   H         1 RES1   0.0000
    44 H17      -0.6736    2.4577    3.4075   H         1 RES1   0.0000
    45 H18      -1.0831    3.5472    2.0532   H         1 RES1   0.0000
    46 H19       1.4095    1.8576    2.5676   H         1 RES1   0.0000
    47 H20       1.3378    3.6019    2.1469   H         1 RES1   0.0000
    48 H21       1.5696    3.1833   -1.1240   H         1 RES1   0.0000
    49 H22       0.8053    4.2370    0.0834   H         1 RES1   0.0000
    50 H23      -0.7645    3.7110   -1.7801   H         1 RES1   0.0000
    51 H24      -1.3936    2.9673   -0.2989   H         1 RES1   0.0000
    52 N1        0.3427   -1.9559    2.0833   N.3       1 RES1   0.0000
    53 O7        0.3716   -2.8141    2.8906   O.2       1 RES1   0.0000
    54 O8       -0.0649   -0.8039    2.3327   O.co2     1 RES1   0.0000
    55 O9        0.7093   -2.1457    0.9027   O.co2     1 RES1   0.0000
    56 O10       2.5095   -0.2086    1.3282   O.3       1 RES1   0.0000
    57 H25       3.3088   -0.5984    0.9388   H         1 RES1   0.0000
    58 H26       2.6716   -0.1769    2.2856   H         1 RES1   0.0000
@<TRIPOS>BOND
     1     1     8    1
     2     1    11    1
     3     1    14    1
     4     1    21    1
     5     1    24    1
     6     1    27    1
     7     1    54    1
     8     1    55    1
     9     1    56    1
    10     2     3    1
    11     2     7    2
    12     2    28    1
    13     3     4    2
    14     3    29    1
    15     4     5    1
    16     4    30    1
    17     5     6    2
    18     5    27    1
    19     6     7    1
    20     6     8    1
    21     7    31    1
    22     8     9    1
    23     9    10    1
    24     9    32    1
    25     9    33    1
    26    10    11    1
    27    10    34    1
    28    10    35    1
    29    11    12    1
    30    12    13    1
    31    12    36    1
    32    12    37    1
    33    13    14    1
    34    13    38    1
    35    13    39    1
    36    14    15    1
    37    15    16    1
    38    15    20    2
    39    16    17    2
    40    16    40    1
    41    17    18    1
    42    17    41    1
    43    18    19    2
    44    18    42    1
    45    19    20    1
    46    19    43    1
    47    20    21    1
    48    21    22    1
    49    22    23    1
    50    22    44    1
    51    22    45    1
    52    23    24    1
    53    23    46    1
    54    23    47    1
    55    24    25    1
    56    25    26    1
    57    25    48    1
    58    25    49    1
    59    26    27    1
    60    26    50    1
    61    26    51    1
    62    52    53    2
    63    52    54    1
    64    52    55    1
    65    56    57    1
    66    56    58    1
@<TRIPOS>SUBSTRUCTURE
     1 RES1       58 GROUP             0 ****  ****    0  
