@<TRIPOS>MOLECULE
am_c3_9H2O_c0_0_nunpairedes_0_charge_3 Charge: 3 Unpaired_Electrons: 0 XTB_Unpaired_Electrons: 0 XTB_Charge: 3
   130   138     1     0     0
SMALL
NoCharges
****
Generated from Architector

@<TRIPOS>ATOM
     1 La1      -0.0804   -0.0772   -0.3505   La        1 RES1   0.0000
     2 C1        1.6701    0.7621    4.6063   C.3       1 RES1   0.0000
     3 C2        1.8458    2.2598    4.3768   C.3       1 RES1   0.0000
     4 C3        0.8700    2.8652    3.3640   C.3       1 RES1   0.0000
     5 C4       -0.5767    2.5926    3.7805   C.3       1 RES1   0.0000
     6 N1       -1.5887    3.3632    3.0606   N.am      1 RES1   0.0000
     7 C5       -2.1678    4.5334    3.6979   C.3       1 RES1   0.0000
     8 C6       -1.5718    5.8750    3.2298   C.3       1 RES1   0.0000
     9 C7       -1.5176    6.2240    1.7365   C.3       1 RES1   0.0000
    10 C8       -0.3628    5.5962    0.9627   C.3       1 RES1   0.0000
    11 C9       -1.9578    3.0193    1.8571   C.2       1 RES1   0.0000
    12 O1       -1.2507    2.0953    1.2225   O.2       1 RES1   0.0000
    13 C10      -3.1481    3.4167    1.0885   C.ar      1 RES1   0.0000
    14 C11      -4.1836    4.3399    1.2750   C.ar      1 RES1   0.0000
    15 C12      -5.2079    4.3997    0.3428   C.ar      1 RES1   0.0000
    16 C13      -5.2086    3.5852   -0.7806   C.ar      1 RES1   0.0000
    17 C14      -4.1871    2.6662   -0.9947   C.ar      1 RES1   0.0000
    18 C15      -3.1833    2.5921   -0.0487   C.ar      1 RES1   0.0000
    19 C16      -1.9964    1.6617   -0.0634   C.2       1 RES1   0.0000
    20 O2       -2.1508    0.3830    0.0381   O.2       1 RES1   0.0000
    21 O3       -1.0754    1.9346   -1.1300   O.2       1 RES1   0.0000
    22 H1        2.5151    0.3767    5.1696   H         1 RES1   0.0000
    23 H2        1.5976    0.2135    3.6691   H         1 RES1   0.0000
    24 H3        0.7757    0.5571    5.1860   H         1 RES1   0.0000
    25 H4        2.8621    2.4577    4.0358   H         1 RES1   0.0000
    26 H5        1.7245    2.7742    5.3297   H         1 RES1   0.0000
    27 H6        1.0280    2.4469    2.3724   H         1 RES1   0.0000
    28 H7        1.0368    3.9416    3.3108   H         1 RES1   0.0000
    29 H8       -0.6819    2.8244    4.8407   H         1 RES1   0.0000
    30 H9       -0.7940    1.5289    3.6353   H         1 RES1   0.0000
    31 H10      -2.0023    4.4565    4.7744   H         1 RES1   0.0000
    32 H11      -3.2438    4.4959    3.5398   H         1 RES1   0.0000
    33 H12      -0.5632    5.9650    3.6341   H         1 RES1   0.0000
    34 H13      -2.1845    6.6277    3.7270   H         1 RES1   0.0000
    35 H14      -1.3841    7.3058    1.6942   H         1 RES1   0.0000
    36 H15      -2.4575    6.0124    1.2315   H         1 RES1   0.0000
    37 H16       0.5798    5.8106    1.4578   H         1 RES1   0.0000
    38 H17      -0.3228    6.0336   -0.0309   H         1 RES1   0.0000
    39 H18      -0.4482    4.5183    0.8475   H         1 RES1   0.0000
    40 H19      -4.2012    5.0354    2.0959   H         1 RES1   0.0000
    41 H20      -6.0037    5.1149    0.4928   H         1 RES1   0.0000
    42 H21      -6.0081    3.6758   -1.4974   H         1 RES1   0.0000
    43 H22      -4.1784    2.0331   -1.8715   H         1 RES1   0.0000
    44 H23      -1.1584    2.8436   -1.4700   H         1 RES1   0.0000
    45 C17       5.7986   -4.6011    0.9915   C.3       1 RES1   0.0000
    46 C18       6.3451   -3.5179    0.0694   C.3       1 RES1   0.0000
    47 C19       5.3516   -3.0924   -1.0177   C.3       1 RES1   0.0000
    48 C20       4.1386   -2.4221   -0.3679   C.3       1 RES1   0.0000
    49 N2        3.1151   -1.8157   -1.2184   N.am      1 RES1   0.0000
    50 C21       1.9899   -2.6560   -1.6317   C.3       1 RES1   0.0000
    51 C22       2.3022   -3.7731   -2.6264   C.3       1 RES1   0.0000
    52 C23       2.5047   -3.3003   -4.0643   C.3       1 RES1   0.0000
    53 C24       3.8016   -2.5425   -4.3036   C.3       1 RES1   0.0000
    54 C25       2.9447   -0.4985   -1.2690   C.2       1 RES1   0.0000
    55 O4        1.8250    0.0072   -1.5801   O.2       1 RES1   0.0000
    56 C26       4.0589    0.4248   -0.8644   C.ar      1 RES1   0.0000
    57 C27       5.3362    0.4234   -1.4137   C.ar      1 RES1   0.0000
    58 C28       6.2803    1.3411   -0.9777   C.ar      1 RES1   0.0000
    59 C29       5.9598    2.2769   -0.0081   C.ar      1 RES1   0.0000
    60 C30       4.6736    2.3425    0.5100   C.ar      1 RES1   0.0000
    61 C31       3.7274    1.4265    0.0736   C.ar      1 RES1   0.0000
    62 C32       2.3385    1.3003    0.5552   C.2       1 RES1   0.0000
    63 O5        1.3671    1.9452    0.2230   O.2       1 RES1   0.0000
    64 O6        2.1004    0.2236    1.3561   O.2       1 RES1   0.0000
    65 H24       6.5807   -4.9472    1.6595   H         1 RES1   0.0000
    66 H25       5.4508   -5.4535    0.4143   H         1 RES1   0.0000
    67 H26       4.9789   -4.2366    1.6066   H         1 RES1   0.0000
    68 H27       7.2358   -3.8986   -0.4269   H         1 RES1   0.0000
    69 H28       6.6465   -2.6486    0.6582   H         1 RES1   0.0000
    70 H29       5.0517   -3.9753   -1.5803   H         1 RES1   0.0000
    71 H30       5.8404   -2.3973   -1.6993   H         1 RES1   0.0000
    72 H31       4.5168   -1.6403    0.2992   H         1 RES1   0.0000
    73 H32       3.6152   -3.1703    0.2335   H         1 RES1   0.0000
    74 H33       1.2402   -2.0001   -2.0993   H         1 RES1   0.0000
    75 H34       1.5582   -3.1001   -0.7265   H         1 RES1   0.0000
    76 H35       1.4343   -4.4363   -2.5997   H         1 RES1   0.0000
    77 H36       3.1608   -4.3463   -2.2856   H         1 RES1   0.0000
    78 H37       1.6554   -2.6808   -4.3584   H         1 RES1   0.0000
    79 H38       2.4977   -4.1851   -4.6986   H         1 RES1   0.0000
    80 H39       3.8077   -1.5852   -3.7889   H         1 RES1   0.0000
    81 H40       3.9185   -2.3519   -5.3654   H         1 RES1   0.0000
    82 H41       4.6554   -3.1298   -3.9801   H         1 RES1   0.0000
    83 H42       5.5867   -0.2926   -2.1795   H         1 RES1   0.0000
    84 H43       7.2757    1.3093   -1.3904   H         1 RES1   0.0000
    85 H44       6.7177    2.9568    0.3452   H         1 RES1   0.0000
    86 H45       4.4261    3.0789    1.2596   H         1 RES1   0.0000
    87 H46       2.9158   -0.1886    1.6992   H         1 RES1   0.0000
    88 C33      -7.1813   -2.8975    1.0975   C.3       1 RES1   0.0000
    89 C34      -6.5267   -4.0315    0.3167   C.3       1 RES1   0.0000
    90 C35      -5.6869   -3.5485   -0.8728   C.3       1 RES1   0.0000
    91 C36      -4.5264   -2.6867   -0.3655   C.3       1 RES1   0.0000
    92 N3       -3.5422   -2.1322   -1.3029   N.am      1 RES1   0.0000
    93 C37      -3.8979   -0.8868   -1.9814   C.3       1 RES1   0.0000
    94 C38      -5.0231   -0.9615   -3.0247   C.3       1 RES1   0.0000
    95 C39      -4.5453   -1.1023   -4.4695   C.3       1 RES1   0.0000
    96 C40      -4.0747   -2.5071   -4.8190   C.3       1 RES1   0.0000
    97 C41      -2.2619   -2.4496   -1.1583   C.2       1 RES1   0.0000
    98 O7       -1.2955   -1.7299   -1.5491   O.2       1 RES1   0.0000
    99 C42      -1.9196   -3.7594   -0.4984   C.ar      1 RES1   0.0000
   100 C43      -2.3026   -4.9793   -1.0492   C.ar      1 RES1   0.0000
   101 C44      -1.8235   -6.1669   -0.5198   C.ar      1 RES1   0.0000
   102 C45      -0.9463   -6.1460    0.5540   C.ar      1 RES1   0.0000
   103 C46      -0.5251   -4.9436    1.1025   C.ar      1 RES1   0.0000
   104 C47      -1.0151   -3.7471    0.5818   C.ar      1 RES1   0.0000
   105 C48      -0.6001   -2.4177    1.0789   C.2       1 RES1   0.0000
   106 O8        0.5264   -1.9528    0.9205   O.2       1 RES1   0.0000
   107 O9       -1.4866   -1.6101    1.6606   O.2       1 RES1   0.0000
   108 H47      -7.8759   -3.3051    1.8252   H         1 RES1   0.0000
   109 H48      -7.7387   -2.2445    0.4312   H         1 RES1   0.0000
   110 H49      -6.4529   -2.3016    1.6437   H         1 RES1   0.0000
   111 H50      -7.3118   -4.6767   -0.0748   H         1 RES1   0.0000
   112 H51      -5.9137   -4.6334    0.9896   H         1 RES1   0.0000
   113 H52      -6.3465   -2.9835   -1.5283   H         1 RES1   0.0000
   114 H53      -5.3061   -4.4114   -1.4188   H         1 RES1   0.0000
   115 H54      -3.9737   -3.2928    0.3600   H         1 RES1   0.0000
   116 H55      -4.9566   -1.8233    0.1510   H         1 RES1   0.0000
   117 H56      -2.9820   -0.5116   -2.4502   H         1 RES1   0.0000
   118 H57      -4.1816   -0.1870   -1.1895   H         1 RES1   0.0000
   119 H58      -5.6117   -0.0460   -2.9349   H         1 RES1   0.0000
   120 H59      -5.6937   -1.7849   -2.8032   H         1 RES1   0.0000
   121 H60      -3.7516   -0.3795   -4.6692   H         1 RES1   0.0000
   122 H61      -5.3841   -0.8499   -5.1175   H         1 RES1   0.0000
   123 H62      -3.2121   -2.8003   -4.2241   H         1 RES1   0.0000
   124 H63      -3.7950   -2.5493   -5.8675   H         1 RES1   0.0000
   125 H64      -4.8731   -3.2287   -4.6635   H         1 RES1   0.0000
   126 H65      -2.9611   -4.9838   -1.9035   H         1 RES1   0.0000
   127 H66      -2.1409   -7.1044   -0.9496   H         1 RES1   0.0000
   128 H67      -0.5900   -7.0757    0.9647   H         1 RES1   0.0000
   129 H68       0.1524   -4.9274    1.9440   H         1 RES1   0.0000
   130 H69      -2.3887   -1.9685    1.7424   H         1 RES1   0.0000
@<TRIPOS>BOND
     1     1    12    1
     2     1    20    1
     3     1    21    1
     4     1    55    1
     5     1    63    1
     6     1    64    1
     7     1    98    1
     8     1   106    1
     9     1   107    1
    10     2     3    1
    11     2    22    1
    12     2    23    1
    13     2    24    1
    14     3     4    1
    15     3    25    1
    16     3    26    1
    17     4     5    1
    18     4    27    1
    19     4    28    1
    20     5     6    1
    21     5    29    1
    22     5    30    1
    23     6     7    1
    24     6    11    1
    25     7     8    1
    26     7    31    1
    27     7    32    1
    28     8     9    1
    29     8    33    1
    30     8    34    1
    31     9    10    1
    32     9    35    1
    33     9    36    1
    34    10    37    1
    35    10    38    1
    36    10    39    1
    37    11    12    2
    38    11    13    1
    39    13    14    1
    40    13    18    2
    41    14    15    2
    42    14    40    1
    43    15    16    1
    44    15    41    1
    45    16    17    2
    46    16    42    1
    47    17    18    1
    48    17    43    1
    49    18    19    1
    50    19    20    2
    51    19    21    1
    52    21    44    1
    53    45    46    1
    54    45    65    1
    55    45    66    1
    56    45    67    1
    57    46    47    1
    58    46    68    1
    59    46    69    1
    60    47    48    1
    61    47    70    1
    62    47    71    1
    63    48    49    1
    64    48    72    1
    65    48    73    1
    66    49    50    1
    67    49    54    1
    68    50    51    1
    69    50    74    1
    70    50    75    1
    71    51    52    1
    72    51    76    1
    73    51    77    1
    74    52    53    1
    75    52    78    1
    76    52    79    1
    77    53    80    1
    78    53    81    1
    79    53    82    1
    80    54    55    2
    81    54    56    1
    82    56    57    1
    83    56    61    2
    84    57    58    2
    85    57    83    1
    86    58    59    1
    87    58    84    1
    88    59    60    2
    89    59    85    1
    90    60    61    1
    91    60    86    1
    92    61    62    1
    93    62    63    2
    94    62    64    1
    95    64    87    1
    96    88    89    1
    97    88   108    1
    98    88   109    1
    99    88   110    1
   100    89    90    1
   101    89   111    1
   102    89   112    1
   103    90    91    1
   104    90   113    1
   105    90   114    1
   106    91    92    1
   107    91   115    1
   108    91   116    1
   109    92    93    1
   110    92    97    1
   111    93    94    1
   112    93   117    1
   113    93   118    1
   114    94    95    1
   115    94   119    1
   116    94   120    1
   117    95    96    1
   118    95   121    1
   119    95   122    1
   120    96   123    1
   121    96   124    1
   122    96   125    1
   123    97    98    2
   124    97    99    1
   125    99   100    1
   126    99   104    2
   127   100   101    2
   128   100   126    1
   129   101   102    1
   130   101   127    1
   131   102   103    2
   132   102   128    1
   133   103   104    1
   134   103   129    1
   135   104   105    1
   136   105   106    2
   137   105   107    1
   138   107   130    1
@<TRIPOS>SUBSTRUCTURE
     1 RES1      130 GROUP             0 ****  ****    0  
