@<TRIPOS>MOLECULE
am_c3_9H2O_c0_0_nunpairedes_0_charge_3 Charge: 3 Unpaired_Electrons: 0 XTB_Unpaired_Electrons: 0 XTB_Charge: 3
   358   363     1     0     0
SMALL
NoCharges
****
Generated from Architector

@<TRIPOS>ATOM
     1 La1      -0.0409    0.5583    0.1232   La        1 RES1   0.0000
     2 C1       -3.9964   -2.4307   -2.5118   C.3       1 RES1   0.0000
     3 C2       -4.0279   -0.9468   -2.8622   C.3       1 RES1   0.0000
     4 C3       -4.6971   -0.7037   -4.2140   C.3       1 RES1   0.0000
     5 C4       -4.6967    0.7663   -4.6353   C.3       1 RES1   0.0000
     6 C5       -3.2904    1.3328   -4.8934   C.3       1 RES1   0.0000
     7 C6       -3.0097    2.5991   -4.0812   C.3       1 RES1   0.0000
     8 C7       -1.5191    2.9188   -4.0805   C.3       1 RES1   0.0000
     9 C8       -1.2047    4.2578   -3.4142   C.3       1 RES1   0.0000
    10 N1       -1.7915    4.3868   -2.0813   N.am      1 RES1   0.0000
    11 C9       -2.7511    5.4667   -1.8956   C.3       1 RES1   0.0000
    12 C10      -2.0700    6.8214   -1.6368   C.3       1 RES1   0.0000
    13 C11      -3.0322    7.8479   -1.0251   C.3       1 RES1   0.0000
    14 C12      -3.4304    7.5704    0.4272   C.3       1 RES1   0.0000
    15 C13      -2.3605    7.9028    1.4677   C.3       1 RES1   0.0000
    16 C14      -2.8553    7.5345    2.8672   C.3       1 RES1   0.0000
    17 C15      -1.7768    7.6530    3.9393   C.3       1 RES1   0.0000
    18 C16      -2.3324    7.4056    5.3340   C.3       1 RES1   0.0000
    19 C17      -1.3815    3.5657   -1.1268   C.2       1 RES1   0.0000
    20 O1       -0.5600    2.6430   -1.3253   O.2       1 RES1   0.0000
    21 C18      -1.8320    3.7381    0.3248   C.3       1 RES1   0.0000
    22 C19      -0.7393    4.5076    1.0604   C.3       1 RES1   0.0000
    23 O2       -1.9064    2.4154    0.8589   O.3       1 RES1   0.0000
    24 C20      -3.1960    2.0049    1.3211   C.3       1 RES1   0.0000
    25 C21      -3.1108    2.0595    2.8399   C.3       1 RES1   0.0000
    26 C22      -3.3783    0.5509    0.8315   C.2       1 RES1   0.0000
    27 O3       -2.3947    0.0131    0.2892   O.2       1 RES1   0.0000
    28 N2       -4.5243   -0.0831    1.0505   N.am      1 RES1   0.0000
    29 C23      -4.6470   -1.5293    0.8408   C.3       1 RES1   0.0000
    30 C24      -3.4069   -2.3080    1.2606   C.3       1 RES1   0.0000
    31 C25      -3.7064   -3.7723    1.5957   C.3       1 RES1   0.0000
    32 C26      -4.5494   -3.9905    2.8587   C.3       1 RES1   0.0000
    33 C27      -4.3363   -5.3837    3.4556   C.3       1 RES1   0.0000
    34 C28      -5.0980   -5.6073    4.7679   C.3       1 RES1   0.0000
    35 C29      -4.5715   -4.8217    5.9822   C.3       1 RES1   0.0000
    36 C30      -3.8322   -5.7187    6.9673   C.3       1 RES1   0.0000
    37 C31      -5.7670    0.5530    1.4578   C.3       1 RES1   0.0000
    38 C32      -6.8241    0.5697    0.3504   C.3       1 RES1   0.0000
    39 C33      -6.4531    1.4277   -0.8710   C.3       1 RES1   0.0000
    40 C34      -7.5208    2.4830   -1.1743   C.3       1 RES1   0.0000
    41 C35      -7.5217    2.9612   -2.6271   C.3       1 RES1   0.0000
    42 C36      -7.9946    1.9195   -3.6506   C.3       1 RES1   0.0000
    43 C37      -9.5110    1.8572   -3.8631   C.3       1 RES1   0.0000
    44 C38     -10.3216    1.1480   -2.7772   C.3       1 RES1   0.0000
    45 H1       -3.6785   -3.0115   -3.3731   H         1 RES1   0.0000
    46 H2       -4.9868   -2.7834   -2.2346   H         1 RES1   0.0000
    47 H3       -3.3065   -2.6190   -1.6904   H         1 RES1   0.0000
    48 H4       -3.0108   -0.5513   -2.8629   H         1 RES1   0.0000
    49 H5       -4.5612   -0.3943   -2.0859   H         1 RES1   0.0000
    50 H6       -5.7303   -1.0496   -4.1526   H         1 RES1   0.0000
    51 H7       -4.1980   -1.2989   -4.9815   H         1 RES1   0.0000
    52 H8       -5.1880    1.3524   -3.8573   H         1 RES1   0.0000
    53 H9       -5.3055    0.8569   -5.5352   H         1 RES1   0.0000
    54 H10      -3.1690    1.5542   -5.9554   H         1 RES1   0.0000
    55 H11      -2.5394    0.5833   -4.6318   H         1 RES1   0.0000
    56 H12      -3.3340    2.4474   -3.0476   H         1 RES1   0.0000
    57 H13      -3.5781    3.4345   -4.4976   H         1 RES1   0.0000
    58 H14      -1.1588    2.9666   -5.1082   H         1 RES1   0.0000
    59 H15      -0.9824    2.1159   -3.5681   H         1 RES1   0.0000
    60 H16      -1.5942    5.0782   -4.0149   H         1 RES1   0.0000
    61 H17      -0.1176    4.3726   -3.3212   H         1 RES1   0.0000
    62 H18      -3.4250    5.2313   -1.0732   H         1 RES1   0.0000
    63 H19      -3.3709    5.5354   -2.7920   H         1 RES1   0.0000
    64 H20      -1.6802    7.2180   -2.5778   H         1 RES1   0.0000
    65 H21      -1.2136    6.6735   -0.9750   H         1 RES1   0.0000
    66 H22      -3.9336    7.8970   -1.6389   H         1 RES1   0.0000
    67 H23      -2.5542    8.8259   -1.0720   H         1 RES1   0.0000
    68 H24      -3.7148    6.5212    0.5468   H         1 RES1   0.0000
    69 H25      -4.3138    8.1655    0.6618   H         1 RES1   0.0000
    70 H26      -2.1342    8.9681    1.4296   H         1 RES1   0.0000
    71 H27      -1.4328    7.3683    1.2544   H         1 RES1   0.0000
    72 H28      -3.2333    6.5072    2.8494   H         1 RES1   0.0000
    73 H29      -3.6927    8.1818    3.1274   H         1 RES1   0.0000
    74 H30      -1.3376    8.6494    3.8999   H         1 RES1   0.0000
    75 H31      -0.9803    6.9357    3.7297   H         1 RES1   0.0000
    76 H32      -3.0390    8.1828    5.6026   H         1 RES1   0.0000
    77 H33      -1.5329    7.4081    6.0677   H         1 RES1   0.0000
    78 H34      -2.8454    6.4489    5.3922   H         1 RES1   0.0000
    79 H35      -2.7934    4.2369    0.4440   H         1 RES1   0.0000
    80 H36       0.1863    3.9421    0.9801   H         1 RES1   0.0000
    81 H37      -1.0034    4.6385    2.1059   H         1 RES1   0.0000
    82 H38      -0.6084    5.4888    0.6136   H         1 RES1   0.0000
    83 H39      -3.9685    2.6562    0.8969   H         1 RES1   0.0000
    84 H40      -2.3971    1.2884    3.1175   H         1 RES1   0.0000
    85 H41      -4.0563    1.8841    3.3317   H         1 RES1   0.0000
    86 H42      -2.7398    3.0272    3.1676   H         1 RES1   0.0000
    87 H43      -4.8866   -1.7290   -0.2033   H         1 RES1   0.0000
    88 H44      -5.4892   -1.8574    1.4571   H         1 RES1   0.0000
    89 H45      -2.9820   -1.8175    2.1382   H         1 RES1   0.0000
    90 H46      -2.6652   -2.2633    0.4620   H         1 RES1   0.0000
    91 H47      -2.7454   -4.2840    1.7218   H         1 RES1   0.0000
    92 H48      -4.2079   -4.2344    0.7441   H         1 RES1   0.0000
    93 H49      -5.6060   -3.8886    2.6056   H         1 RES1   0.0000
    94 H50      -4.3135   -3.2262    3.6017   H         1 RES1   0.0000
    95 H51      -3.2702   -5.5734    3.6173   H         1 RES1   0.0000
    96 H52      -4.6958   -6.1198    2.7305   H         1 RES1   0.0000
    97 H53      -5.0464   -6.6726    5.0048   H         1 RES1   0.0000
    98 H54      -6.1498   -5.3685    4.5958   H         1 RES1   0.0000
    99 H55      -5.3992   -4.3443    6.5126   H         1 RES1   0.0000
   100 H56      -3.9008   -4.0293    5.6477   H         1 RES1   0.0000
   101 H57      -4.5158   -6.4308    7.4096   H         1 RES1   0.0000
   102 H58      -3.3963   -5.1364    7.7772   H         1 RES1   0.0000
   103 H59      -3.0392   -6.2624    6.4651   H         1 RES1   0.0000
   104 H60      -5.5869    1.5761    1.7726   H         1 RES1   0.0000
   105 H61      -6.1730   -0.0039    2.3042   H         1 RES1   0.0000
   106 H62      -7.7288    0.9767    0.8044   H         1 RES1   0.0000
   107 H63      -7.0510   -0.4469    0.0309   H         1 RES1   0.0000
   108 H64      -6.3248    0.7894   -1.7482   H         1 RES1   0.0000
   109 H65      -5.4990    1.9276   -0.6890   H         1 RES1   0.0000
   110 H66      -7.3639    3.3396   -0.5146   H         1 RES1   0.0000
   111 H67      -8.5002    2.0738   -0.9528   H         1 RES1   0.0000
   112 H68      -6.5108    3.3000   -2.8857   H         1 RES1   0.0000
   113 H69      -8.1831    3.8283   -2.7028   H         1 RES1   0.0000
   114 H70      -7.6255    0.9259   -3.3887   H         1 RES1   0.0000
   115 H71      -7.5485    2.1867   -4.6115   H         1 RES1   0.0000
   116 H72      -9.6827    1.3421   -4.8100   H         1 RES1   0.0000
   117 H73      -9.8865    2.8752   -3.9869   H         1 RES1   0.0000
   118 H74      -9.7919    0.2794   -2.3854   H         1 RES1   0.0000
   119 H75     -11.2673    0.8016   -3.1918   H         1 RES1   0.0000
   120 H76     -10.5548    1.8254   -1.9595   H         1 RES1   0.0000
   121 C39       3.4795   -6.3173   -1.8479   C.3       1 RES1   0.0000
   122 C40       4.0077   -5.9872   -0.4530   C.3       1 RES1   0.0000
   123 C41       5.1377   -4.9574   -0.4957   C.3       1 RES1   0.0000
   124 C42       5.8081   -4.7356    0.8604   C.3       1 RES1   0.0000
   125 C43       4.9821   -3.9492    1.8817   C.3       1 RES1   0.0000
   126 C44       4.9698   -2.4384    1.6410   C.3       1 RES1   0.0000
   127 C45       4.5017   -1.6740    2.8841   C.3       1 RES1   0.0000
   128 C46       5.0975   -0.2771    2.9960   C.3       1 RES1   0.0000
   129 N3        4.3303    0.9010    2.5583   N.am      1 RES1   0.0000
   130 C47       5.0451    2.1085    2.9904   C.3       1 RES1   0.0000
   131 C48       4.5806    2.6380    4.3504   C.3       1 RES1   0.0000
   132 C49       5.3306    3.9096    4.7610   C.3       1 RES1   0.0000
   133 C50       5.0897    5.1172    3.8504   C.3       1 RES1   0.0000
   134 C51       3.6414    5.6061    3.8174   C.3       1 RES1   0.0000
   135 C52       3.4758    6.8213    2.9056   C.3       1 RES1   0.0000
   136 C53       2.0399    7.3380    2.8954   C.3       1 RES1   0.0000
   137 C54       1.8879    8.6164    2.0851   C.3       1 RES1   0.0000
   138 C55       3.1486    0.9587    1.9513   C.2       1 RES1   0.0000
   139 O4        2.4961    0.0207    1.4511   O.2       1 RES1   0.0000
   140 C56       2.4383    2.3280    1.8622   C.3       1 RES1   0.0000
   141 C57       1.3078    2.2958    2.8961   C.3       1 RES1   0.0000
   142 O5        1.8490    2.4537    0.5644   O.3       1 RES1   0.0000
   143 C58       2.7635    2.8328   -0.4838   C.3       1 RES1   0.0000
   144 C59       2.3368    4.2177   -0.9817   C.3       1 RES1   0.0000
   145 C60       2.6376    1.7796   -1.6058   C.2       1 RES1   0.0000
   146 O6        1.7735    0.8868   -1.4840   O.2       1 RES1   0.0000
   147 N4        3.4139    1.8723   -2.6802   N.am      1 RES1   0.0000
   148 C61       3.0676    1.0839   -3.8642   C.3       1 RES1   0.0000
   149 C62       2.0466    1.8192   -4.7534   C.3       1 RES1   0.0000
   150 C63       2.6682    2.7387   -5.8104   C.3       1 RES1   0.0000
   151 C64       1.6619    3.6920   -6.4615   C.3       1 RES1   0.0000
   152 C65       0.6939    3.0232   -7.4423   C.3       1 RES1   0.0000
   153 C66       0.0484    4.0359   -8.3963   C.3       1 RES1   0.0000
   154 C67      -0.9598    4.9818   -7.7275   C.3       1 RES1   0.0000
   155 C68      -2.3758    4.4106   -7.7493   C.3       1 RES1   0.0000
   156 C69       4.6126    2.6874   -2.8078   C.3       1 RES1   0.0000
   157 C70       5.9089    1.8890   -2.6247   C.3       1 RES1   0.0000
   158 C71       6.2489    1.5938   -1.1631   C.3       1 RES1   0.0000
   159 C72       7.6469    0.9640   -1.0048   C.3       1 RES1   0.0000
   160 C73       7.6363   -0.5057   -0.5826   C.3       1 RES1   0.0000
   161 C74       7.0093   -1.4736   -1.5923   C.3       1 RES1   0.0000
   162 C75       7.9986   -2.1051   -2.5745   C.3       1 RES1   0.0000
   163 C76       8.6311   -1.1303   -3.5596   C.3       1 RES1   0.0000
   164 H77       2.6501   -7.0210   -1.7845   H         1 RES1   0.0000
   165 H78       4.2623   -6.7723   -2.4512   H         1 RES1   0.0000
   166 H79       3.1368   -5.4182   -2.3628   H         1 RES1   0.0000
   167 H80       4.3775   -6.9046    0.0101   H         1 RES1   0.0000
   168 H81       3.1815   -5.6176    0.1633   H         1 RES1   0.0000
   169 H82       4.7601   -4.0106   -0.8914   H         1 RES1   0.0000
   170 H83       5.8973   -5.3214   -1.1888   H         1 RES1   0.0000
   171 H84       6.7544   -4.2127    0.7039   H         1 RES1   0.0000
   172 H85       6.0462   -5.7129    1.2855   H         1 RES1   0.0000
   173 H86       5.4379   -4.1174    2.8581   H         1 RES1   0.0000
   174 H87       3.9643   -4.3390    1.9288   H         1 RES1   0.0000
   175 H88       4.3606   -2.1684    0.7773   H         1 RES1   0.0000
   176 H89       5.9968   -2.1396    1.4213   H         1 RES1   0.0000
   177 H90       4.8375   -2.2253    3.7649   H         1 RES1   0.0000
   178 H91       3.4204   -1.6144    2.9392   H         1 RES1   0.0000
   179 H92       6.0488   -0.2521    2.4540   H         1 RES1   0.0000
   180 H93       5.3193   -0.0853    4.0500   H         1 RES1   0.0000
   181 H94       4.9633    2.8869    2.2327   H         1 RES1   0.0000
   182 H95       6.1070    1.8602    3.0550   H         1 RES1   0.0000
   183 H96       4.7408    1.8741    5.1138   H         1 RES1   0.0000
   184 H97       3.5138    2.8530    4.3275   H         1 RES1   0.0000
   185 H98       6.4009    3.6996    4.7852   H         1 RES1   0.0000
   186 H99       5.0223    4.1761    5.7737   H         1 RES1   0.0000
   187 H100      5.4237    4.8960    2.8340   H         1 RES1   0.0000
   188 H101      5.7147    5.9342    4.2141   H         1 RES1   0.0000
   189 H102      3.3326    5.8702    4.8299   H         1 RES1   0.0000
   190 H103      2.9694    4.8154    3.4706   H         1 RES1   0.0000
   191 H104      3.7846    6.5620    1.8889   H         1 RES1   0.0000
   192 H105      4.1397    7.6135    3.2476   H         1 RES1   0.0000
   193 H106      1.7327    7.5345    3.9224   H         1 RES1   0.0000
   194 H107      1.3776    6.5621    2.4966   H         1 RES1   0.0000
   195 H108      2.5186    9.3998    2.4919   H         1 RES1   0.0000
   196 H109      0.8604    8.9650    2.1192   H         1 RES1   0.0000
   197 H110      2.1711    8.4583    1.0477   H         1 RES1   0.0000
   198 H111      3.0853    3.1862    2.0432   H         1 RES1   0.0000
   199 H112      0.4815    1.6792    2.5133   H         1 RES1   0.0000
   200 H113      0.9458    3.2992    3.1027   H         1 RES1   0.0000
   201 H114      1.6531    1.8554    3.8294   H         1 RES1   0.0000
   202 H115      3.7842    2.8478   -0.0864   H         1 RES1   0.0000
   203 H116      1.3339    4.1403   -1.3929   H         1 RES1   0.0000
   204 H117      2.9937    4.6096   -1.7495   H         1 RES1   0.0000
   205 H118      2.3362    4.9190   -0.1496   H         1 RES1   0.0000
   206 H119      2.6449    0.1369   -3.5250   H         1 RES1   0.0000
   207 H120      3.9799    0.8865   -4.4278   H         1 RES1   0.0000
   208 H121      1.3841    2.3911   -4.0993   H         1 RES1   0.0000
   209 H122      1.4375    1.0748   -5.2697   H         1 RES1   0.0000
   210 H123      3.1344    2.1317   -6.5887   H         1 RES1   0.0000
   211 H124      3.4540    3.3512   -5.3662   H         1 RES1   0.0000
   212 H125      2.2273    4.4458   -7.0138   H         1 RES1   0.0000
   213 H126      1.1082    4.2127   -5.6764   H         1 RES1   0.0000
   214 H127     -0.0843    2.4705   -6.9088   H         1 RES1   0.0000
   215 H128      1.2516    2.3031   -8.0451   H         1 RES1   0.0000
   216 H129     -0.4650    3.4961   -9.1959   H         1 RES1   0.0000
   217 H130      0.8432    4.6207   -8.8626   H         1 RES1   0.0000
   218 H131     -0.9667    5.9372   -8.2566   H         1 RES1   0.0000
   219 H132     -0.6591    5.1859   -6.6951   H         1 RES1   0.0000
   220 H133     -2.7454    4.3660   -8.7720   H         1 RES1   0.0000
   221 H134     -3.0590    5.0321   -7.1714   H         1 RES1   0.0000
   222 H135     -2.3937    3.4027   -7.3381   H         1 RES1   0.0000
   223 H136      4.6089    3.5055   -2.0938   H         1 RES1   0.0000
   224 H137      4.6048    3.1215   -3.8083   H         1 RES1   0.0000
   225 H138      6.7172    2.4804   -3.0564   H         1 RES1   0.0000
   226 H139      5.8627    0.9534   -3.1801   H         1 RES1   0.0000
   227 H140      5.4926    0.9276   -0.7380   H         1 RES1   0.0000
   228 H141      6.2218    2.5342   -0.6042   H         1 RES1   0.0000
   229 H142      8.2063    1.5218   -0.2504   H         1 RES1   0.0000
   230 H143      8.1934    1.0633   -1.9396   H         1 RES1   0.0000
   231 H144      7.0950   -0.5792    0.3651   H         1 RES1   0.0000
   232 H145      8.6640   -0.8159   -0.3858   H         1 RES1   0.0000
   233 H146      6.2192   -0.9695   -2.1526   H         1 RES1   0.0000
   234 H147      6.5404   -2.2913   -1.0401   H         1 RES1   0.0000
   235 H148      7.4627   -2.8747   -3.1363   H         1 RES1   0.0000
   236 H149      8.7876   -2.6065   -2.0111   H         1 RES1   0.0000
   237 H150      7.8678   -0.5533   -4.0788   H         1 RES1   0.0000
   238 H151      9.2068   -1.6775   -4.3010   H         1 RES1   0.0000
   239 H152      9.3113   -0.4482   -3.0582   H         1 RES1   0.0000
   240 C77      -9.0662   -3.0975    3.0227   C.3       1 RES1   0.0000
   241 C78      -8.6688   -1.8666    3.8268   C.3       1 RES1   0.0000
   242 C79      -7.1919   -1.9470    4.2164   C.3       1 RES1   0.0000
   243 C80      -6.7628   -0.9289    5.2734   C.3       1 RES1   0.0000
   244 C81      -5.3012   -1.0760    5.7291   C.3       1 RES1   0.0000
   245 C82      -4.2858   -0.5544    4.7072   C.3       1 RES1   0.0000
   246 C83      -2.8667   -0.3139    5.2419   C.3       1 RES1   0.0000
   247 C84      -1.8552   -1.4657    5.2685   C.3       1 RES1   0.0000
   248 N5       -1.2713   -2.1477    4.0781   N.am      1 RES1   0.0000
   249 C85      -0.9939   -3.5420    4.4623   C.3       1 RES1   0.0000
   250 C86       0.0374   -3.6699    5.5978   C.3       1 RES1   0.0000
   251 C87       0.4056   -5.1377    5.8492   C.3       1 RES1   0.0000
   252 C88       1.5853   -5.6574    5.0225   C.3       1 RES1   0.0000
   253 C89       2.9420   -5.1473    5.5112   C.3       1 RES1   0.0000
   254 C90       4.1047   -6.0043    5.0083   C.3       1 RES1   0.0000
   255 C91       5.4335   -5.5179    5.5827   C.3       1 RES1   0.0000
   256 C92       6.6152   -6.3939    5.1912   C.3       1 RES1   0.0000
   257 C93      -0.7671   -1.5980    2.9623   C.2       1 RES1   0.0000
   258 O7       -0.7631   -0.3837    2.6862   O.2       1 RES1   0.0000
   259 C94      -0.1451   -2.5641    1.9149   C.3       1 RES1   0.0000
   260 C95       1.2668   -2.9615    2.3371   C.3       1 RES1   0.0000
   261 O8       -0.0941   -1.8849    0.6496   O.3       1 RES1   0.0000
   262 C96       0.3593   -2.7019   -0.4399   C.3       1 RES1   0.0000
   263 C97       1.8763   -2.5898   -0.6812   C.3       1 RES1   0.0000
   264 C98      -0.2661   -2.1117   -1.7101   C.2       1 RES1   0.0000
   265 O9       -0.5261   -0.8909   -1.7160   O.2       1 RES1   0.0000
   266 N6       -0.3991   -2.8895   -2.7730   N.am      1 RES1   0.0000
   267 C99      -0.7917   -2.2767   -4.0376   C.3       1 RES1   0.0000
   268 C100      0.4198   -1.9577   -4.9313   C.3       1 RES1   0.0000
   269 C101      0.6012   -2.9063   -6.1225   C.3       1 RES1   0.0000
   270 C102      1.9823   -2.7738   -6.7712   C.3       1 RES1   0.0000
   271 C103      2.1469   -1.4866   -7.5781   C.3       1 RES1   0.0000
   272 C104      3.5741   -1.2801   -8.0911   C.3       1 RES1   0.0000
   273 C105      4.5979   -1.1052   -6.9625   C.3       1 RES1   0.0000
   274 C106      5.7698   -0.2295   -7.3888   C.3       1 RES1   0.0000
   275 C107     -0.0731   -4.3089   -2.8417   C.3       1 RES1   0.0000
   276 C108     -1.2766   -5.2547   -2.7496   C.3       1 RES1   0.0000
   277 C109     -1.7632   -5.5734   -1.3331   C.3       1 RES1   0.0000
   278 C110     -2.5454   -6.9027   -1.2885   C.3       1 RES1   0.0000
   279 C111     -3.9487   -6.8048   -0.6880   C.3       1 RES1   0.0000
   280 C112     -4.9211   -5.9739   -1.5392   C.3       1 RES1   0.0000
   281 C113     -5.9177   -6.8233   -2.3303   C.3       1 RES1   0.0000
   282 C114     -5.2496   -7.8044   -3.2826   C.3       1 RES1   0.0000
   283 H153     -8.4475   -3.1955    2.1299   H         1 RES1   0.0000
   284 H154    -10.1066   -3.0447    2.7063   H         1 RES1   0.0000
   285 H155     -8.9396   -3.9939    3.6219   H         1 RES1   0.0000
   286 H156     -9.2774   -1.8013    4.7278   H         1 RES1   0.0000
   287 H157     -8.8641   -0.9614    3.2524   H         1 RES1   0.0000
   288 H158     -6.5929   -1.8322    3.3074   H         1 RES1   0.0000
   289 H159     -6.9937   -2.9424    4.6083   H         1 RES1   0.0000
   290 H160     -7.4013   -1.0636    6.1492   H         1 RES1   0.0000
   291 H161     -6.9327    0.0905    4.9183   H         1 RES1   0.0000
   292 H162     -5.1076   -2.1184    5.9736   H         1 RES1   0.0000
   293 H163     -5.1914   -0.4951    6.6502   H         1 RES1   0.0000
   294 H164     -4.6919    0.3985    4.3748   H         1 RES1   0.0000
   295 H165     -4.2393   -1.2090    3.8418   H         1 RES1   0.0000
   296 H166     -2.9611   -0.0357    6.3007   H         1 RES1   0.0000
   297 H167     -2.4215    0.5444    4.7492   H         1 RES1   0.0000
   298 H168     -2.3247   -2.2658    5.8335   H         1 RES1   0.0000
   299 H169     -1.0114   -1.1000    5.8590   H         1 RES1   0.0000
   300 H170     -0.6544   -4.1278    3.6154   H         1 RES1   0.0000
   301 H171     -1.9370   -3.9731    4.8066   H         1 RES1   0.0000
   302 H172     -0.3726   -3.2555    6.5151   H         1 RES1   0.0000
   303 H173      0.9385   -3.1001    5.3742   H         1 RES1   0.0000
   304 H174     -0.4739   -5.7517    5.6508   H         1 RES1   0.0000
   305 H175      0.6489   -5.2628    6.9051   H         1 RES1   0.0000
   306 H176      1.4557   -5.4104    3.9672   H         1 RES1   0.0000
   307 H177      1.5970   -6.7452    5.0950   H         1 RES1   0.0000
   308 H178      2.9495   -5.1688    6.6024   H         1 RES1   0.0000
   309 H179      3.0987   -4.1106    5.1960   H         1 RES1   0.0000
   310 H180      4.1372   -5.9842    3.9169   H         1 RES1   0.0000
   311 H181      3.9432   -7.0398    5.3115   H         1 RES1   0.0000
   312 H182      5.3560   -5.5025    6.6700   H         1 RES1   0.0000
   313 H183      5.6157   -4.4911    5.2521   H         1 RES1   0.0000
   314 H184      6.4757   -7.4100    5.5487   H         1 RES1   0.0000
   315 H185      7.5292   -6.0051    5.6327   H         1 RES1   0.0000
   316 H186      6.7428   -6.4235    4.1116   H         1 RES1   0.0000
   317 H187     -0.7982   -3.4356    1.7891   H         1 RES1   0.0000
   318 H188      1.9316   -2.2013    1.9393   H         1 RES1   0.0000
   319 H189      1.5455   -3.9343    1.9413   H         1 RES1   0.0000
   320 H190      1.3838   -2.9944    3.4139   H         1 RES1   0.0000
   321 H191      0.0362   -3.7331   -0.2660   H         1 RES1   0.0000
   322 H192      2.4442   -3.2969   -0.0874   H         1 RES1   0.0000
   323 H193      2.2027   -1.5709   -0.4564   H         1 RES1   0.0000
   324 H194      2.1003   -2.7823   -1.7288   H         1 RES1   0.0000
   325 H195     -1.3178   -1.3567   -3.7912   H         1 RES1   0.0000
   326 H196     -1.4774   -2.9481   -4.5514   H         1 RES1   0.0000
   327 H197      1.3277   -1.9601   -4.3206   H         1 RES1   0.0000
   328 H198      0.3019   -0.9449   -5.3135   H         1 RES1   0.0000
   329 H199     -0.1703   -2.7015   -6.8661   H         1 RES1   0.0000
   330 H200      0.4767   -3.9440   -5.8075   H         1 RES1   0.0000
   331 H201      2.1405   -3.6217   -7.4397   H         1 RES1   0.0000
   332 H202      2.7491   -2.8227   -5.9950   H         1 RES1   0.0000
   333 H203      1.8695   -0.6222   -6.9672   H         1 RES1   0.0000
   334 H204      1.4694   -1.5205   -8.4340   H         1 RES1   0.0000
   335 H205      3.5819   -0.3874   -8.7212   H         1 RES1   0.0000
   336 H206      3.8654   -2.1207   -8.7225   H         1 RES1   0.0000
   337 H207      4.9783   -2.0789   -6.6470   H         1 RES1   0.0000
   338 H208      4.1030   -0.6494   -6.0991   H         1 RES1   0.0000
   339 H209      6.2714   -0.6593   -8.2505   H         1 RES1   0.0000
   340 H210      6.4969   -0.1372   -6.5844   H         1 RES1   0.0000
   341 H211      5.4278    0.7677   -7.6582   H         1 RES1   0.0000
   342 H212      0.6607   -4.5869   -2.0871   H         1 RES1   0.0000
   343 H213      0.3995   -4.4516   -3.8131   H         1 RES1   0.0000
   344 H214     -0.9670   -6.1886   -3.2188   H         1 RES1   0.0000
   345 H215     -2.1080   -4.8607   -3.3327   H         1 RES1   0.0000
   346 H216     -2.3907   -4.7618   -0.9640   H         1 RES1   0.0000
   347 H217     -0.8985   -5.6571   -0.6694   H         1 RES1   0.0000
   348 H218     -1.9721   -7.6337   -0.7139   H         1 RES1   0.0000
   349 H219     -2.6395   -7.2919   -2.3006   H         1 RES1   0.0000
   350 H220     -3.8764   -6.3982    0.3217   H         1 RES1   0.0000
   351 H221     -4.3443   -7.8161   -0.5896   H         1 RES1   0.0000
   352 H222     -4.3583   -5.3543   -2.2393   H         1 RES1   0.0000
   353 H223     -5.4954   -5.3015   -0.8945   H         1 RES1   0.0000
   354 H224     -6.5648   -6.1543   -2.9021   H         1 RES1   0.0000
   355 H225     -6.5531   -7.3711   -1.6335   H         1 RES1   0.0000
   356 H226     -4.6242   -7.2790   -4.0010   H         1 RES1   0.0000
   357 H227     -5.9988   -8.3671   -3.8315   H         1 RES1   0.0000
   358 H228     -4.6359   -8.5173   -2.7402   H         1 RES1   0.0000
@<TRIPOS>BOND
     1     1    20    1
     2     1    23    1
     3     1    27    1
     4     1   139    1
     5     1   142    1
     6     1   146    1
     7     1   258    1
     8     1   261    1
     9     1   265    1
    10     2     3    1
    11     2    45    1
    12     2    46    1
    13     2    47    1
    14     3     4    1
    15     3    48    1
    16     3    49    1
    17     4     5    1
    18     4    50    1
    19     4    51    1
    20     5     6    1
    21     5    52    1
    22     5    53    1
    23     6     7    1
    24     6    54    1
    25     6    55    1
    26     7     8    1
    27     7    56    1
    28     7    57    1
    29     8     9    1
    30     8    58    1
    31     8    59    1
    32     9    10    1
    33     9    60    1
    34     9    61    1
    35    10    11    1
    36    10    19    1
    37    11    12    1
    38    11    62    1
    39    11    63    1
    40    12    13    1
    41    12    64    1
    42    12    65    1
    43    13    14    1
    44    13    66    1
    45    13    67    1
    46    14    15    1
    47    14    68    1
    48    14    69    1
    49    15    16    1
    50    15    70    1
    51    15    71    1
    52    16    17    1
    53    16    72    1
    54    16    73    1
    55    17    18    1
    56    17    74    1
    57    17    75    1
    58    18    76    1
    59    18    77    1
    60    18    78    1
    61    19    20    2
    62    19    21    1
    63    21    22    1
    64    21    23    1
    65    21    79    1
    66    22    80    1
    67    22    81    1
    68    22    82    1
    69    23    24    1
    70    24    25    1
    71    24    26    1
    72    24    83    1
    73    25    84    1
    74    25    85    1
    75    25    86    1
    76    26    27    2
    77    26    28    1
    78    28    29    1
    79    28    37    1
    80    29    30    1
    81    29    87    1
    82    29    88    1
    83    30    31    1
    84    30    89    1
    85    30    90    1
    86    31    32    1
    87    31    91    1
    88    31    92    1
    89    32    33    1
    90    32    93    1
    91    32    94    1
    92    33    34    1
    93    33    95    1
    94    33    96    1
    95    34    35    1
    96    34    97    1
    97    34    98    1
    98    35    36    1
    99    35    99    1
   100    35   100    1
   101    36   101    1
   102    36   102    1
   103    36   103    1
   104    37    38    1
   105    37   104    1
   106    37   105    1
   107    38    39    1
   108    38   106    1
   109    38   107    1
   110    39    40    1
   111    39   108    1
   112    39   109    1
   113    40    41    1
   114    40   110    1
   115    40   111    1
   116    41    42    1
   117    41   112    1
   118    41   113    1
   119    42    43    1
   120    42   114    1
   121    42   115    1
   122    43    44    1
   123    43   116    1
   124    43   117    1
   125    44   118    1
   126    44   119    1
   127    44   120    1
   128   121   122    1
   129   121   164    1
   130   121   165    1
   131   121   166    1
   132   122   123    1
   133   122   167    1
   134   122   168    1
   135   123   124    1
   136   123   169    1
   137   123   170    1
   138   124   125    1
   139   124   171    1
   140   124   172    1
   141   125   126    1
   142   125   173    1
   143   125   174    1
   144   126   127    1
   145   126   175    1
   146   126   176    1
   147   127   128    1
   148   127   177    1
   149   127   178    1
   150   128   129    1
   151   128   179    1
   152   128   180    1
   153   129   130    1
   154   129   138    1
   155   130   131    1
   156   130   181    1
   157   130   182    1
   158   131   132    1
   159   131   183    1
   160   131   184    1
   161   132   133    1
   162   132   185    1
   163   132   186    1
   164   133   134    1
   165   133   187    1
   166   133   188    1
   167   134   135    1
   168   134   189    1
   169   134   190    1
   170   135   136    1
   171   135   191    1
   172   135   192    1
   173   136   137    1
   174   136   193    1
   175   136   194    1
   176   137   195    1
   177   137   196    1
   178   137   197    1
   179   138   139    2
   180   138   140    1
   181   140   141    1
   182   140   142    1
   183   140   198    1
   184   141   199    1
   185   141   200    1
   186   141   201    1
   187   142   143    1
   188   143   144    1
   189   143   145    1
   190   143   202    1
   191   144   203    1
   192   144   204    1
   193   144   205    1
   194   145   146    2
   195   145   147    1
   196   147   148    1
   197   147   156    1
   198   148   149    1
   199   148   206    1
   200   148   207    1
   201   149   150    1
   202   149   208    1
   203   149   209    1
   204   150   151    1
   205   150   210    1
   206   150   211    1
   207   151   152    1
   208   151   212    1
   209   151   213    1
   210   152   153    1
   211   152   214    1
   212   152   215    1
   213   153   154    1
   214   153   216    1
   215   153   217    1
   216   154   155    1
   217   154   218    1
   218   154   219    1
   219   155   220    1
   220   155   221    1
   221   155   222    1
   222   156   157    1
   223   156   223    1
   224   156   224    1
   225   157   158    1
   226   157   225    1
   227   157   226    1
   228   158   159    1
   229   158   227    1
   230   158   228    1
   231   159   160    1
   232   159   229    1
   233   159   230    1
   234   160   161    1
   235   160   231    1
   236   160   232    1
   237   161   162    1
   238   161   233    1
   239   161   234    1
   240   162   163    1
   241   162   235    1
   242   162   236    1
   243   163   237    1
   244   163   238    1
   245   163   239    1
   246   240   241    1
   247   240   283    1
   248   240   284    1
   249   240   285    1
   250   241   242    1
   251   241   286    1
   252   241   287    1
   253   242   243    1
   254   242   288    1
   255   242   289    1
   256   243   244    1
   257   243   290    1
   258   243   291    1
   259   244   245    1
   260   244   292    1
   261   244   293    1
   262   245   246    1
   263   245   294    1
   264   245   295    1
   265   246   247    1
   266   246   296    1
   267   246   297    1
   268   247   248    1
   269   247   298    1
   270   247   299    1
   271   248   249    1
   272   248   257    1
   273   249   250    1
   274   249   300    1
   275   249   301    1
   276   250   251    1
   277   250   302    1
   278   250   303    1
   279   251   252    1
   280   251   304    1
   281   251   305    1
   282   252   253    1
   283   252   306    1
   284   252   307    1
   285   253   254    1
   286   253   308    1
   287   253   309    1
   288   254   255    1
   289   254   310    1
   290   254   311    1
   291   255   256    1
   292   255   312    1
   293   255   313    1
   294   256   314    1
   295   256   315    1
   296   256   316    1
   297   257   258    2
   298   257   259    1
   299   259   260    1
   300   259   261    1
   301   259   317    1
   302   260   318    1
   303   260   319    1
   304   260   320    1
   305   261   262    1
   306   262   263    1
   307   262   264    1
   308   262   321    1
   309   263   322    1
   310   263   323    1
   311   263   324    1
   312   264   265    2
   313   264   266    1
   314   266   267    1
   315   266   275    1
   316   267   268    1
   317   267   325    1
   318   267   326    1
   319   268   269    1
   320   268   327    1
   321   268   328    1
   322   269   270    1
   323   269   329    1
   324   269   330    1
   325   270   271    1
   326   270   331    1
   327   270   332    1
   328   271   272    1
   329   271   333    1
   330   271   334    1
   331   272   273    1
   332   272   335    1
   333   272   336    1
   334   273   274    1
   335   273   337    1
   336   273   338    1
   337   274   339    1
   338   274   340    1
   339   274   341    1
   340   275   276    1
   341   275   342    1
   342   275   343    1
   343   276   277    1
   344   276   344    1
   345   276   345    1
   346   277   278    1
   347   277   346    1
   348   277   347    1
   349   278   279    1
   350   278   348    1
   351   278   349    1
   352   279   280    1
   353   279   350    1
   354   279   351    1
   355   280   281    1
   356   280   352    1
   357   280   353    1
   358   281   282    1
   359   281   354    1
   360   281   355    1
   361   282   356    1
   362   282   357    1
   363   282   358    1
@<TRIPOS>SUBSTRUCTURE
     1 RES1      358 GROUP             0 ****  ****    0  
