@<TRIPOS>MOLECULE
tricapped_trigonal_prismatic_0_nunpairedes_0_charge_3 Charge: 3 Unpaired_Electrons: 0 XTB_Unpaired_Electrons: 0 XTB_Charge: 3
   412   417     1     0     0
SMALL
NoCharges
****
Generated from Architector

@<TRIPOS>ATOM
     1 La1       0.4792    0.0591    0.8633   La        1 RES1   0.0000
     2 C1       -7.2067    6.8489    4.7588   C.3       1 RES1   0.0000
     3 C2       -7.0799    5.3929    5.1865   C.3       1 RES1   0.0000
     4 C3       -8.0417    4.4459    4.4708   C.3       1 RES1   0.0000
     5 C4       -7.8193    4.3646    2.9603   C.3       1 RES1   0.0000
     6 C5       -8.7499    3.3517    2.2812   C.3       1 RES1   0.0000
     7 C6       -8.9453    3.5867    0.7678   C.3       1 RES1   0.0000
     8 C7       -8.2757    2.5976   -0.1955   C.3       1 RES1   0.0000
     9 C8       -6.7510    2.7245   -0.3340   C.3       1 RES1   0.0000
    10 C9       -6.2719    2.1001   -1.6550   C.3       1 RES1   0.0000
    11 C10      -4.7786    1.7343   -1.7409   C.3       1 RES1   0.0000
    12 C11      -3.7952    2.9131   -1.8003   C.3       1 RES1   0.0000
    13 C12      -2.3733    2.4597   -2.2054   C.3       1 RES1   0.0000
    14 N1       -1.3215    3.2897   -1.6102   N.am      1 RES1   0.0000
    15 C13      -1.2505    4.6669   -2.0776   C.3       1 RES1   0.0000
    16 C14       0.0853    5.0654   -2.7437   C.3       1 RES1   0.0000
    17 C15      -0.0525    5.6101   -4.1749   C.3       1 RES1   0.0000
    18 C16      -0.1287    4.4912   -5.2126   C.3       1 RES1   0.0000
    19 C17       0.0156    4.9795   -6.6578   C.3       1 RES1   0.0000
    20 C18       0.4457    3.8659   -7.6197   C.3       1 RES1   0.0000
    21 C19       1.8645    3.3454   -7.3334   C.3       1 RES1   0.0000
    22 C20       1.8852    1.9667   -6.6796   C.3       1 RES1   0.0000
    23 C21      -0.4565    2.7203   -0.7714   C.2       1 RES1   0.0000
    24 O1       -0.4099    1.4847   -0.6592   O.2       1 RES1   0.0000
    25 C22       0.4481    3.5963    0.1073   C.3       1 RES1   0.0000
    26 O2        1.1135    2.7734    1.0670   O.3       1 RES1   0.0000
    27 C23       2.2459    3.3651    1.7224   C.3       1 RES1   0.0000
    28 C24       3.3951    2.3532    1.7487   C.2       1 RES1   0.0000
    29 O3        3.2654    1.3479    1.0359   O.2       1 RES1   0.0000
    30 N2        4.5277    2.5896    2.4411   N.am      1 RES1   0.0000
    31 C25       5.7891    2.1416    1.8097   C.3       1 RES1   0.0000
    32 C26       6.5827    1.0226    2.4902   C.3       1 RES1   0.0000
    33 C27       8.0433    0.8888    2.0207   C.3       1 RES1   0.0000
    34 C28       8.2564    0.5759    0.5386   C.3       1 RES1   0.0000
    35 C29       7.8779   -0.8518    0.1355   C.3       1 RES1   0.0000
    36 C30       8.8210   -1.9625    0.6273   C.3       1 RES1   0.0000
    37 C31       8.0845   -3.1561    1.2417   C.3       1 RES1   0.0000
    38 C32       7.2124   -3.9032    0.2395   C.3       1 RES1   0.0000
    39 C33       4.6361    3.5095    3.5864   C.3       1 RES1   0.0000
    40 C34       3.9283    3.2033    4.9568   C.3       1 RES1   0.0000
    41 C35       4.3621    1.8448    5.5873   C.3       1 RES1   0.0000
    42 C36       3.5897    0.8384    6.5440   C.3       1 RES1   0.0000
    43 C37       2.5183   -0.4067    6.5046   C.3       1 RES1   0.0000
    44 C38       1.9622   -1.5546    5.5057   C.3       1 RES1   0.0000
    45 C39       0.9669   -1.6208    4.2536   C.3       1 RES1   0.0000
    46 C40      -0.3318   -2.4061    4.5027   C.3       1 RES1   0.0000
    47 C41      -1.5526   -2.2240    3.5816   C.3       1 RES1   0.0000
    48 C42      -2.7380   -3.0226    4.1676   C.3       1 RES1   0.0000
    49 C43      -4.1653   -2.7606    3.6519   C.3       1 RES1   0.0000
    50 C44      -5.0149   -1.9830    4.6549   C.3       1 RES1   0.0000
    51 H1       -6.5497    7.4757    5.3595   H         1 RES1   0.0000
    52 H2       -6.9314    6.9864    3.7155   H         1 RES1   0.0000
    53 H3       -8.2255    7.1990    4.8961   H         1 RES1   0.0000
    54 H4       -6.0497    5.0736    5.0153   H         1 RES1   0.0000
    55 H5       -7.2650    5.3292    6.2594   H         1 RES1   0.0000
    56 H6       -7.9450    3.4484    4.9049   H         1 RES1   0.0000
    57 H7       -9.0600    4.7825    4.6570   H         1 RES1   0.0000
    58 H8       -8.0068    5.3477    2.5284   H         1 RES1   0.0000
    59 H9       -6.7783    4.1008    2.7584   H         1 RES1   0.0000
    60 H10      -8.3923    2.3345    2.4618   H         1 RES1   0.0000
    61 H11      -9.7265    3.4329    2.7617   H         1 RES1   0.0000
    62 H12     -10.0161    3.5436    0.5568   H         1 RES1   0.0000
    63 H13      -8.6187    4.5967    0.5145   H         1 RES1   0.0000
    64 H14      -8.5288    1.5774    0.1021   H         1 RES1   0.0000
    65 H15      -8.7194    2.7663   -1.1796   H         1 RES1   0.0000
    66 H16      -6.4787    3.7825   -0.2981   H         1 RES1   0.0000
    67 H17      -6.2752    2.2129    0.5083   H         1 RES1   0.0000
    68 H18      -6.8380    1.1742   -1.8069   H         1 RES1   0.0000
    69 H19      -6.5233    2.7744   -2.4764   H         1 RES1   0.0000
    70 H20      -4.5303    1.1015   -0.8825   H         1 RES1   0.0000
    71 H21      -4.6463    1.1369   -2.6471   H         1 RES1   0.0000
    72 H22      -4.1767    3.6409   -2.5175   H         1 RES1   0.0000
    73 H23      -3.7655    3.4017   -0.8272   H         1 RES1   0.0000
    74 H24      -2.1979    1.4334   -1.8754   H         1 RES1   0.0000
    75 H25      -2.2758    2.4954   -3.2920   H         1 RES1   0.0000
    76 H26      -2.0569    4.7808   -2.8004   H         1 RES1   0.0000
    77 H27      -1.4513    5.3437   -1.2465   H         1 RES1   0.0000
    78 H28       0.5705    5.8362   -2.1438   H         1 RES1   0.0000
    79 H29       0.7460    4.1967   -2.7861   H         1 RES1   0.0000
    80 H30      -0.9186    6.2676   -4.2542   H         1 RES1   0.0000
    81 H31       0.8322    6.2137   -4.3903   H         1 RES1   0.0000
    82 H32       0.6863    3.7982   -5.0000   H         1 RES1   0.0000
    83 H33      -1.0698    3.9438   -5.1135   H         1 RES1   0.0000
    84 H34      -0.9313    5.4024   -6.9977   H         1 RES1   0.0000
    85 H35       0.7587    5.7790   -6.7042   H         1 RES1   0.0000
    86 H36      -0.2689    3.0410   -7.5711   H         1 RES1   0.0000
    87 H37       0.4050    4.2695   -8.6334   H         1 RES1   0.0000
    88 H38       2.4197    3.2826   -8.2692   H         1 RES1   0.0000
    89 H39       2.3887    4.0594   -6.6935   H         1 RES1   0.0000
    90 H40       1.4069    1.2377   -7.3311   H         1 RES1   0.0000
    91 H41       2.9118    1.6494   -6.5067   H         1 RES1   0.0000
    92 H42       1.3634    1.9669   -5.7226   H         1 RES1   0.0000
    93 H43       1.1841    4.1225   -0.5076   H         1 RES1   0.0000
    94 H44      -0.1947    4.3305    0.6137   H         1 RES1   0.0000
    95 H45       2.6235    4.2149    1.1413   H         1 RES1   0.0000
    96 H46       1.9615    3.7110    2.7199   H         1 RES1   0.0000
    97 H47       5.5256    1.8104    0.8035   H         1 RES1   0.0000
    98 H48       6.4272    3.0287    1.7380   H         1 RES1   0.0000
    99 H49       6.6276    1.2377    3.5604   H         1 RES1   0.0000
   100 H50       6.0740    0.0718    2.3184   H         1 RES1   0.0000
   101 H51       8.5713    1.8092    2.2695   H         1 RES1   0.0000
   102 H52       8.4997    0.0917    2.6142   H         1 RES1   0.0000
   103 H53       7.6728    1.2815   -0.0586   H         1 RES1   0.0000
   104 H54       9.3056    0.7465    0.2942   H         1 RES1   0.0000
   105 H55       7.8494   -0.8814   -0.9537   H         1 RES1   0.0000
   106 H56       6.8696   -1.0541    0.5049   H         1 RES1   0.0000
   107 H57       9.4138   -2.3279   -0.2115   H         1 RES1   0.0000
   108 H58       9.5168   -1.5654    1.3671   H         1 RES1   0.0000
   109 H59       8.8184   -3.8543    1.6471   H         1 RES1   0.0000
   110 H60       7.4797   -2.8046    2.0807   H         1 RES1   0.0000
   111 H61       7.8316   -4.4214   -0.4865   H         1 RES1   0.0000
   112 H62       6.5943   -4.6421    0.7444   H         1 RES1   0.0000
   113 H63       6.5579   -3.2200   -0.2971   H         1 RES1   0.0000
   114 H64       5.7056    3.5845    3.7832   H         1 RES1   0.0000
   115 H65       4.2898    4.4964    3.2700   H         1 RES1   0.0000
   116 H66       4.2883    4.0078    5.6041   H         1 RES1   0.0000
   117 H67       2.8564    3.3687    4.8955   H         1 RES1   0.0000
   118 H68       4.7922    1.2843    4.7808   H         1 RES1   0.0000
   119 H69       5.1878    2.1196    6.2428   H         1 RES1   0.0000
   120 H70       4.4513    0.3409    6.9901   H         1 RES1   0.0000
   121 H71       3.1823    1.4460    7.3522   H         1 RES1   0.0000
   122 H72       2.9957   -1.0749    7.2299   H         1 RES1   0.0000
   123 H73       1.6648   -0.0041    7.0449   H         1 RES1   0.0000
   124 H74       2.8261   -2.1239    5.2020   H         1 RES1   0.0000
   125 H75       1.4678   -2.2166    6.2086   H         1 RES1   0.0000
   126 H76       0.7011   -0.7016    3.7339   H         1 RES1   0.0000
   127 H77       1.5014   -2.2031    3.5073   H         1 RES1   0.0000
   128 H78      -0.0850   -3.4367    4.4091   H         1 RES1   0.0000
   129 H79      -0.6566   -2.2613    5.5139   H         1 RES1   0.0000
   130 H80      -1.7789   -1.1731    3.4237   H         1 RES1   0.0000
   131 H81      -1.3347   -2.6214    2.5990   H         1 RES1   0.0000
   132 H82      -2.5177   -4.0718    3.9871   H         1 RES1   0.0000
   133 H83      -2.7601   -2.8948    5.2483   H         1 RES1   0.0000
   134 H84      -4.1568   -2.2530    2.6888   H         1 RES1   0.0000
   135 H85      -4.6779   -3.7081    3.4795   H         1 RES1   0.0000
   136 H86      -4.4937   -1.0968    5.0080   H         1 RES1   0.0000
   137 H87      -5.9648   -1.6741    4.2213   H         1 RES1   0.0000
   138 H88      -5.2269   -2.6163    5.5152   H         1 RES1   0.0000
   139 C45      -1.8189   -9.6620    3.9144   C.3       1 RES1   0.0000
   140 C46      -0.8176   -8.7515    4.6191   C.3       1 RES1   0.0000
   141 C47       0.6436   -9.0710    4.2905   C.3       1 RES1   0.0000
   142 C48       0.9813   -8.8542    2.8065   C.3       1 RES1   0.0000
   143 C49       1.3239  -10.1470    2.0698   C.3       1 RES1   0.0000
   144 C50       1.1245  -10.0524    0.5573   C.3       1 RES1   0.0000
   145 C51       2.0461   -9.0961   -0.2106   C.3       1 RES1   0.0000
   146 C52       1.5995   -7.6211   -0.2716   C.3       1 RES1   0.0000
   147 C53       1.8653   -7.0411   -1.6692   C.3       1 RES1   0.0000
   148 C54       1.6520   -5.5270   -1.8240   C.3       1 RES1   0.0000
   149 C55       0.1867   -5.1125   -2.0209   C.3       1 RES1   0.0000
   150 C56       0.0262   -3.5902   -1.8974   C.3       1 RES1   0.0000
   151 N3       -1.3408   -3.1458   -1.5929   N.am      1 RES1   0.0000
   152 C57      -2.3713   -3.7775   -2.4095   C.3       1 RES1   0.0000
   153 C58      -3.6223   -2.9421   -2.6749   C.3       1 RES1   0.0000
   154 C59      -4.0468   -3.0097   -4.1453   C.3       1 RES1   0.0000
   155 C60      -3.2926   -1.9462   -4.9422   C.3       1 RES1   0.0000
   156 C61      -3.5506   -2.0011   -6.4469   C.3       1 RES1   0.0000
   157 C62      -2.5961   -1.1394   -7.2843   C.3       1 RES1   0.0000
   158 C63      -2.6384    0.3662   -6.9998   C.3       1 RES1   0.0000
   159 C64      -1.7615    0.8217   -5.8350   C.3       1 RES1   0.0000
   160 C65      -1.4110   -2.0400   -0.8445   C.2       1 RES1   0.0000
   161 O4       -0.3896   -1.3498   -0.6812   O.2       1 RES1   0.0000
   162 C66      -2.6617   -1.6219   -0.0471   C.3       1 RES1   0.0000
   163 O5       -2.2334   -0.6576    0.9188   O.3       1 RES1   0.0000
   164 C67      -3.2889   -0.0036    1.6233   C.3       1 RES1   0.0000
   165 C68      -2.8108    1.3906    2.0276   C.2       1 RES1   0.0000
   166 O6       -1.6958    1.7515    1.6284   O.2       1 RES1   0.0000
   167 N4       -3.6869    2.2400    2.6444   N.am      1 RES1   0.0000
   168 C69      -3.9030    3.5190    1.9580   C.3       1 RES1   0.0000
   169 C70      -3.7991    4.8020    2.7612   C.3       1 RES1   0.0000
   170 C71      -4.3203    6.0102    1.9786   C.3       1 RES1   0.0000
   171 C72      -3.5451    6.3730    0.7104   C.3       1 RES1   0.0000
   172 C73      -2.0973    6.7869    0.9692   C.3       1 RES1   0.0000
   173 C74      -1.9882    8.2172    1.4886   C.3       1 RES1   0.0000
   174 C75      -0.5578    8.5700    1.8948   C.3       1 RES1   0.0000
   175 C76       0.4456    8.4429    0.7497   C.3       1 RES1   0.0000
   176 C77      -4.5700    1.8955    3.7669   C.3       1 RES1   0.0000
   177 C78      -4.4613    2.4410    5.2953   C.3       1 RES1   0.0000
   178 C79      -3.3875    3.0303    6.3407   C.3       1 RES1   0.0000
   179 C80      -2.0931    2.4381    7.0784   C.3       1 RES1   0.0000
   180 C81      -0.4403    2.3436    6.9466   C.3       1 RES1   0.0000
   181 C82       0.7997    2.3160    5.9039   C.3       1 RES1   0.0000
   182 C83       1.0581    1.1937    4.8346   C.3       1 RES1   0.0000
   183 C84       2.2901    0.9833    3.8156   C.3       1 RES1   0.0000
   184 C85       3.3773   -0.1885    3.5196   C.3       1 RES1   0.0000
   185 C86       4.5477   -0.8204    4.3399   C.3       1 RES1   0.0000
   186 C87       5.0029   -2.1877    3.8131   C.3       1 RES1   0.0000
   187 C88       5.9398   -2.8652    4.8086   C.3       1 RES1   0.0000
   188 H89      -2.8353   -9.3748    4.1803   H         1 RES1   0.0000
   189 H90      -1.7250   -9.6062    2.8311   H         1 RES1   0.0000
   190 H91      -1.6685  -10.6953    4.2165   H         1 RES1   0.0000
   191 H92      -1.0295   -7.7127    4.3492   H         1 RES1   0.0000
   192 H93      -0.9637   -8.8483    5.6972   H         1 RES1   0.0000
   193 H94       1.2856   -8.4478    4.9199   H         1 RES1   0.0000
   194 H95       0.8433  -10.1057    4.5680   H         1 RES1   0.0000
   195 H96       0.1157   -8.4102    2.3118   H         1 RES1   0.0000
   196 H97       1.8152   -8.1556    2.7032   H         1 RES1   0.0000
   197 H98       2.3483  -10.4431    2.3010   H         1 RES1   0.0000
   198 H99       0.6685  -10.9406    2.4332   H         1 RES1   0.0000
   199 H100      1.2784  -11.0524    0.1511   H         1 RES1   0.0000
   200 H101      0.0842   -9.7850    0.3604   H         1 RES1   0.0000
   201 H102      3.0528   -9.1573    0.2027   H         1 RES1   0.0000
   202 H103      2.1006   -9.4657   -1.2360   H         1 RES1   0.0000
   203 H104      0.5367   -7.5475   -0.0372   H         1 RES1   0.0000
   204 H105      2.1401   -7.0298    0.4729   H         1 RES1   0.0000
   205 H106      2.9067   -7.2553   -1.9201   H         1 RES1   0.0000
   206 H107      1.2358   -7.5633   -2.3919   H         1 RES1   0.0000
   207 H108      2.0568   -5.0289   -0.9394   H         1 RES1   0.0000
   208 H109      2.2258   -5.1785   -2.6868   H         1 RES1   0.0000
   209 H110     -0.1344   -5.4680   -3.0022   H         1 RES1   0.0000
   210 H111     -0.4294   -5.6157   -1.2748   H         1 RES1   0.0000
   211 H112      0.6369   -3.2370   -1.0633   H         1 RES1   0.0000
   212 H113      0.3773   -3.0999   -2.8106   H         1 RES1   0.0000
   213 H114     -1.8921   -3.9702   -3.3707   H         1 RES1   0.0000
   214 H115     -2.6454   -4.7476   -1.9914   H         1 RES1   0.0000
   215 H116     -4.4321   -3.2616   -2.0193   H         1 RES1   0.0000
   216 H117     -3.4010   -1.8964   -2.4704   H         1 RES1   0.0000
   217 H118     -3.8453   -3.9992   -4.5469   H         1 RES1   0.0000
   218 H119     -5.1169   -2.8340   -4.2327   H         1 RES1   0.0000
   219 H120     -3.5977   -0.9662   -4.5688   H         1 RES1   0.0000
   220 H121     -2.2188   -2.0536   -4.7687   H         1 RES1   0.0000
   221 H122     -3.4458   -3.0346   -6.7849   H         1 RES1   0.0000
   222 H123     -4.5783   -1.6933   -6.6519   H         1 RES1   0.0000
   223 H124     -1.5710   -1.5000   -7.1598   H         1 RES1   0.0000
   224 H125     -2.8642   -1.2954   -8.3329   H         1 RES1   0.0000
   225 H126     -2.2940    0.8837   -7.8969   H         1 RES1   0.0000
   226 H127     -3.6717    0.6719   -6.8248   H         1 RES1   0.0000
   227 H128     -0.7668    0.3862   -5.9082   H         1 RES1   0.0000
   228 H129     -1.6559    1.9043   -5.8591   H         1 RES1   0.0000
   229 H130     -2.1834    0.5437   -4.8724   H         1 RES1   0.0000
   230 H131     -3.4386   -1.1760   -0.6806   H         1 RES1   0.0000
   231 H132     -3.0850   -2.5051    0.4482   H         1 RES1   0.0000
   232 H133     -4.1530    0.1547    0.9619   H         1 RES1   0.0000
   233 H134     -3.6076   -0.5992    2.4790   H         1 RES1   0.0000
   234 H135     -3.1749    3.5475    1.1498   H         1 RES1   0.0000
   235 H136     -4.9127    3.4642    1.5338   H         1 RES1   0.0000
   236 H137     -4.3921    4.7165    3.6686   H         1 RES1   0.0000
   237 H138     -2.7663    4.9727    3.0375   H         1 RES1   0.0000
   238 H139     -5.3598    5.8275    1.7054   H         1 RES1   0.0000
   239 H140     -4.3093    6.8661    2.6536   H         1 RES1   0.0000
   240 H141     -3.5801    5.5455   -0.0031   H         1 RES1   0.0000
   241 H142     -4.0586    7.2136    0.2403   H         1 RES1   0.0000
   242 H143     -1.6284    6.1038    1.6822   H         1 RES1   0.0000
   243 H144     -1.5283    6.7304    0.0395   H         1 RES1   0.0000
   244 H145     -2.3311    8.9066    0.7133   H         1 RES1   0.0000
   245 H146     -2.6383    8.3413    2.3560   H         1 RES1   0.0000
   246 H147     -0.5435    9.5957    2.2682   H         1 RES1   0.0000
   247 H148     -0.2569    7.9134    2.7144   H         1 RES1   0.0000
   248 H149      0.1019    8.9988   -0.1214   H         1 RES1   0.0000
   249 H150      1.4067    8.8492    1.0578   H         1 RES1   0.0000
   250 H151      0.5918    7.3984    0.4659   H         1 RES1   0.0000
   251 H152     -5.5742    2.2301    3.4877   H         1 RES1   0.0000
   252 H153     -4.5969    0.8079    3.8048   H         1 RES1   0.0000
   253 H154     -5.1773    3.2648    5.3152   H         1 RES1   0.0000
   254 H155     -4.9652    1.6218    5.8183   H         1 RES1   0.0000
   255 H156     -3.2236    4.0614    6.0642   H         1 RES1   0.0000
   256 H157     -4.0581    3.0942    7.2042   H         1 RES1   0.0000
   257 H158     -2.1265    3.0409    7.9884   H         1 RES1   0.0000
   258 H159     -2.4146    1.4542    7.3949   H         1 RES1   0.0000
   259 H160     -0.1296    3.2159    7.5310   H         1 RES1   0.0000
   260 H161     -0.2476    1.5043    7.6110   H         1 RES1   0.0000
   261 H162      0.8745    3.2947    5.4599   H         1 RES1   0.0000
   262 H163      1.6104    2.2602    6.6269   H         1 RES1   0.0000
   263 H164      0.9949    0.3121    5.4098   H         1 RES1   0.0000
   264 H165      0.2190    1.2220    4.1596   H         1 RES1   0.0000
   265 H166      2.8494    1.8927    3.8067   H         1 RES1   0.0000
   266 H167      1.7609    0.9270    2.8249   H         1 RES1   0.0000
   267 H168      2.8343   -1.0308    3.1119   H         1 RES1   0.0000
   268 H169      3.9000    0.2263    2.6588   H         1 RES1   0.0000
   269 H170      5.4541   -0.2285    4.2926   H         1 RES1   0.0000
   270 H171      4.3419   -0.9417    5.3879   H         1 RES1   0.0000
   271 H172      4.1550   -2.8569    3.6790   H         1 RES1   0.0000
   272 H173      5.5076   -2.0875    2.8471   H         1 RES1   0.0000
   273 H174      6.7279   -2.1901    5.1260   H         1 RES1   0.0000
   274 H175      6.3981   -3.7497    4.3740   H         1 RES1   0.0000
   275 H176      5.3812   -3.1723    5.6889   H         1 RES1   0.0000
   276 C89      10.6770    3.3083    3.2056   C.3       1 RES1   0.0000
   277 C90       9.7290    3.9003    4.2433   C.3       1 RES1   0.0000
   278 C91       9.1709    5.2712    3.8451   C.3       1 RES1   0.0000
   279 C92       8.0534    5.1690    2.7899   C.3       1 RES1   0.0000
   280 C93       8.3694    5.8454    1.4535   C.3       1 RES1   0.0000
   281 C94       7.3840    5.4700    0.3367   C.3       1 RES1   0.0000
   282 C95       5.9836    6.0747    0.5065   C.3       1 RES1   0.0000
   283 C96       4.8522    5.2395   -0.1104   C.3       1 RES1   0.0000
   284 C97       4.9150    5.1132   -1.6348   C.3       1 RES1   0.0000
   285 C98       3.9364    4.0926   -2.2455   C.3       1 RES1   0.0000
   286 C99       4.1063    2.6822   -1.6623   C.3       1 RES1   0.0000
   287 C100      3.5559    1.5217   -2.5080   C.3       1 RES1   0.0000
   288 N5        3.9137    0.2340   -1.8932   N.am      1 RES1   0.0000
   289 C101      5.2686   -0.2372   -2.1384   C.3       1 RES1   0.0000
   290 C102      5.4360   -1.3407   -3.1880   C.3       1 RES1   0.0000
   291 C103      5.2541   -0.9069   -4.6467   C.3       1 RES1   0.0000
   292 C104      3.8941   -1.2959   -5.2286   C.3       1 RES1   0.0000
   293 C105      3.9506   -1.4302   -6.7506   C.3       1 RES1   0.0000
   294 C106      2.6191   -1.7824   -7.4208   C.3       1 RES1   0.0000
   295 C107      1.9734   -3.0834   -6.9252   C.3       1 RES1   0.0000
   296 C108      0.9551   -2.8679   -5.8092   C.3       1 RES1   0.0000
   297 C109      3.0603   -0.3417   -1.0530   C.2       1 RES1   0.0000
   298 O7        1.9201    0.1222   -0.8835   O.2       1 RES1   0.0000
   299 C110      3.4506   -1.6323   -0.2921   C.3       1 RES1   0.0000
   300 O8        2.4984   -1.8636    0.7465   O.3       1 RES1   0.0000
   301 C111      2.5793   -3.1478    1.3882   C.3       1 RES1   0.0000
   302 C112      1.1762   -3.4650    1.9637   C.2       1 RES1   0.0000
   303 O9        0.2647   -2.8674    1.3691   O.2       1 RES1   0.0000
   304 N6        0.9540   -4.4210    2.8986   N.am      1 RES1   0.0000
   305 C113     -0.2301   -5.2897    2.8405   C.3       1 RES1   0.0000
   306 C114     -1.1336   -5.2054    1.6209   C.3       1 RES1   0.0000
   307 C115     -2.0793   -6.4087    1.6219   C.3       1 RES1   0.0000
   308 C116     -3.1530   -6.3146    0.5373   C.3       1 RES1   0.0000
   309 C117     -4.2877   -5.3365    0.8758   C.3       1 RES1   0.0000
   310 C118     -5.5367   -6.0462    1.4038   C.3       1 RES1   0.0000
   311 C119     -6.7444   -5.1229    1.5961   C.3       1 RES1   0.0000
   312 C120     -7.3053   -4.5537    0.2965   C.3       1 RES1   0.0000
   313 C121      1.7543   -4.6766    4.1204   C.3       1 RES1   0.0000
   314 C122      1.1020   -4.9768    5.5626   C.3       1 RES1   0.0000
   315 C123     -0.2425   -4.5618    6.3126   C.3       1 RES1   0.0000
   316 C124     -0.4911   -3.4752    7.4588   C.3       1 RES1   0.0000
   317 C125     -0.5495   -1.8813    7.6543   C.3       1 RES1   0.0000
   318 C126     -1.5565   -0.7148    7.2399   C.3       1 RES1   0.0000
   319 C127     -1.4331   -0.1288    5.7860   C.3       1 RES1   0.0000
   320 C128     -1.8802    1.1814    4.9442   C.3       1 RES1   0.0000
   321 C129     -1.4884    2.6881    4.4149   C.3       1 RES1   0.0000
   322 C130     -1.1981    4.1304    4.9593   C.3       1 RES1   0.0000
   323 C131     -0.1884    4.9346    4.1369   C.3       1 RES1   0.0000
   324 C132      0.1869    6.2187    4.8745   C.3       1 RES1   0.0000
   325 H177     10.9415    2.2870    3.4730   H         1 RES1   0.0000
   326 H178     10.2326    3.3021    2.2116   H         1 RES1   0.0000
   327 H179     11.5936    3.8891    3.1580   H         1 RES1   0.0000
   328 H180      8.8950    3.2119    4.4164   H         1 RES1   0.0000
   329 H181     10.2670    3.9928    5.1878   H         1 RES1   0.0000
   330 H182      8.7858    5.7597    4.7426   H         1 RES1   0.0000
   331 H183      9.9864    5.8888    3.4714   H         1 RES1   0.0000
   332 H184      7.8706    4.1091    2.5942   H         1 RES1   0.0000
   333 H185      7.1319    5.5950    3.1951   H         1 RES1   0.0000
   334 H186      8.3836    6.9281    1.5850   H         1 RES1   0.0000
   335 H187      9.3682    5.5412    1.1364   H         1 RES1   0.0000
   336 H188      7.8027    5.8033   -0.6131   H         1 RES1   0.0000
   337 H189      7.3113    4.3791    0.2908   H         1 RES1   0.0000
   338 H190      5.7658    6.1745    1.5720   H         1 RES1   0.0000
   339 H191      5.9682    7.0768    0.0785   H         1 RES1   0.0000
   340 H192      4.8877    4.2453    0.3382   H         1 RES1   0.0000
   341 H193      3.9002    5.7069    0.1667   H         1 RES1   0.0000
   342 H194      4.7086    6.0922   -2.0705   H         1 RES1   0.0000
   343 H195      5.9276    4.8340   -1.9226   H         1 RES1   0.0000
   344 H196      2.9110    4.4417   -2.1030   H         1 RES1   0.0000
   345 H197      4.1194    4.0604   -3.3215   H         1 RES1   0.0000
   346 H198      5.1756    2.5167   -1.5082   H         1 RES1   0.0000
   347 H199      3.6136    2.6267   -0.6952   H         1 RES1   0.0000
   348 H200      2.4680    1.5776   -2.5751   H         1 RES1   0.0000
   349 H201      3.9742    1.5479   -3.5133   H         1 RES1   0.0000
   350 H202      5.8585    0.6263   -2.4485   H         1 RES1   0.0000
   351 H203      5.6760   -0.5869   -1.1914   H         1 RES1   0.0000
   352 H204      6.4536   -1.7061   -3.0583   H         1 RES1   0.0000
   353 H205      4.7692   -2.1742   -2.9726   H         1 RES1   0.0000
   354 H206      5.4135    0.1665   -4.7481   H         1 RES1   0.0000
   355 H207      6.0258   -1.3893   -5.2463   H         1 RES1   0.0000
   356 H208      3.6149   -2.2640   -4.8122   H         1 RES1   0.0000
   357 H209      3.1272   -0.5713   -4.9452   H         1 RES1   0.0000
   358 H210      4.3103   -0.4948   -7.1836   H         1 RES1   0.0000
   359 H211      4.6770   -2.2068   -7.0000   H         1 RES1   0.0000
   360 H212      1.9100   -0.9614   -7.2931   H         1 RES1   0.0000
   361 H213      2.8190   -1.8766   -8.4912   H         1 RES1   0.0000
   362 H214      1.4627   -3.5637   -7.7613   H         1 RES1   0.0000
   363 H215      2.7487   -3.7717   -6.5847   H         1 RES1   0.0000
   364 H216      0.2001   -2.1512   -6.1246   H         1 RES1   0.0000
   365 H217      0.4547   -3.8044   -5.5708   H         1 RES1   0.0000
   366 H218      1.4272   -2.4840   -4.9075   H         1 RES1   0.0000
   367 H219      3.4425   -2.4608   -1.0147   H         1 RES1   0.0000
   368 H220      4.4555   -1.5412    0.1406   H         1 RES1   0.0000
   369 H221      2.7644   -3.9388    0.6419   H         1 RES1   0.0000
   370 H222      3.3995   -3.1731    2.1086   H         1 RES1   0.0000
   371 H223      0.1778   -6.3060    2.9086   H         1 RES1   0.0000
   372 H224     -0.8361   -5.1272    3.7340   H         1 RES1   0.0000
   373 H225     -1.7277   -4.2943    1.6257   H         1 RES1   0.0000
   374 H226     -0.5362   -5.2018    0.7128   H         1 RES1   0.0000
   375 H227     -1.4886   -7.3124    1.4564   H         1 RES1   0.0000
   376 H228     -2.5609   -6.5093    2.5987   H         1 RES1   0.0000
   377 H229     -2.6698   -6.0168   -0.3958   H         1 RES1   0.0000
   378 H230     -3.5776   -7.3076    0.3809   H         1 RES1   0.0000
   379 H231     -3.9412   -4.6301    1.6312   H         1 RES1   0.0000
   380 H232     -4.5625   -4.7683   -0.0142   H         1 RES1   0.0000
   381 H233     -5.8163   -6.8391    0.7062   H         1 RES1   0.0000
   382 H234     -5.3014   -6.5179    2.3623   H         1 RES1   0.0000
   383 H235     -7.5297   -5.7052    2.0808   H         1 RES1   0.0000
   384 H236     -6.4825   -4.3003    2.2671   H         1 RES1   0.0000
   385 H237     -7.4305   -5.3422   -0.4408   H         1 RES1   0.0000
   386 H238     -8.2766   -4.1034    0.4825   H         1 RES1   0.0000
   387 H239     -6.6567   -3.7860   -0.1207   H         1 RES1   0.0000
   388 H240      2.3560   -5.5749    3.9377   H         1 RES1   0.0000
   389 H241      2.4491   -3.8486    4.2228   H         1 RES1   0.0000
   390 H242      1.0267   -6.0634    5.5485   H         1 RES1   0.0000
   391 H243      1.9250   -4.7479    6.2416   H         1 RES1   0.0000
   392 H244     -1.0916   -4.5610    5.6369   H         1 RES1   0.0000
   393 H245     -0.3838   -5.4587    6.9226   H         1 RES1   0.0000
   394 H246     -1.4376   -3.8379    7.8633   H         1 RES1   0.0000
   395 H247      0.2631   -3.7248    8.2076   H         1 RES1   0.0000
   396 H248     -0.6840   -1.8742    8.7415   H         1 RES1   0.0000
   397 H249      0.4472   -1.4858    7.4987   H         1 RES1   0.0000
   398 H250     -2.5798   -1.0490    7.4172   H         1 RES1   0.0000
   399 H251     -1.3257    0.0182    8.0138   H         1 RES1   0.0000
   400 H252     -0.4222   -0.3320    5.5263   H         1 RES1   0.0000
   401 H253     -2.0737   -0.8121    5.2507   H         1 RES1   0.0000
   402 H254     -1.8629    0.7208    3.9418   H         1 RES1   0.0000
   403 H255     -2.9143    1.2241    5.2081   H         1 RES1   0.0000
   404 H256     -0.7687    2.5473    3.6086   H         1 RES1   0.0000
   405 H257     -2.4227    2.8760    3.9219   H         1 RES1   0.0000
   406 H258     -2.1075    4.7211    4.8695   H         1 RES1   0.0000
   407 H259     -0.9142    4.1997    5.9945   H         1 RES1   0.0000
   408 H260      0.7227    4.3718    3.9354   H         1 RES1   0.0000
   409 H261     -0.6255    5.1995    3.1709   H         1 RES1   0.0000
   410 H262     -0.7036    6.7921    5.1186   H         1 RES1   0.0000
   411 H263      0.8460    6.8478    4.2764   H         1 RES1   0.0000
   412 H264      0.7100    5.9976    5.8042   H         1 RES1   0.0000
@<TRIPOS>BOND
     1     1    24    1
     2     1    26    1
     3     1    29    1
     4     1   161    1
     5     1   163    1
     6     1   166    1
     7     1   298    1
     8     1   300    1
     9     1   303    1
    10     2     3    1
    11     2    51    1
    12     2    52    1
    13     2    53    1
    14     3     4    1
    15     3    54    1
    16     3    55    1
    17     4     5    1
    18     4    56    1
    19     4    57    1
    20     5     6    1
    21     5    58    1
    22     5    59    1
    23     6     7    1
    24     6    60    1
    25     6    61    1
    26     7     8    1
    27     7    62    1
    28     7    63    1
    29     8     9    1
    30     8    64    1
    31     8    65    1
    32     9    10    1
    33     9    66    1
    34     9    67    1
    35    10    11    1
    36    10    68    1
    37    10    69    1
    38    11    12    1
    39    11    70    1
    40    11    71    1
    41    12    13    1
    42    12    72    1
    43    12    73    1
    44    13    14    1
    45    13    74    1
    46    13    75    1
    47    14    15    1
    48    14    23    1
    49    15    16    1
    50    15    76    1
    51    15    77    1
    52    16    17    1
    53    16    78    1
    54    16    79    1
    55    17    18    1
    56    17    80    1
    57    17    81    1
    58    18    19    1
    59    18    82    1
    60    18    83    1
    61    19    20    1
    62    19    84    1
    63    19    85    1
    64    20    21    1
    65    20    86    1
    66    20    87    1
    67    21    22    1
    68    21    88    1
    69    21    89    1
    70    22    90    1
    71    22    91    1
    72    22    92    1
    73    23    24    2
    74    23    25    1
    75    25    26    1
    76    25    93    1
    77    25    94    1
    78    26    27    1
    79    27    28    1
    80    27    95    1
    81    27    96    1
    82    28    29    2
    83    28    30    1
    84    30    31    1
    85    30    39    1
    86    31    32    1
    87    31    97    1
    88    31    98    1
    89    32    33    1
    90    32    99    1
    91    32   100    1
    92    33    34    1
    93    33   101    1
    94    33   102    1
    95    34    35    1
    96    34   103    1
    97    34   104    1
    98    35    36    1
    99    35   105    1
   100    35   106    1
   101    36    37    1
   102    36   107    1
   103    36   108    1
   104    37    38    1
   105    37   109    1
   106    37   110    1
   107    38   111    1
   108    38   112    1
   109    38   113    1
   110    39    40    1
   111    39   114    1
   112    39   115    1
   113    40    41    1
   114    40   116    1
   115    40   117    1
   116    41    42    1
   117    41   118    1
   118    41   119    1
   119    42    43    1
   120    42   120    1
   121    42   121    1
   122    43    44    1
   123    43   122    1
   124    43   123    1
   125    44    45    1
   126    44   124    1
   127    44   125    1
   128    45    46    1
   129    45   126    1
   130    45   127    1
   131    46    47    1
   132    46   128    1
   133    46   129    1
   134    47    48    1
   135    47   130    1
   136    47   131    1
   137    48    49    1
   138    48   132    1
   139    48   133    1
   140    49    50    1
   141    49   134    1
   142    49   135    1
   143    50   136    1
   144    50   137    1
   145    50   138    1
   146   139   140    1
   147   139   188    1
   148   139   189    1
   149   139   190    1
   150   140   141    1
   151   140   191    1
   152   140   192    1
   153   141   142    1
   154   141   193    1
   155   141   194    1
   156   142   143    1
   157   142   195    1
   158   142   196    1
   159   143   144    1
   160   143   197    1
   161   143   198    1
   162   144   145    1
   163   144   199    1
   164   144   200    1
   165   145   146    1
   166   145   201    1
   167   145   202    1
   168   146   147    1
   169   146   203    1
   170   146   204    1
   171   147   148    1
   172   147   205    1
   173   147   206    1
   174   148   149    1
   175   148   207    1
   176   148   208    1
   177   149   150    1
   178   149   209    1
   179   149   210    1
   180   150   151    1
   181   150   211    1
   182   150   212    1
   183   151   152    1
   184   151   160    1
   185   152   153    1
   186   152   213    1
   187   152   214    1
   188   153   154    1
   189   153   215    1
   190   153   216    1
   191   154   155    1
   192   154   217    1
   193   154   218    1
   194   155   156    1
   195   155   219    1
   196   155   220    1
   197   156   157    1
   198   156   221    1
   199   156   222    1
   200   157   158    1
   201   157   223    1
   202   157   224    1
   203   158   159    1
   204   158   225    1
   205   158   226    1
   206   159   227    1
   207   159   228    1
   208   159   229    1
   209   160   161    2
   210   160   162    1
   211   162   163    1
   212   162   230    1
   213   162   231    1
   214   163   164    1
   215   164   165    1
   216   164   232    1
   217   164   233    1
   218   165   166    2
   219   165   167    1
   220   167   168    1
   221   167   176    1
   222   168   169    1
   223   168   234    1
   224   168   235    1
   225   169   170    1
   226   169   236    1
   227   169   237    1
   228   170   171    1
   229   170   238    1
   230   170   239    1
   231   171   172    1
   232   171   240    1
   233   171   241    1
   234   172   173    1
   235   172   242    1
   236   172   243    1
   237   173   174    1
   238   173   244    1
   239   173   245    1
   240   174   175    1
   241   174   246    1
   242   174   247    1
   243   175   248    1
   244   175   249    1
   245   175   250    1
   246   176   177    1
   247   176   251    1
   248   176   252    1
   249   177   178    1
   250   177   253    1
   251   177   254    1
   252   178   179    1
   253   178   255    1
   254   178   256    1
   255   179   180    1
   256   179   257    1
   257   179   258    1
   258   180   181    1
   259   180   259    1
   260   180   260    1
   261   181   182    1
   262   181   261    1
   263   181   262    1
   264   182   183    1
   265   182   263    1
   266   182   264    1
   267   183   184    1
   268   183   265    1
   269   183   266    1
   270   184   185    1
   271   184   267    1
   272   184   268    1
   273   185   186    1
   274   185   269    1
   275   185   270    1
   276   186   187    1
   277   186   271    1
   278   186   272    1
   279   187   273    1
   280   187   274    1
   281   187   275    1
   282   276   277    1
   283   276   325    1
   284   276   326    1
   285   276   327    1
   286   277   278    1
   287   277   328    1
   288   277   329    1
   289   278   279    1
   290   278   330    1
   291   278   331    1
   292   279   280    1
   293   279   332    1
   294   279   333    1
   295   280   281    1
   296   280   334    1
   297   280   335    1
   298   281   282    1
   299   281   336    1
   300   281   337    1
   301   282   283    1
   302   282   338    1
   303   282   339    1
   304   283   284    1
   305   283   340    1
   306   283   341    1
   307   284   285    1
   308   284   342    1
   309   284   343    1
   310   285   286    1
   311   285   344    1
   312   285   345    1
   313   286   287    1
   314   286   346    1
   315   286   347    1
   316   287   288    1
   317   287   348    1
   318   287   349    1
   319   288   289    1
   320   288   297    1
   321   289   290    1
   322   289   350    1
   323   289   351    1
   324   290   291    1
   325   290   352    1
   326   290   353    1
   327   291   292    1
   328   291   354    1
   329   291   355    1
   330   292   293    1
   331   292   356    1
   332   292   357    1
   333   293   294    1
   334   293   358    1
   335   293   359    1
   336   294   295    1
   337   294   360    1
   338   294   361    1
   339   295   296    1
   340   295   362    1
   341   295   363    1
   342   296   364    1
   343   296   365    1
   344   296   366    1
   345   297   298    2
   346   297   299    1
   347   299   300    1
   348   299   367    1
   349   299   368    1
   350   300   301    1
   351   301   302    1
   352   301   369    1
   353   301   370    1
   354   302   303    2
   355   302   304    1
   356   304   305    1
   357   304   313    1
   358   305   306    1
   359   305   371    1
   360   305   372    1
   361   306   307    1
   362   306   373    1
   363   306   374    1
   364   307   308    1
   365   307   375    1
   366   307   376    1
   367   308   309    1
   368   308   377    1
   369   308   378    1
   370   309   310    1
   371   309   379    1
   372   309   380    1
   373   310   311    1
   374   310   381    1
   375   310   382    1
   376   311   312    1
   377   311   383    1
   378   311   384    1
   379   312   385    1
   380   312   386    1
   381   312   387    1
   382   313   314    1
   383   313   388    1
   384   313   389    1
   385   314   315    1
   386   314   390    1
   387   314   391    1
   388   315   316    1
   389   315   392    1
   390   315   393    1
   391   316   317    1
   392   316   394    1
   393   316   395    1
   394   317   318    1
   395   317   396    1
   396   317   397    1
   397   318   319    1
   398   318   398    1
   399   318   399    1
   400   319   320    1
   401   319   400    1
   402   319   401    1
   403   320   321    1
   404   320   402    1
   405   320   403    1
   406   321   322    1
   407   321   404    1
   408   321   405    1
   409   322   323    1
   410   322   406    1
   411   322   407    1
   412   323   324    1
   413   323   408    1
   414   323   409    1
   415   324   410    1
   416   324   411    1
   417   324   412    1
@<TRIPOS>SUBSTRUCTURE
     1 RES1      412 GROUP             0 ****  ****    0  
