@<TRIPOS>MOLECULE
capped_square_antiprismatic_0_nunpairedes_0_charge_2 Charge: 2 Unpaired_Electrons: 0 XTB_Unpaired_Electrons: 0 XTB_Charge: 2
    50    56     1     0     0
SMALL
NoCharges
****
Generated from Architector

@<TRIPOS>ATOM
     1 La1      -0.0412    0.0492    0.1706   La        1 RES1   0.0000
     2 C1        3.3880   -0.6102    0.3071   C.3       1 RES1   0.0000
     3 C2        3.1429    0.5969   -0.5964   C.3       1 RES1   0.0000
     4 O1        1.9063    0.3738   -1.3031   O.3       1 RES1   0.0000
     5 C3        1.6861    1.3222   -2.3506   C.3       1 RES1   0.0000
     6 C4        1.2317    2.6777   -1.7868   C.3       1 RES1   0.0000
     7 O2        0.2156    2.4764   -0.7929   O.3       1 RES1   0.0000
     8 C5       -1.0677    3.0264   -1.1206   C.3       1 RES1   0.0000
     9 C6       -1.8181    2.0868   -2.0679   C.3       1 RES1   0.0000
    10 O3       -1.9425    0.8128   -1.4204   O.3       1 RES1   0.0000
    11 C7       -3.2901    0.3722   -1.1935   C.3       1 RES1   0.0000
    12 C8       -3.3151   -0.6124   -0.0101   C.3       1 RES1   0.0000
    13 O4       -2.0992   -1.3538   -0.0679   O.3       1 RES1   0.0000
    14 C9       -2.0541   -2.5295    0.7408   C.3       1 RES1   0.0000
    15 C10      -0.9156   -3.3887    0.1732   C.3       1 RES1   0.0000
    16 O5        0.1810   -2.5304   -0.1815   O.3       1 RES1   0.0000
    17 C11       1.4877   -3.0533    0.0847   C.3       1 RES1   0.0000
    18 C12       2.0636   -2.3194    1.3010   C.3       1 RES1   0.0000
    19 O6        2.1750   -0.9216    1.0043   O.3       1 RES1   0.0000
    20 H1        4.1827   -0.3732    1.0257   H         1 RES1   0.0000
    21 H2        3.7047   -1.4581   -0.3072   H         1 RES1   0.0000
    22 H3        3.9639    0.6802   -1.3152   H         1 RES1   0.0000
    23 H4        3.0765    1.5164   -0.0089   H         1 RES1   0.0000
    24 H5        0.9016    0.8811   -2.9782   H         1 RES1   0.0000
    25 H6        2.6005    1.4446   -2.9404   H         1 RES1   0.0000
    26 H7        0.8792    3.3033   -2.6098   H         1 RES1   0.0000
    27 H8        2.0673    3.1951   -1.3005   H         1 RES1   0.0000
    28 H9       -0.9737    4.0255   -1.5587   H         1 RES1   0.0000
    29 H10      -1.6102    3.0896   -0.1696   H         1 RES1   0.0000
    30 H11      -1.2522    1.9430   -2.9980   H         1 RES1   0.0000
    31 H12      -2.7921    2.5077   -2.3190   H         1 RES1   0.0000
    32 H13      -3.6548   -0.1334   -2.0974   H         1 RES1   0.0000
    33 H14      -3.9421    1.2169   -0.9520   H         1 RES1   0.0000
    34 H15      -4.1782   -1.2802   -0.1231   H         1 RES1   0.0000
    35 H16      -3.4037   -0.0789    0.9481   H         1 RES1   0.0000
    36 H17      -2.9940   -3.0874    0.6731   H         1 RES1   0.0000
    37 H18      -1.8607   -2.2700    1.7926   H         1 RES1   0.0000
    38 H19      -1.2635   -3.9064   -0.7319   H         1 RES1   0.0000
    39 H20      -0.6239   -4.1232    0.9288   H         1 RES1   0.0000
    40 H21       2.0917   -2.8586   -0.8121   H         1 RES1   0.0000
    41 H22       1.4715   -4.1300    0.2604   H         1 RES1   0.0000
    42 H23       3.0363   -2.7319    1.5849   H         1 RES1   0.0000
    43 H24       1.3636   -2.3878    2.1433   H         1 RES1   0.0000
    44 N1       -1.0026    0.5754    2.4232   N.3       1 RES1   0.0000
    45 O7       -1.2930    0.9199    3.5093   O.2       1 RES1   0.0000
    46 O8       -1.3245    1.2276    1.4114   O.co2     1 RES1   0.0000
    47 O9       -0.3760   -0.4801    2.2080   O.co2     1 RES1   0.0000
    48 O10       1.3627    1.7294    1.7373   O.3       1 RES1   0.0000
    49 H25       1.1967    2.6829    1.8392   H         1 RES1   0.0000
    50 H26       1.8426    1.4835    2.5409   H         1 RES1   0.0000
@<TRIPOS>BOND
     1     1     4    1
     2     1     7    1
     3     1    10    1
     4     1    13    1
     5     1    16    1
     6     1    19    1
     7     1    46    1
     8     1    47    1
     9     1    48    1
    10     2     3    1
    11     2    19    1
    12     2    20    1
    13     2    21    1
    14     3     4    1
    15     3    22    1
    16     3    23    1
    17     4     5    1
    18     5     6    1
    19     5    24    1
    20     5    25    1
    21     6     7    1
    22     6    26    1
    23     6    27    1
    24     7     8    1
    25     8     9    1
    26     8    28    1
    27     8    29    1
    28     9    10    1
    29     9    30    1
    30     9    31    1
    31    10    11    1
    32    11    12    1
    33    11    32    1
    34    11    33    1
    35    12    13    1
    36    12    34    1
    37    12    35    1
    38    13    14    1
    39    14    15    1
    40    14    36    1
    41    14    37    1
    42    15    16    1
    43    15    38    1
    44    15    39    1
    45    16    17    1
    46    17    18    1
    47    17    40    1
    48    17    41    1
    49    18    19    1
    50    18    42    1
    51    18    43    1
    52    44    45    2
    53    44    46    1
    54    44    47    1
    55    48    49    1
    56    48    50    1
@<TRIPOS>SUBSTRUCTURE
     1 RES1       50 GROUP             0 ****  ****    0  
