@<TRIPOS>MOLECULE
am_c3_9H2O_c0_0_nunpairedes_0_charge_3 Charge: 3 Unpaired_Electrons: 0 XTB_Unpaired_Electrons: 0 XTB_Charge: 3
   361   369     1     0     0
SMALL
NoCharges
****
Generated from Architector

@<TRIPOS>ATOM
     1 La1      -0.1269   -0.1103    0.1476   La        1 RES1   0.0000
     2 C1       -4.7260    0.3913   -9.0734   C.3       1 RES1   0.0000
     3 C2       -5.5161    0.0206   -7.8242   C.3       1 RES1   0.0000
     4 C3       -5.1831   -1.3792   -7.2960   C.3       1 RES1   0.0000
     5 C4       -4.1739   -1.4074   -6.1494   C.3       1 RES1   0.0000
     6 C5       -2.7610   -0.9300   -6.5030   C.3       1 RES1   0.0000
     7 C6       -2.4336    0.4945   -6.0425   C.3       1 RES1   0.0000
     8 C7       -2.0217    0.5920   -4.5653   C.3       1 RES1   0.0000
     9 C8       -3.1219    0.9920   -3.5797   C.3       1 RES1   0.0000
    10 P1       -2.2767    1.2337   -1.9691   P.3       1 RES1   0.0000
    11 O1       -1.4795    0.0024   -1.6435   O.2       1 RES1   0.0000
    12 C9       -1.0752    2.6174   -2.1664   C.3       1 RES1   0.0000
    13 C10      -1.4006    3.9359   -2.8759   C.3       1 RES1   0.0000
    14 C11      -0.0809    4.7263   -3.0270   C.3       1 RES1   0.0000
    15 C12      -0.0922    6.2295   -2.7315   C.3       1 RES1   0.0000
    16 C13      -0.4699    6.5586   -1.2868   C.3       1 RES1   0.0000
    17 C14      -0.1151    7.9908   -0.8426   C.3       1 RES1   0.0000
    18 C15      -1.3496    8.8599   -0.5872   C.3       1 RES1   0.0000
    19 C16      -2.1469    9.1102   -1.8605   C.3       1 RES1   0.0000
    20 C17      -3.5403    1.6343   -0.6437   C.3       1 RES1   0.0000
    21 C18      -3.9994    0.6207    0.3648   C.ar      1 RES1   0.0000
    22 C19      -5.3450    0.3705    0.5766   C.ar      1 RES1   0.0000
    23 C20      -5.7646   -0.3533    1.6836   C.ar      1 RES1   0.0000
    24 C21      -4.8166   -0.8789    2.5409   C.ar      1 RES1   0.0000
    25 C22      -3.4654   -0.6954    2.2809   C.ar      1 RES1   0.0000
    26 C23      -2.3772   -1.3204    3.0841   C.3       1 RES1   0.0000
    27 P2       -1.7352   -2.9292    2.3147   P.3       1 RES1   0.0000
    28 O2       -0.6484   -2.5946    1.3527   O.2       1 RES1   0.0000
    29 C24      -3.4435   -3.5321    1.8838   C.3       1 RES1   0.0000
    30 C25      -3.9139   -4.8769    1.3509   C.3       1 RES1   0.0000
    31 C26      -3.7511   -6.1251    2.2163   C.3       1 RES1   0.0000
    32 C27      -4.3345   -6.0356    3.6302   C.3       1 RES1   0.0000
    33 C28      -5.8076   -5.6300    3.6836   C.3       1 RES1   0.0000
    34 C29      -6.2829   -5.4216    5.1205   C.3       1 RES1   0.0000
    35 C30      -7.6868   -4.8216    5.1826   C.3       1 RES1   0.0000
    36 C31      -8.0684   -4.4537    6.6083   C.3       1 RES1   0.0000
    37 C32      -0.9706   -3.9210    3.6701   C.3       1 RES1   0.0000
    38 C33       0.2279   -4.7339    3.1753   C.3       1 RES1   0.0000
    39 C34      -0.0841   -6.0878    2.5415   C.3       1 RES1   0.0000
    40 C35       1.1986   -6.9132    2.3777   C.3       1 RES1   0.0000
    41 C36       0.9961   -8.2275    1.6105   C.3       1 RES1   0.0000
    42 C37       1.4926   -8.2155    0.1607   C.3       1 RES1   0.0000
    43 C38       2.9979   -8.4565    0.0175   C.3       1 RES1   0.0000
    44 C39       3.3892   -8.7365   -1.4330   C.3       1 RES1   0.0000
    45 N1       -3.1033    0.0939    1.2357   N.ar      1 RES1   0.0000
    46 O3       -1.8610    0.4348    1.1558   O.co2     1 RES1   0.0000
    47 H1       -4.9973    1.3868   -9.4152   H         1 RES1   0.0000
    48 H2       -4.9474   -0.3104   -9.8732   H         1 RES1   0.0000
    49 H3       -3.6543    0.3769   -8.8916   H         1 RES1   0.0000
    50 H4       -6.5782    0.0667   -8.0669   H         1 RES1   0.0000
    51 H5       -5.3395    0.7600   -7.0417   H         1 RES1   0.0000
    52 H6       -4.8152   -1.9986   -8.1126   H         1 RES1   0.0000
    53 H7       -6.0968   -1.8502   -6.9284   H         1 RES1   0.0000
    54 H8       -4.1114   -2.4408   -5.8034   H         1 RES1   0.0000
    55 H9       -4.5702   -0.7959   -5.3374   H         1 RES1   0.0000
    56 H10      -2.6304   -0.9914   -7.5831   H         1 RES1   0.0000
    57 H11      -2.0228   -1.6067   -6.0622   H         1 RES1   0.0000
    58 H12      -3.2779    1.1566   -6.2358   H         1 RES1   0.0000
    59 H13      -1.5944    0.8536   -6.6446   H         1 RES1   0.0000
    60 H14      -1.2221    1.3281   -4.4889   H         1 RES1   0.0000
    61 H15      -1.6015   -0.3604   -4.2346   H         1 RES1   0.0000
    62 H16      -3.8631    0.2004   -3.4737   H         1 RES1   0.0000
    63 H17      -3.6213    1.9118   -3.8882   H         1 RES1   0.0000
    64 H18      -0.2608    2.1046   -2.6892   H         1 RES1   0.0000
    65 H19      -0.7112    2.8357   -1.1588   H         1 RES1   0.0000
    66 H20      -2.1223    4.5065   -2.2949   H         1 RES1   0.0000
    67 H21      -1.8365    3.7584   -3.8605   H         1 RES1   0.0000
    68 H22       0.6423    4.2818   -2.3356   H         1 RES1   0.0000
    69 H23       0.2914    4.5983   -4.0466   H         1 RES1   0.0000
    70 H24      -0.7626    6.7434   -3.4180   H         1 RES1   0.0000
    71 H25       0.9214    6.5924   -2.9269   H         1 RES1   0.0000
    72 H26       0.0183    5.8306   -0.6290   H         1 RES1   0.0000
    73 H27      -1.5430    6.4213   -1.1788   H         1 RES1   0.0000
    74 H28       0.4997    8.4758   -1.6011   H         1 RES1   0.0000
    75 H29       0.4802    7.9572    0.0736   H         1 RES1   0.0000
    76 H30      -1.0251    9.8161   -0.1729   H         1 RES1   0.0000
    77 H31      -1.9849    8.3842    0.1666   H         1 RES1   0.0000
    78 H32      -1.5399    9.6465   -2.5845   H         1 RES1   0.0000
    79 H33      -3.0305    9.7065   -1.6518   H         1 RES1   0.0000
    80 H34      -2.4672    8.1739   -2.3118   H         1 RES1   0.0000
    81 H35      -4.4081    2.0515   -1.1580   H         1 RES1   0.0000
    82 H36      -3.0503    2.4372   -0.0821   H         1 RES1   0.0000
    83 H37      -6.0696    0.7855   -0.1034   H         1 RES1   0.0000
    84 H38      -6.8132   -0.5067    1.8768   H         1 RES1   0.0000
    85 H39      -5.1216   -1.4465    3.4048   H         1 RES1   0.0000
    86 H40      -2.7203   -1.5145    4.0987   H         1 RES1   0.0000
    87 H41      -1.4926   -0.6837    3.1033   H         1 RES1   0.0000
    88 H42      -3.7688   -2.7924    1.1458   H         1 RES1   0.0000
    89 H43      -3.9657   -3.3524    2.8278   H         1 RES1   0.0000
    90 H44      -3.4404   -5.0364    0.3881   H         1 RES1   0.0000
    91 H45      -4.9832   -4.7527    1.1591   H         1 RES1   0.0000
    92 H46      -2.6970   -6.3842    2.2889   H         1 RES1   0.0000
    93 H47      -4.2463   -6.9414    1.6838   H         1 RES1   0.0000
    94 H48      -3.7527   -5.3355    4.2376   H         1 RES1   0.0000
    95 H49      -4.2145   -7.0168    4.0956   H         1 RES1   0.0000
    96 H50      -6.4150   -6.3943    3.1984   H         1 RES1   0.0000
    97 H51      -5.9522   -4.6936    3.1402   H         1 RES1   0.0000
    98 H52      -5.5859   -4.7435    5.6248   H         1 RES1   0.0000
    99 H53      -6.2668   -6.3692    5.6601   H         1 RES1   0.0000
   100 H54      -8.4117   -5.5293    4.7815   H         1 RES1   0.0000
   101 H55      -7.7242   -3.9284    4.5539   H         1 RES1   0.0000
   102 H56      -8.0666   -5.3324    7.2456   H         1 RES1   0.0000
   103 H57      -9.0582   -4.0103    6.6420   H         1 RES1   0.0000
   104 H58      -7.3598   -3.7382    7.0159   H         1 RES1   0.0000
   105 H59      -1.6960   -4.5480    4.1858   H         1 RES1   0.0000
   106 H60      -0.6028   -3.1827    4.3836   H         1 RES1   0.0000
   107 H61       0.8842   -4.9302    4.0247   H         1 RES1   0.0000
   108 H62       0.7777   -4.1208    2.4552   H         1 RES1   0.0000
   109 H63      -0.5700   -5.9419    1.5740   H         1 RES1   0.0000
   110 H64      -0.7664   -6.6411    3.1917   H         1 RES1   0.0000
   111 H65       1.5724   -7.1402    3.3779   H         1 RES1   0.0000
   112 H66       1.9535   -6.3049    1.8770   H         1 RES1   0.0000
   113 H67      -0.0660   -8.4730    1.6123   H         1 RES1   0.0000
   114 H68       1.5104   -9.0313    2.1366   H         1 RES1   0.0000
   115 H69       1.2295   -7.2657   -0.3168   H         1 RES1   0.0000
   116 H70       0.9795   -9.0139   -0.3786   H         1 RES1   0.0000
   117 H71       3.2818   -9.3234    0.6164   H         1 RES1   0.0000
   118 H72       3.5586   -7.5990    0.4022   H         1 RES1   0.0000
   119 H73       4.4702   -8.8051   -1.5339   H         1 RES1   0.0000
   120 H74       3.0241   -7.9558   -2.1007   H         1 RES1   0.0000
   121 H75       2.9607   -9.6808   -1.7612   H         1 RES1   0.0000
   122 C40       2.3718   -3.9416    9.6963   C.3       1 RES1   0.0000
   123 C41       2.4316   -4.8627    8.4836   C.3       1 RES1   0.0000
   124 C42       1.0546   -5.2188    7.9099   C.3       1 RES1   0.0000
   125 C43       0.5935   -4.3311    6.7507   C.3       1 RES1   0.0000
   126 C44       0.1359   -2.9183    7.1467   C.3       1 RES1   0.0000
   127 C45       1.1055   -1.7678    6.8419   C.3       1 RES1   0.0000
   128 C46       1.0730   -1.1750    5.4209   C.3       1 RES1   0.0000
   129 C47       2.0251   -1.8608    4.4396   C.3       1 RES1   0.0000
   130 P3        2.0808   -1.0972    2.7534   P.3       1 RES1   0.0000
   131 O4        0.7433   -0.5606    2.3496   O.2       1 RES1   0.0000
   132 C48       3.3242    0.2683    2.7531   C.3       1 RES1   0.0000
   133 C49       3.2219    1.1728    3.9765   C.3       1 RES1   0.0000
   134 C50       3.9258    2.5253    3.8305   C.3       1 RES1   0.0000
   135 C51       5.4101    2.4635    3.4557   C.3       1 RES1   0.0000
   136 C52       5.6809    2.5015    1.9477   C.3       1 RES1   0.0000
   137 C53       7.0163    3.1495    1.5688   C.3       1 RES1   0.0000
   138 C54       8.2624    2.3101    1.8612   C.3       1 RES1   0.0000
   139 C55       8.7362    2.3707    3.3087   C.3       1 RES1   0.0000
   140 C56       3.0236   -2.4122    1.7450   C.3       1 RES1   0.0000
   141 C57       2.5420   -3.2151    0.5776   C.ar      1 RES1   0.0000
   142 C58       3.0847   -4.4568    0.2837   C.ar      1 RES1   0.0000
   143 C59       2.8570   -5.0227   -0.9614   C.ar      1 RES1   0.0000
   144 C60       1.9439   -4.4214   -1.8074   C.ar      1 RES1   0.0000
   145 C61       1.3072   -3.2396   -1.4473   C.ar      1 RES1   0.0000
   146 C62       0.1917   -2.6751   -2.2526   C.3       1 RES1   0.0000
   147 P4       -1.5328   -3.3302   -1.7082   P.3       1 RES1   0.0000
   148 O5       -2.0534   -2.4658   -0.6245   O.2       1 RES1   0.0000
   149 C63      -1.0152   -5.0764   -1.3185   C.3       1 RES1   0.0000
   150 C64      -1.8661   -6.3434   -1.1640   C.3       1 RES1   0.0000
   151 C65      -2.8140   -6.7222   -2.2980   C.3       1 RES1   0.0000
   152 C66      -2.1335   -6.8635   -3.6588   C.3       1 RES1   0.0000
   153 C67      -0.9395   -7.8149   -3.6531   C.3       1 RES1   0.0000
   154 C68      -0.4091   -8.0542   -5.0647   C.3       1 RES1   0.0000
   155 C69       0.9869   -8.6701   -5.0297   C.3       1 RES1   0.0000
   156 C70       1.5475   -8.9336   -6.4200   C.3       1 RES1   0.0000
   157 C71      -2.6405   -3.1708   -3.1768   C.3       1 RES1   0.0000
   158 C72      -3.9629   -2.5200   -2.7805   C.3       1 RES1   0.0000
   159 C73      -4.9788   -3.4333   -2.1003   C.3       1 RES1   0.0000
   160 C74      -6.3130   -2.6929   -1.9545   C.3       1 RES1   0.0000
   161 C75      -7.4332   -3.5396   -1.3343   C.3       1 RES1   0.0000
   162 C76      -7.6262   -3.3662    0.1805   C.3       1 RES1   0.0000
   163 C77      -8.7927   -2.4356    0.5178   C.3       1 RES1   0.0000
   164 C78      -9.0784   -2.3879    2.0150   C.3       1 RES1   0.0000
   165 N2        1.7499   -2.6055   -0.3271   N.ar      1 RES1   0.0000
   166 O6        1.5667   -1.3283   -0.1471   O.co2     1 RES1   0.0000
   167 H76       3.3754   -3.7378   10.0622   H         1 RES1   0.0000
   168 H77       1.8133   -4.4145   10.5002   H         1 RES1   0.0000
   169 H78       1.8968   -2.9936    9.4581   H         1 RES1   0.0000
   170 H79       2.9355   -5.7824    8.7859   H         1 RES1   0.0000
   171 H80       3.0447   -4.4023    7.7046   H         1 RES1   0.0000
   172 H81       0.3114   -5.1976    8.7070   H         1 RES1   0.0000
   173 H82       1.0899   -6.2446    7.5365   H         1 RES1   0.0000
   174 H83      -0.2384   -4.8480    6.2687   H         1 RES1   0.0000
   175 H84       1.4109   -4.2742    6.0315   H         1 RES1   0.0000
   176 H85      -0.0464   -2.9219    8.2213   H         1 RES1   0.0000
   177 H86      -0.8277   -2.7001    6.6780   H         1 RES1   0.0000
   178 H87       2.1239   -2.0744    7.0776   H         1 RES1   0.0000
   179 H88       0.8500   -0.9576    7.5274   H         1 RES1   0.0000
   180 H89       1.3502   -0.1250    5.4996   H         1 RES1   0.0000
   181 H90       0.0576   -1.2019    5.0220   H         1 RES1   0.0000
   182 H91       1.7519   -2.9092    4.3332   H         1 RES1   0.0000
   183 H92       3.0437   -1.8227    4.8289   H         1 RES1   0.0000
   184 H93       3.1001    0.8381    1.8492   H         1 RES1   0.0000
   185 H94       4.3305   -0.1386    2.6850   H         1 RES1   0.0000
   186 H95       3.6402    0.6570    4.8423   H         1 RES1   0.0000
   187 H96       2.1660    1.3651    4.1789   H         1 RES1   0.0000
   188 H97       3.8385    3.0293    4.7939   H         1 RES1   0.0000
   189 H98       3.4043    3.1419    3.0957   H         1 RES1   0.0000
   190 H99       5.8524    1.5710    3.8965   H         1 RES1   0.0000
   191 H100      5.9051    3.3248    3.9044   H         1 RES1   0.0000
   192 H101      4.8899    3.0845    1.4639   H         1 RES1   0.0000
   193 H102      5.6485    1.4965    1.5236   H         1 RES1   0.0000
   194 H103      7.1053    4.1083    2.0802   H         1 RES1   0.0000
   195 H104      6.9913    3.3568    0.4951   H         1 RES1   0.0000
   196 H105      9.0727    2.6755    1.2271   H         1 RES1   0.0000
   197 H106      8.0746    1.2722    1.5813   H         1 RES1   0.0000
   198 H107      8.8924    3.4022    3.6138   H         1 RES1   0.0000
   199 H108      9.6806    1.8428    3.4165   H         1 RES1   0.0000
   200 H109      8.0218    1.9163    3.9880   H         1 RES1   0.0000
   201 H110      3.4409   -3.0965    2.4872   H         1 RES1   0.0000
   202 H111      3.8689   -1.8291    1.3657   H         1 RES1   0.0000
   203 H112      3.7544   -4.9307    0.9803   H         1 RES1   0.0000
   204 H113      3.3736   -5.9105   -1.2724   H         1 RES1   0.0000
   205 H114      1.7452   -4.8496   -2.7797   H         1 RES1   0.0000
   206 H115      0.3160   -2.9406   -3.3036   H         1 RES1   0.0000
   207 H116      0.1372   -1.5850   -2.1613   H         1 RES1   0.0000
   208 H117     -0.4609   -4.9325   -0.3833   H         1 RES1   0.0000
   209 H118     -0.2998   -5.2975   -2.1098   H         1 RES1   0.0000
   210 H119     -2.4354   -6.3219   -0.2405   H         1 RES1   0.0000
   211 H120     -1.1468   -7.1595   -1.0554   H         1 RES1   0.0000
   212 H121     -3.6319   -6.0017   -2.3597   H         1 RES1   0.0000
   213 H122     -3.2519   -7.6870   -2.0283   H         1 RES1   0.0000
   214 H123     -1.7934   -5.8873   -4.0183   H         1 RES1   0.0000
   215 H124     -2.8690   -7.2282   -4.3788   H         1 RES1   0.0000
   216 H125     -1.2214   -8.7664   -3.2014   H         1 RES1   0.0000
   217 H126     -0.1292   -7.3921   -3.0527   H         1 RES1   0.0000
   218 H127     -0.3718   -7.1031   -5.6035   H         1 RES1   0.0000
   219 H128     -1.0911   -8.7101   -5.6041   H         1 RES1   0.0000
   220 H129      0.9549   -9.6046   -4.4672   H         1 RES1   0.0000
   221 H130      1.6601   -7.9926   -4.4967   H         1 RES1   0.0000
   222 H131      0.9319   -9.6539   -6.9511   H         1 RES1   0.0000
   223 H132      2.5575   -9.3307   -6.3532   H         1 RES1   0.0000
   224 H133      1.5777   -8.0156   -7.0030   H         1 RES1   0.0000
   225 H134     -2.8104   -4.1344   -3.6503   H         1 RES1   0.0000
   226 H135     -2.1266   -2.5256   -3.8909   H         1 RES1   0.0000
   227 H136     -4.4319   -2.1436   -3.6868   H         1 RES1   0.0000
   228 H137     -3.7460   -1.6725   -2.1250   H         1 RES1   0.0000
   229 H138     -4.6062   -3.7540   -1.1285   H         1 RES1   0.0000
   230 H139     -5.1428   -4.3186   -2.7201   H         1 RES1   0.0000
   231 H140     -6.6261   -2.3898   -2.9556   H         1 RES1   0.0000
   232 H141     -6.1648   -1.7784   -1.3719   H         1 RES1   0.0000
   233 H142     -7.2405   -4.5901   -1.5617   H         1 RES1   0.0000
   234 H143     -8.3701   -3.2758   -1.8258   H         1 RES1   0.0000
   235 H144     -6.7086   -2.9902    0.6402   H         1 RES1   0.0000
   236 H145     -7.8341   -4.3397    0.6235   H         1 RES1   0.0000
   237 H146     -9.6895   -2.8016    0.0157   H         1 RES1   0.0000
   238 H147     -8.5903   -1.4311    0.1347   H         1 RES1   0.0000
   239 H148     -9.3242   -3.3833    2.3797   H         1 RES1   0.0000
   240 H149     -9.9241   -1.7379    2.2226   H         1 RES1   0.0000
   241 H150     -8.2189   -2.0212    2.5748   H         1 RES1   0.0000
   242 C79      -5.8371    7.0678   -3.1979   C.3       1 RES1   0.0000
   243 C80      -6.6641    7.5067   -1.9953   C.3       1 RES1   0.0000
   244 C81      -5.9807    7.2955   -0.6397   C.3       1 RES1   0.0000
   245 C82      -6.1205    5.8913   -0.0337   C.3       1 RES1   0.0000
   246 C83      -5.0183    4.8886   -0.3899   C.3       1 RES1   0.0000
   247 C84      -3.6126    5.2838    0.0696   C.3       1 RES1   0.0000
   248 C85      -3.3702    5.2640    1.5795   C.3       1 RES1   0.0000
   249 C86      -1.8648    5.3559    1.8928   C.3       1 RES1   0.0000
   250 P5       -1.0300    3.7075    1.9955   P.3       1 RES1   0.0000
   251 O7       -1.1853    2.8169    0.8134   O.2       1 RES1   0.0000
   252 C87      -1.7109    3.0602    3.5866   C.3       1 RES1   0.0000
   253 C88      -0.9290    1.9564    4.2972   C.3       1 RES1   0.0000
   254 C89      -1.0566    1.9821    5.8305   C.3       1 RES1   0.0000
   255 C90       0.0203    2.8189    6.5284   C.3       1 RES1   0.0000
   256 C91      -0.0572    4.3137    6.2220   C.3       1 RES1   0.0000
   257 C92       0.9135    5.1614    7.0526   C.3       1 RES1   0.0000
   258 C93       2.3751    4.9932    6.6350   C.3       1 RES1   0.0000
   259 C94       3.2998    5.9534    7.3711   C.3       1 RES1   0.0000
   260 C95       0.7901    4.0019    2.2458   C.3       1 RES1   0.0000
   261 C96       1.5975    4.1195    1.0018   C.ar      1 RES1   0.0000
   262 C97       2.0955    5.3505    0.6003   C.ar      1 RES1   0.0000
   263 C98       2.9893    5.4459   -0.4519   C.ar      1 RES1   0.0000
   264 C99       3.4082    4.2678   -1.0491   C.ar      1 RES1   0.0000
   265 C100      2.8968    3.0420   -0.6473   C.ar      1 RES1   0.0000
   266 C101      3.4656    1.7675   -1.1681   C.3       1 RES1   0.0000
   267 P6        2.6344    1.0563   -2.6655   P.3       1 RES1   0.0000
   268 O8        1.3529    0.4210   -2.2246   O.2       1 RES1   0.0000
   269 C102      3.8568   -0.0829   -3.4465   C.3       1 RES1   0.0000
   270 C103      4.1994   -1.2789   -2.5552   C.3       1 RES1   0.0000
   271 C104      5.6268   -1.2622   -1.9775   C.3       1 RES1   0.0000
   272 C105      5.5898   -1.5311   -0.4767   C.3       1 RES1   0.0000
   273 C106      6.9532   -1.5398    0.2125   C.3       1 RES1   0.0000
   274 C107      6.7838   -1.6898    1.7240   C.3       1 RES1   0.0000
   275 C108      8.1007   -1.7820    2.4896   C.3       1 RES1   0.0000
   276 C109      7.8459   -1.8143    3.9936   C.3       1 RES1   0.0000
   277 C110      2.3231    2.3679   -3.8990   C.3       1 RES1   0.0000
   278 C111      3.4499    2.8280   -4.8206   C.3       1 RES1   0.0000
   279 C112      2.8458    3.6367   -5.9711   C.3       1 RES1   0.0000
   280 C113      3.8905    4.2078   -6.9297   C.3       1 RES1   0.0000
   281 C114      4.7433    5.3209   -6.3055   C.3       1 RES1   0.0000
   282 C115      6.1611    4.8714   -5.9464   C.3       1 RES1   0.0000
   283 C116      6.8397    5.8176   -4.9531   C.3       1 RES1   0.0000
   284 C117      6.3506    5.6003   -3.5218   C.3       1 RES1   0.0000
   285 N3        1.9335    2.9876    0.3174   N.ar      1 RES1   0.0000
   286 O9        1.4282    1.8354    0.6512   O.co2     1 RES1   0.0000
   287 H151     -6.3674    7.3170   -4.1139   H         1 RES1   0.0000
   288 H152     -5.6571    5.9936   -3.1947   H         1 RES1   0.0000
   289 H153     -4.8794    7.5864   -3.2136   H         1 RES1   0.0000
   290 H154     -7.6218    6.9852   -2.0033   H         1 RES1   0.0000
   291 H155     -6.8739    8.5718   -2.1057   H         1 RES1   0.0000
   292 H156     -6.4293    7.9954    0.0644   H         1 RES1   0.0000
   293 H157     -4.9297    7.5747   -0.7224   H         1 RES1   0.0000
   294 H158     -7.0777    5.4722   -0.3524   H         1 RES1   0.0000
   295 H159     -6.1588    5.9767    1.0553   H         1 RES1   0.0000
   296 H160     -4.9910    4.7522   -1.4736   H         1 RES1   0.0000
   297 H161     -5.2825    3.9271    0.0592   H         1 RES1   0.0000
   298 H162     -3.3972    6.2885   -0.2990   H         1 RES1   0.0000
   299 H163     -2.8952    4.5975   -0.3838   H         1 RES1   0.0000
   300 H164     -3.7947    4.3518    2.0131   H         1 RES1   0.0000
   301 H165     -3.8862    6.1133    2.0315   H         1 RES1   0.0000
   302 H166     -1.7047    5.8204    2.8676   H         1 RES1   0.0000
   303 H167     -1.3709    5.9815    1.1509   H         1 RES1   0.0000
   304 H168     -2.7078    2.6922    3.3286   H         1 RES1   0.0000
   305 H169     -1.8481    3.9124    4.2534   H         1 RES1   0.0000
   306 H170      0.1318    2.0051    4.0513   H         1 RES1   0.0000
   307 H171     -1.2800    0.9952    3.9280   H         1 RES1   0.0000
   308 H172     -0.9589    0.9568    6.1990   H         1 RES1   0.0000
   309 H173     -2.0484    2.3291    6.1274   H         1 RES1   0.0000
   310 H174      1.0046    2.4410    6.2453   H         1 RES1   0.0000
   311 H175     -0.0832    2.6754    7.6035   H         1 RES1   0.0000
   312 H176     -1.0769    4.6549    6.4217   H         1 RES1   0.0000
   313 H177      0.1607    4.4732    5.1628   H         1 RES1   0.0000
   314 H178      0.8035    4.9148    8.1092   H         1 RES1   0.0000
   315 H179      0.6312    6.2103    6.9381   H         1 RES1   0.0000
   316 H180      2.4622    5.1737    5.5593   H         1 RES1   0.0000
   317 H181      2.6983    3.9677    6.8277   H         1 RES1   0.0000
   318 H182      3.0221    6.9850    7.1726   H         1 RES1   0.0000
   319 H183      4.3283    5.8108    7.0514   H         1 RES1   0.0000
   320 H184      3.2440    5.7860    8.4419   H         1 RES1   0.0000
   321 H185      1.1186    3.1053    2.7790   H         1 RES1   0.0000
   322 H186      0.9345    4.8909    2.8568   H         1 RES1   0.0000
   323 H187      1.8091    6.2323    1.1548   H         1 RES1   0.0000
   324 H188      3.3887    6.3968   -0.7645   H         1 RES1   0.0000
   325 H189      4.1563    4.2834   -1.8229   H         1 RES1   0.0000
   326 H190      3.3269    0.9736   -0.4276   H         1 RES1   0.0000
   327 H191      4.5234    1.9091   -1.3772   H         1 RES1   0.0000
   328 H192      4.7564    0.4732   -3.7093   H         1 RES1   0.0000
   329 H193      3.4008   -0.4000   -4.3873   H         1 RES1   0.0000
   330 H194      4.0530   -2.2014   -3.1160   H         1 RES1   0.0000
   331 H195      3.4817   -1.2891   -1.7318   H         1 RES1   0.0000
   332 H196      6.1158   -0.3043   -2.1552   H         1 RES1   0.0000
   333 H197      6.2379   -2.0224   -2.4627   H         1 RES1   0.0000
   334 H198      5.1129   -2.5038   -0.3213   H         1 RES1   0.0000
   335 H199      4.9637   -0.7592   -0.0123   H         1 RES1   0.0000
   336 H200      7.4918   -0.6153   -0.0070   H         1 RES1   0.0000
   337 H201      7.5505   -2.3661   -0.1746   H         1 RES1   0.0000
   338 H202      6.1967   -2.5891    1.9310   H         1 RES1   0.0000
   339 H203      6.2237   -0.8305    2.1086   H         1 RES1   0.0000
   340 H204      8.7309   -0.9257    2.2424   H         1 RES1   0.0000
   341 H205      8.6336   -2.6853    2.1895   H         1 RES1   0.0000
   342 H206      7.3474   -0.9003    4.3148   H         1 RES1   0.0000
   343 H207      8.7820   -1.8970    4.5373   H         1 RES1   0.0000
   344 H208      7.2171   -2.6632    4.2627   H         1 RES1   0.0000
   345 H209      1.9490    3.2246   -3.3410   H         1 RES1   0.0000
   346 H210      1.4976    1.9827   -4.5084   H         1 RES1   0.0000
   347 H211      3.9899    1.9800   -5.2406   H         1 RES1   0.0000
   348 H212      4.1586    3.4439   -4.2687   H         1 RES1   0.0000
   349 H213      2.2458    4.4546   -5.5633   H         1 RES1   0.0000
   350 H214      2.1705    2.9868   -6.5331   H         1 RES1   0.0000
   351 H215      3.3622    4.5957   -7.8006   H         1 RES1   0.0000
   352 H216      4.5346    3.4000   -7.2795   H         1 RES1   0.0000
   353 H217      4.2397    5.7016   -5.4150   H         1 RES1   0.0000
   354 H218      4.8177    6.1528   -7.0050   H         1 RES1   0.0000
   355 H219      6.7566    4.8224   -6.8577   H         1 RES1   0.0000
   356 H220      6.1440    3.8667   -5.5177   H         1 RES1   0.0000
   357 H221      6.6521    6.8527   -5.2455   H         1 RES1   0.0000
   358 H222      7.9187    5.6578   -4.9805   H         1 RES1   0.0000
   359 H223      5.2846    5.8163   -3.4403   H         1 RES1   0.0000
   360 H224      6.8819    6.2541   -2.8332   H         1 RES1   0.0000
   361 H225      6.5270    4.5678   -3.2139   H         1 RES1   0.0000
@<TRIPOS>BOND
     1     1    11    1
     2     1    28    1
     3     1    46    1
     4     1   131    1
     5     1   148    1
     6     1   166    1
     7     1   251    1
     8     1   268    1
     9     1   286    1
    10     2     3    1
    11     2    47    1
    12     2    48    1
    13     2    49    1
    14     3     4    1
    15     3    50    1
    16     3    51    1
    17     4     5    1
    18     4    52    1
    19     4    53    1
    20     5     6    1
    21     5    54    1
    22     5    55    1
    23     6     7    1
    24     6    56    1
    25     6    57    1
    26     7     8    1
    27     7    58    1
    28     7    59    1
    29     8     9    1
    30     8    60    1
    31     8    61    1
    32     9    10    1
    33     9    62    1
    34     9    63    1
    35    10    11    2
    36    10    12    1
    37    10    20    1
    38    12    13    1
    39    12    64    1
    40    12    65    1
    41    13    14    1
    42    13    66    1
    43    13    67    1
    44    14    15    1
    45    14    68    1
    46    14    69    1
    47    15    16    1
    48    15    70    1
    49    15    71    1
    50    16    17    1
    51    16    72    1
    52    16    73    1
    53    17    18    1
    54    17    74    1
    55    17    75    1
    56    18    19    1
    57    18    76    1
    58    18    77    1
    59    19    78    1
    60    19    79    1
    61    19    80    1
    62    20    21    1
    63    20    81    1
    64    20    82    1
    65    21    22    1
    66    21    45    2
    67    22    23    2
    68    22    83    1
    69    23    24    1
    70    23    84    1
    71    24    25    2
    72    24    85    1
    73    25    26    1
    74    25    45    1
    75    26    27    1
    76    26    86    1
    77    26    87    1
    78    27    28    2
    79    27    29    1
    80    27    37    1
    81    29    30    1
    82    29    88    1
    83    29    89    1
    84    30    31    1
    85    30    90    1
    86    30    91    1
    87    31    32    1
    88    31    92    1
    89    31    93    1
    90    32    33    1
    91    32    94    1
    92    32    95    1
    93    33    34    1
    94    33    96    1
    95    33    97    1
    96    34    35    1
    97    34    98    1
    98    34    99    1
    99    35    36    1
   100    35   100    1
   101    35   101    1
   102    36   102    1
   103    36   103    1
   104    36   104    1
   105    37    38    1
   106    37   105    1
   107    37   106    1
   108    38    39    1
   109    38   107    1
   110    38   108    1
   111    39    40    1
   112    39   109    1
   113    39   110    1
   114    40    41    1
   115    40   111    1
   116    40   112    1
   117    41    42    1
   118    41   113    1
   119    41   114    1
   120    42    43    1
   121    42   115    1
   122    42   116    1
   123    43    44    1
   124    43   117    1
   125    43   118    1
   126    44   119    1
   127    44   120    1
   128    44   121    1
   129    45    46    1
   130   122   123    1
   131   122   167    1
   132   122   168    1
   133   122   169    1
   134   123   124    1
   135   123   170    1
   136   123   171    1
   137   124   125    1
   138   124   172    1
   139   124   173    1
   140   125   126    1
   141   125   174    1
   142   125   175    1
   143   126   127    1
   144   126   176    1
   145   126   177    1
   146   127   128    1
   147   127   178    1
   148   127   179    1
   149   128   129    1
   150   128   180    1
   151   128   181    1
   152   129   130    1
   153   129   182    1
   154   129   183    1
   155   130   131    2
   156   130   132    1
   157   130   140    1
   158   132   133    1
   159   132   184    1
   160   132   185    1
   161   133   134    1
   162   133   186    1
   163   133   187    1
   164   134   135    1
   165   134   188    1
   166   134   189    1
   167   135   136    1
   168   135   190    1
   169   135   191    1
   170   136   137    1
   171   136   192    1
   172   136   193    1
   173   137   138    1
   174   137   194    1
   175   137   195    1
   176   138   139    1
   177   138   196    1
   178   138   197    1
   179   139   198    1
   180   139   199    1
   181   139   200    1
   182   140   141    1
   183   140   201    1
   184   140   202    1
   185   141   142    1
   186   141   165    2
   187   142   143    2
   188   142   203    1
   189   143   144    1
   190   143   204    1
   191   144   145    2
   192   144   205    1
   193   145   146    1
   194   145   165    1
   195   146   147    1
   196   146   206    1
   197   146   207    1
   198   147   148    2
   199   147   149    1
   200   147   157    1
   201   149   150    1
   202   149   208    1
   203   149   209    1
   204   150   151    1
   205   150   210    1
   206   150   211    1
   207   151   152    1
   208   151   212    1
   209   151   213    1
   210   152   153    1
   211   152   214    1
   212   152   215    1
   213   153   154    1
   214   153   216    1
   215   153   217    1
   216   154   155    1
   217   154   218    1
   218   154   219    1
   219   155   156    1
   220   155   220    1
   221   155   221    1
   222   156   222    1
   223   156   223    1
   224   156   224    1
   225   157   158    1
   226   157   225    1
   227   157   226    1
   228   158   159    1
   229   158   227    1
   230   158   228    1
   231   159   160    1
   232   159   229    1
   233   159   230    1
   234   160   161    1
   235   160   231    1
   236   160   232    1
   237   161   162    1
   238   161   233    1
   239   161   234    1
   240   162   163    1
   241   162   235    1
   242   162   236    1
   243   163   164    1
   244   163   237    1
   245   163   238    1
   246   164   239    1
   247   164   240    1
   248   164   241    1
   249   165   166    1
   250   242   243    1
   251   242   287    1
   252   242   288    1
   253   242   289    1
   254   243   244    1
   255   243   290    1
   256   243   291    1
   257   244   245    1
   258   244   292    1
   259   244   293    1
   260   245   246    1
   261   245   294    1
   262   245   295    1
   263   246   247    1
   264   246   296    1
   265   246   297    1
   266   247   248    1
   267   247   298    1
   268   247   299    1
   269   248   249    1
   270   248   300    1
   271   248   301    1
   272   249   250    1
   273   249   302    1
   274   249   303    1
   275   250   251    2
   276   250   252    1
   277   250   260    1
   278   252   253    1
   279   252   304    1
   280   252   305    1
   281   253   254    1
   282   253   306    1
   283   253   307    1
   284   254   255    1
   285   254   308    1
   286   254   309    1
   287   255   256    1
   288   255   310    1
   289   255   311    1
   290   256   257    1
   291   256   312    1
   292   256   313    1
   293   257   258    1
   294   257   314    1
   295   257   315    1
   296   258   259    1
   297   258   316    1
   298   258   317    1
   299   259   318    1
   300   259   319    1
   301   259   320    1
   302   260   261    1
   303   260   321    1
   304   260   322    1
   305   261   262    1
   306   261   285    2
   307   262   263    2
   308   262   323    1
   309   263   264    1
   310   263   324    1
   311   264   265    2
   312   264   325    1
   313   265   266    1
   314   265   285    1
   315   266   267    1
   316   266   326    1
   317   266   327    1
   318   267   268    2
   319   267   269    1
   320   267   277    1
   321   269   270    1
   322   269   328    1
   323   269   329    1
   324   270   271    1
   325   270   330    1
   326   270   331    1
   327   271   272    1
   328   271   332    1
   329   271   333    1
   330   272   273    1
   331   272   334    1
   332   272   335    1
   333   273   274    1
   334   273   336    1
   335   273   337    1
   336   274   275    1
   337   274   338    1
   338   274   339    1
   339   275   276    1
   340   275   340    1
   341   275   341    1
   342   276   342    1
   343   276   343    1
   344   276   344    1
   345   277   278    1
   346   277   345    1
   347   277   346    1
   348   278   279    1
   349   278   347    1
   350   278   348    1
   351   279   280    1
   352   279   349    1
   353   279   350    1
   354   280   281    1
   355   280   351    1
   356   280   352    1
   357   281   282    1
   358   281   353    1
   359   281   354    1
   360   282   283    1
   361   282   355    1
   362   282   356    1
   363   283   284    1
   364   283   357    1
   365   283   358    1
   366   284   359    1
   367   284   360    1
   368   284   361    1
   369   285   286    1
@<TRIPOS>SUBSTRUCTURE
     1 RES1      361 GROUP             0 ****  ****    0  
