@<TRIPOS>MOLECULE
am_c3_9H2O_c0_0_nunpairedes_0_charge_3 Charge: 3 Unpaired_Electrons: 0 XTB_Unpaired_Electrons: 0 XTB_Charge: 3
   160   171     1     0     0
SMALL
NoCharges
****
Generated from Architector

@<TRIPOS>ATOM
     1 La1       0.0638    0.0930    0.1288   La        1 RES1   0.0000
     2 C1       -2.1450    2.8661    6.2143   C.3       1 RES1   0.0000
     3 C2       -2.3016    3.4865    4.8323   C.3       1 RES1   0.0000
     4 C3       -1.0362    3.3133    3.9925   C.3       1 RES1   0.0000
     5 C4       -1.0110    4.1276    2.6953   C.3       1 RES1   0.0000
     6 N1       -2.0185    3.7808    1.6859   N.am      1 RES1   0.0000
     7 C5       -2.8280    4.9177    1.2644   C.3       1 RES1   0.0000
     8 C6       -3.8976    5.3405    2.2829   C.3       1 RES1   0.0000
     9 C7       -5.0441    4.3512    2.5014   C.3       1 RES1   0.0000
    10 C8       -5.9329    4.8026    3.6559   C.3       1 RES1   0.0000
    11 C9       -1.8928    2.5673    1.1473   C.2       1 RES1   0.0000
    12 O1       -0.9393    1.8341    1.5054   O.2       1 RES1   0.0000
    13 C10      -2.8554    1.9550    0.1575   C.ar      1 RES1   0.0000
    14 C11      -4.1093    2.4578   -0.2280   C.ar      1 RES1   0.0000
    15 C12      -4.8926    1.7384   -1.0944   C.ar      1 RES1   0.0000
    16 C13      -4.4695    0.4803   -1.5415   C.ar      1 RES1   0.0000
    17 C14      -5.2726   -0.3358   -2.3882   C.ar      1 RES1   0.0000
    18 C15      -4.8803   -1.5873   -2.7216   C.ar      1 RES1   0.0000
    19 C16      -3.6763   -2.1245   -2.1859   C.ar      1 RES1   0.0000
    20 C17      -3.2409   -3.4276   -2.4627   C.ar      1 RES1   0.0000
    21 C18      -2.1147   -3.9252   -1.8543   C.ar      1 RES1   0.0000
    22 C19      -1.4365   -3.1250   -0.9218   C.ar      1 RES1   0.0000
    23 C20      -0.2763   -3.4579   -0.0286   C.2       1 RES1   0.0000
    24 O2        0.3147   -2.4550    0.4405   O.2       1 RES1   0.0000
    25 N2        0.0963   -4.6825    0.3336   N.am      1 RES1   0.0000
    26 C21       1.1921   -4.7783    1.2987   C.3       1 RES1   0.0000
    27 C22       0.8409   -5.4603    2.6259   C.3       1 RES1   0.0000
    28 C23      -0.2396   -4.7593    3.4571   C.3       1 RES1   0.0000
    29 C24      -1.6587   -4.9433    2.9310   C.3       1 RES1   0.0000
    30 C25      -0.4223   -5.9715   -0.0928   C.3       1 RES1   0.0000
    31 C26       0.5444   -6.8014   -0.9577   C.3       1 RES1   0.0000
    32 C27       0.9158   -6.2529   -2.3366   C.3       1 RES1   0.0000
    33 C28       1.8466   -5.0437   -2.3200   C.3       1 RES1   0.0000
    34 N3       -1.7764   -1.8505   -0.7338   N.ar      1 RES1   0.0000
    35 C29      -2.8546   -1.3464   -1.3373   C.ar      1 RES1   0.0000
    36 C30      -3.2285    0.0158   -1.0508   C.ar      1 RES1   0.0000
    37 N4       -2.4380    0.7591   -0.2627   N.ar      1 RES1   0.0000
    38 H1       -3.0634    2.9918    6.7784   H         1 RES1   0.0000
    39 H2       -1.3463    3.3589    6.7591   H         1 RES1   0.0000
    40 H3       -1.9216    1.8046    6.1411   H         1 RES1   0.0000
    41 H4       -2.5177    4.5513    4.9510   H         1 RES1   0.0000
    42 H5       -3.1487    3.0181    4.3278   H         1 RES1   0.0000
    43 H6       -0.8805    2.2575    3.7665   H         1 RES1   0.0000
    44 H7       -0.1795    3.6629    4.5745   H         1 RES1   0.0000
    45 H8       -0.0259    3.9844    2.2376   H         1 RES1   0.0000
    46 H9       -1.1358    5.1815    2.9375   H         1 RES1   0.0000
    47 H10      -3.2639    4.7499    0.2826   H         1 RES1   0.0000
    48 H11      -2.1326    5.7579    1.1632   H         1 RES1   0.0000
    49 H12      -4.3114    6.2905    1.9424   H         1 RES1   0.0000
    50 H13      -3.4275    5.5366    3.2460   H         1 RES1   0.0000
    51 H14      -4.6427    3.3559    2.7184   H         1 RES1   0.0000
    52 H15      -5.6613    4.2902    1.6005   H         1 RES1   0.0000
    53 H16      -5.3683    4.8601    4.5813   H         1 RES1   0.0000
    54 H17      -6.7525    4.1055    3.7979   H         1 RES1   0.0000
    55 H18      -6.3536    5.7809    3.4471   H         1 RES1   0.0000
    56 H19      -4.4941    3.3753    0.1708   H         1 RES1   0.0000
    57 H20      -5.8532    2.1106   -1.4059   H         1 RES1   0.0000
    58 H21      -6.2109    0.0675   -2.7381   H         1 RES1   0.0000
    59 H22      -5.4798   -2.2150   -3.3656   H         1 RES1   0.0000
    60 H23      -3.7945   -4.0296   -3.1628   H         1 RES1   0.0000
    61 H24      -1.7726   -4.9043   -2.1286   H         1 RES1   0.0000
    62 H25       1.5314   -3.7613    1.5011   H         1 RES1   0.0000
    63 H26       2.0094   -5.3266    0.8221   H         1 RES1   0.0000
    64 H27       1.7736   -5.4773    3.1952   H         1 RES1   0.0000
    65 H28       0.5568   -6.5009    2.4679   H         1 RES1   0.0000
    66 H29      -0.0223   -3.6899    3.5148   H         1 RES1   0.0000
    67 H30      -0.1925   -5.1683    4.4688   H         1 RES1   0.0000
    68 H31      -1.7859   -4.4623    1.9650   H         1 RES1   0.0000
    69 H32      -2.3674   -4.4967    3.6221   H         1 RES1   0.0000
    70 H33      -1.9045   -5.9975    2.8433   H         1 RES1   0.0000
    71 H34      -1.3836   -5.8643   -0.5873   H         1 RES1   0.0000
    72 H35      -0.6054   -6.5492    0.8166   H         1 RES1   0.0000
    73 H36       0.0465   -7.7620   -1.0975   H         1 RES1   0.0000
    74 H37       1.4619   -7.0124   -0.4079   H         1 RES1   0.0000
    75 H38       0.0102   -6.0169   -2.8956   H         1 RES1   0.0000
    76 H39       1.4182   -7.0581   -2.8774   H         1 RES1   0.0000
    77 H40       1.3740   -4.1642   -1.8849   H         1 RES1   0.0000
    78 H41       2.1421   -4.8037   -3.3380   H         1 RES1   0.0000
    79 H42       2.7478   -5.2720   -1.7567   H         1 RES1   0.0000
    80 C31       3.0499    2.1842    6.2171   C.3       1 RES1   0.0000
    81 C32       2.7749    0.7267    5.8737   C.3       1 RES1   0.0000
    82 C33       1.4344    0.5467    5.1613   C.3       1 RES1   0.0000
    83 C34       1.1082   -0.9167    4.8466   C.3       1 RES1   0.0000
    84 N5        2.0220   -1.5457    3.8866   N.am      1 RES1   0.0000
    85 C35       2.6253   -2.7836    4.3651   C.3       1 RES1   0.0000
    86 C36       3.7145   -2.6304    5.4342   C.3       1 RES1   0.0000
    87 C37       5.0852   -2.1651    4.9440   C.3       1 RES1   0.0000
    88 C38       6.0681   -2.1014    6.1080   C.3       1 RES1   0.0000
    89 C39       1.9241   -1.0966    2.6366   C.2       1 RES1   0.0000
    90 O3        1.0417   -0.2489    2.3533   O.2       1 RES1   0.0000
    91 C40       2.8439   -1.4908    1.5095   C.ar      1 RES1   0.0000
    92 C41       4.0041   -2.2843    1.5537   C.ar      1 RES1   0.0000
    93 C42       4.6871   -2.5514    0.3909   C.ar      1 RES1   0.0000
    94 C43       4.2789   -1.9636   -0.8146   C.ar      1 RES1   0.0000
    95 C44       4.9736   -2.1220   -2.0482   C.ar      1 RES1   0.0000
    96 C45       4.6573   -1.3654   -3.1300   C.ar      1 RES1   0.0000
    97 C46       3.6492   -0.3621   -3.0432   C.ar      1 RES1   0.0000
    98 C47       3.3597    0.5488   -4.0689   C.ar      1 RES1   0.0000
    99 C48       2.4336    1.5470   -3.8708   C.ar      1 RES1   0.0000
   100 C49       1.7887    1.6462   -2.6262   C.ar      1 RES1   0.0000
   101 C50       0.7690    2.6359   -2.1347   C.2       1 RES1   0.0000
   102 O4        0.0398    2.2250   -1.1942   O.2       1 RES1   0.0000
   103 N6        0.6321    3.8775   -2.5825   N.am      1 RES1   0.0000
   104 C51      -0.3828    4.7062   -1.9277   C.3       1 RES1   0.0000
   105 C52       0.1226    6.0118   -1.3072   C.3       1 RES1   0.0000
   106 C53       1.1060    5.8587   -0.1422   C.3       1 RES1   0.0000
   107 C54       2.4943    5.3638   -0.5338   C.3       1 RES1   0.0000
   108 C55       1.3679    4.5433   -3.6445   C.3       1 RES1   0.0000
   109 C56       0.5196    4.9204   -4.8718   C.3       1 RES1   0.0000
   110 C57      -0.0194    3.7811   -5.7389   C.3       1 RES1   0.0000
   111 C58      -1.0911    2.9195   -5.0782   C.3       1 RES1   0.0000
   112 N7        1.9905    0.7347   -1.6785   N.ar      1 RES1   0.0000
   113 C59       2.8959   -0.2279   -1.8577   C.ar      1 RES1   0.0000
   114 C60       3.1836   -1.0787   -0.7360   C.ar      1 RES1   0.0000
   115 N8        2.4736   -0.8952    0.3791   N.ar      1 RES1   0.0000
   116 H43       4.0129    2.2683    6.7100   H         1 RES1   0.0000
   117 H44       2.2905    2.5679    6.8910   H         1 RES1   0.0000
   118 H45       3.0696    2.7987    5.3210   H         1 RES1   0.0000
   119 H46       2.7647    0.1458    6.7994   H         1 RES1   0.0000
   120 H47       3.5817    0.3557    5.2371   H         1 RES1   0.0000
   121 H48       1.4180    1.1353    4.2425   H         1 RES1   0.0000
   122 H49       0.6332    0.9136    5.8073   H         1 RES1   0.0000
   123 H50       0.0968   -0.9672    4.4276   H         1 RES1   0.0000
   124 H51       1.1393   -1.4941    5.7689   H         1 RES1   0.0000
   125 H52       2.9898   -3.3783    3.5315   H         1 RES1   0.0000
   126 H53       1.8089   -3.3459    4.8301   H         1 RES1   0.0000
   127 H54       3.8329   -3.6104    5.8994   H         1 RES1   0.0000
   128 H55       3.3767   -1.9536    6.2174   H         1 RES1   0.0000
   129 H56       5.0058   -1.1781    4.4772   H         1 RES1   0.0000
   130 H57       5.4741   -2.8738    4.2064   H         1 RES1   0.0000
   131 H58       5.7304   -1.3934    6.8584   H         1 RES1   0.0000
   132 H59       7.0490   -1.7947    5.7602   H         1 RES1   0.0000
   133 H60       6.1651   -3.0773    6.5741   H         1 RES1   0.0000
   134 H61       4.3997   -2.6493    2.4820   H         1 RES1   0.0000
   135 H62       5.5665   -3.1713    0.4025   H         1 RES1   0.0000
   136 H63       5.7875   -2.8290   -2.0882   H         1 RES1   0.0000
   137 H64       5.1952   -1.4698   -4.0603   H         1 RES1   0.0000
   138 H65       3.8677    0.4583   -5.0130   H         1 RES1   0.0000
   139 H66       2.2162    2.2091   -4.6871   H         1 RES1   0.0000
   140 H67      -0.8366    4.0943   -1.1465   H         1 RES1   0.0000
   141 H68      -1.1536    4.9406   -2.6676   H         1 RES1   0.0000
   142 H69      -0.7753    6.5153   -0.9402   H         1 RES1   0.0000
   143 H70       0.5573    6.6601   -2.0673   H         1 RES1   0.0000
   144 H71       0.6818    5.1801    0.6015   H         1 RES1   0.0000
   145 H72       1.2108    6.8399    0.3255   H         1 RES1   0.0000
   146 H73       2.4588    4.3499   -0.9230   H         1 RES1   0.0000
   147 H74       3.1423    5.3616    0.3376   H         1 RES1   0.0000
   148 H75       2.9457    6.0184   -1.2740   H         1 RES1   0.0000
   149 H76       2.2353    3.9585   -3.9388   H         1 RES1   0.0000
   150 H77       1.7501    5.4756   -3.2215   H         1 RES1   0.0000
   151 H78       1.1692    5.5384   -5.4934   H         1 RES1   0.0000
   152 H79      -0.3122    5.5575   -4.5711   H         1 RES1   0.0000
   153 H80       0.8049    3.1513   -6.0744   H         1 RES1   0.0000
   154 H81      -0.4507    4.2360   -6.6330   H         1 RES1   0.0000
   155 H82      -0.6924    2.3591   -4.2339   H         1 RES1   0.0000
   156 H83      -1.4847    2.2166   -5.8077   H         1 RES1   0.0000
   157 H84      -1.9145    3.5403   -4.7344   H         1 RES1   0.0000
   158 O5       -0.6031   -0.0835   -2.7002   O.3       1 RES1   0.0000
   159 H85      -1.3134    0.5070   -2.9860   H         1 RES1   0.0000
   160 H86      -0.6324   -0.8473   -3.2880   H         1 RES1   0.0000
@<TRIPOS>BOND
     1     1    12    1
     2     1    24    1
     3     1    34    1
     4     1    37    1
     5     1    90    1
     6     1   102    1
     7     1   112    1
     8     1   115    1
     9     1   158    1
    10     2     3    1
    11     2    38    1
    12     2    39    1
    13     2    40    1
    14     3     4    1
    15     3    41    1
    16     3    42    1
    17     4     5    1
    18     4    43    1
    19     4    44    1
    20     5     6    1
    21     5    45    1
    22     5    46    1
    23     6     7    1
    24     6    11    1
    25     7     8    1
    26     7    47    1
    27     7    48    1
    28     8     9    1
    29     8    49    1
    30     8    50    1
    31     9    10    1
    32     9    51    1
    33     9    52    1
    34    10    53    1
    35    10    54    1
    36    10    55    1
    37    11    12    2
    38    11    13    1
    39    13    14    1
    40    13    37    2
    41    14    15    2
    42    14    56    1
    43    15    16    1
    44    15    57    1
    45    16    17    1
    46    16    36    2
    47    17    18    2
    48    17    58    1
    49    18    19    1
    50    18    59    1
    51    19    20    1
    52    19    35    2
    53    20    21    2
    54    20    60    1
    55    21    22    1
    56    21    61    1
    57    22    23    1
    58    22    34    2
    59    23    24    2
    60    23    25    1
    61    25    26    1
    62    25    30    1
    63    26    27    1
    64    26    62    1
    65    26    63    1
    66    27    28    1
    67    27    64    1
    68    27    65    1
    69    28    29    1
    70    28    66    1
    71    28    67    1
    72    29    68    1
    73    29    69    1
    74    29    70    1
    75    30    31    1
    76    30    71    1
    77    30    72    1
    78    31    32    1
    79    31    73    1
    80    31    74    1
    81    32    33    1
    82    32    75    1
    83    32    76    1
    84    33    77    1
    85    33    78    1
    86    33    79    1
    87    34    35    1
    88    35    36    1
    89    36    37    1
    90    80    81    1
    91    80   116    1
    92    80   117    1
    93    80   118    1
    94    81    82    1
    95    81   119    1
    96    81   120    1
    97    82    83    1
    98    82   121    1
    99    82   122    1
   100    83    84    1
   101    83   123    1
   102    83   124    1
   103    84    85    1
   104    84    89    1
   105    85    86    1
   106    85   125    1
   107    85   126    1
   108    86    87    1
   109    86   127    1
   110    86   128    1
   111    87    88    1
   112    87   129    1
   113    87   130    1
   114    88   131    1
   115    88   132    1
   116    88   133    1
   117    89    90    2
   118    89    91    1
   119    91    92    1
   120    91   115    2
   121    92    93    2
   122    92   134    1
   123    93    94    1
   124    93   135    1
   125    94    95    1
   126    94   114    2
   127    95    96    2
   128    95   136    1
   129    96    97    1
   130    96   137    1
   131    97    98    1
   132    97   113    2
   133    98    99    2
   134    98   138    1
   135    99   100    1
   136    99   139    1
   137   100   101    1
   138   100   112    2
   139   101   102    2
   140   101   103    1
   141   103   104    1
   142   103   108    1
   143   104   105    1
   144   104   140    1
   145   104   141    1
   146   105   106    1
   147   105   142    1
   148   105   143    1
   149   106   107    1
   150   106   144    1
   151   106   145    1
   152   107   146    1
   153   107   147    1
   154   107   148    1
   155   108   109    1
   156   108   149    1
   157   108   150    1
   158   109   110    1
   159   109   151    1
   160   109   152    1
   161   110   111    1
   162   110   153    1
   163   110   154    1
   164   111   155    1
   165   111   156    1
   166   111   157    1
   167   112   113    1
   168   113   114    1
   169   114   115    1
   170   158   159    1
   171   158   160    1
@<TRIPOS>SUBSTRUCTURE
     1 RES1      160 GROUP             0 ****  ****    0  
