@<TRIPOS>MOLECULE
am_c3_9H2O_c0_0_nunpairedes_0_charge_3 Charge: 3 Unpaired_Electrons: 0 XTB_Unpaired_Electrons: 0 XTB_Charge: 3
   214   219     1     0     0
SMALL
NoCharges
****
Generated from Architector

@<TRIPOS>ATOM
     1 La1       0.1624    0.0029   -0.0529   La        1 RES1   0.0000
     2 C1        1.2058   -0.0646    5.2112   C.3       1 RES1   0.0000
     3 C2        0.6799   -1.4158    4.7353   C.3       1 RES1   0.0000
     4 C3       -0.2363   -2.0940    5.7647   C.3       1 RES1   0.0000
     5 C4       -1.7277   -1.8780    5.4899   C.3       1 RES1   0.0000
     6 C5       -2.0937   -0.3968    5.4032   C.3       1 RES1   0.0000
     7 C6       -3.5996   -0.1458    5.3500   C.3       1 RES1   0.0000
     8 C7       -3.9541    1.3445    5.3088   C.3       1 RES1   0.0000
     9 C8       -3.9044    1.9828    3.9137   C.3       1 RES1   0.0000
    10 N1       -2.5711    2.0353    3.3204   N.am      1 RES1   0.0000
    11 C9       -1.6421    2.9187    4.0033   C.3       1 RES1   0.0000
    12 C10      -2.1771    1.3667    2.2478   C.2       1 RES1   0.0000
    13 O1       -0.9924    1.3442    1.8408   O.2       1 RES1   0.0000
    14 C11      -3.2142    0.5987    1.4230   C.3       1 RES1   0.0000
    15 O2       -2.7336    0.3807    0.1045   O.3       1 RES1   0.0000
    16 C12      -3.1159    1.3862   -0.8316   C.3       1 RES1   0.0000
    17 C13      -1.9202    2.1497   -1.3996   C.2       1 RES1   0.0000
    18 O3       -0.7697    1.6947   -1.2494   O.2       1 RES1   0.0000
    19 N2       -2.1687    3.2711   -2.0541   N.am      1 RES1   0.0000
    20 C14      -3.5081    3.7341   -2.3378   C.3       1 RES1   0.0000
    21 C15      -1.0568    4.0970   -2.5096   C.3       1 RES1   0.0000
    22 C16      -0.4407    4.8916   -1.3515   C.3       1 RES1   0.0000
    23 C17      -1.4633    5.5099   -0.3951   C.3       1 RES1   0.0000
    24 C18      -2.2207    6.7064   -0.9750   C.3       1 RES1   0.0000
    25 C19      -3.4185    7.1284   -0.1180   C.3       1 RES1   0.0000
    26 C20      -3.1119    7.4699    1.3450   C.3       1 RES1   0.0000
    27 C21      -2.5566    8.8754    1.5900   C.3       1 RES1   0.0000
    28 C22      -1.1026    9.0753    1.1777   C.3       1 RES1   0.0000
    29 H1        1.6615    0.4601    4.3786   H         1 RES1   0.0000
    30 H2        0.4065    0.5563    5.6007   H         1 RES1   0.0000
    31 H3        1.9415   -0.1983    5.9993   H         1 RES1   0.0000
    32 H4        0.1388   -1.2617    3.7943   H         1 RES1   0.0000
    33 H5        1.5381   -2.0583    4.5228   H         1 RES1   0.0000
    34 H6       -0.0468   -3.1689    5.7882   H         1 RES1   0.0000
    35 H7        0.0017   -1.7081    6.7569   H         1 RES1   0.0000
    36 H8       -2.0042   -2.3792    4.5567   H         1 RES1   0.0000
    37 H9       -2.2978   -2.3469    6.2932   H         1 RES1   0.0000
    38 H10      -1.6977    0.1035    6.2889   H         1 RES1   0.0000
    39 H11      -1.6145    0.0303    4.5213   H         1 RES1   0.0000
    40 H12      -4.0442   -0.6599    4.4941   H         1 RES1   0.0000
    41 H13      -4.0449   -0.5783    6.2462   H         1 RES1   0.0000
    42 H14      -4.9762    1.4701    5.6678   H         1 RES1   0.0000
    43 H15      -3.3116    1.8933    5.9951   H         1 RES1   0.0000
    44 H16      -4.5859    1.4255    3.2763   H         1 RES1   0.0000
    45 H17      -4.2689    3.0117    3.9850   H         1 RES1   0.0000
    46 H18      -2.0670    3.9228    4.0380   H         1 RES1   0.0000
    47 H19      -1.4586    2.5846    5.0227   H         1 RES1   0.0000
    48 H20      -0.7007    2.9351    3.4602   H         1 RES1   0.0000
    49 H21      -3.3512   -0.3885    1.8727   H         1 RES1   0.0000
    50 H22      -4.1812    1.1130    1.4007   H         1 RES1   0.0000
    51 H23      -3.6346    0.8932   -1.6677   H         1 RES1   0.0000
    52 H24      -3.8060    2.0856   -0.3501   H         1 RES1   0.0000
    53 H25      -4.0040    3.0584   -3.0339   H         1 RES1   0.0000
    54 H26      -4.1146    3.8338   -1.4370   H         1 RES1   0.0000
    55 H27      -3.4498    4.7135   -2.7990   H         1 RES1   0.0000
    56 H28      -0.2968    3.4458   -2.9438   H         1 RES1   0.0000
    57 H29      -1.4274    4.7577   -3.2898   H         1 RES1   0.0000
    58 H30       0.2062    4.2203   -0.7854   H         1 RES1   0.0000
    59 H31       0.1719    5.6897   -1.7680   H         1 RES1   0.0000
    60 H32      -2.1743    4.7483   -0.0596   H         1 RES1   0.0000
    61 H33      -0.9178    5.8502    0.4859   H         1 RES1   0.0000
    62 H34      -1.5308    7.5398   -1.0793   H         1 RES1   0.0000
    63 H35      -2.5890    6.4737   -1.9753   H         1 RES1   0.0000
    64 H36      -3.8935    7.9953   -0.5800   H         1 RES1   0.0000
    65 H37      -4.1528    6.3160   -0.1384   H         1 RES1   0.0000
    66 H38      -4.0493    7.3914    1.9006   H         1 RES1   0.0000
    67 H39      -2.4269    6.7302    1.7664   H         1 RES1   0.0000
    68 H40      -3.1815    9.6023    1.0710   H         1 RES1   0.0000
    69 H41      -2.6426    9.0824    2.6582   H         1 RES1   0.0000
    70 H42      -1.0023    9.1806    0.1023   H         1 RES1   0.0000
    71 H43      -0.7126    9.9821    1.6296   H         1 RES1   0.0000
    72 H44      -0.4825    8.2447    1.5104   H         1 RES1   0.0000
    73 C23       1.5475    8.1152   -1.4656   C.3       1 RES1   0.0000
    74 C24       2.6378    7.2085   -0.9116   C.3       1 RES1   0.0000
    75 C25       2.6128    7.1674    0.6154   C.3       1 RES1   0.0000
    76 C26       3.7417    6.3062    1.1791   C.3       1 RES1   0.0000
    77 C27       3.7116    6.2404    2.7058   C.3       1 RES1   0.0000
    78 C28       4.8139    5.3592    3.2989   C.3       1 RES1   0.0000
    79 C29       4.7354    3.8756    2.9226   C.3       1 RES1   0.0000
    80 C30       3.5269    3.1697    3.5480   C.3       1 RES1   0.0000
    81 N3        3.2625    1.8611    2.9643   N.am      1 RES1   0.0000
    82 C31       4.0849    0.7718    3.4545   C.3       1 RES1   0.0000
    83 C32       2.3557    1.6461    2.0263   C.2       1 RES1   0.0000
    84 O4        2.0084    0.5070    1.6382   O.2       1 RES1   0.0000
    85 C33       1.7437    2.8406    1.2877   C.3       1 RES1   0.0000
    86 O5        1.5875    2.4345   -0.0645   O.3       1 RES1   0.0000
    87 C34       2.8120    2.4633   -0.7936   C.3       1 RES1   0.0000
    88 C35       2.6406    1.5039   -1.9759   C.2       1 RES1   0.0000
    89 O6        1.7865    0.5958   -1.8876   O.2       1 RES1   0.0000
    90 N4        3.3817    1.7080   -3.0532   N.am      1 RES1   0.0000
    91 C36       4.5227    2.5969   -3.1305   C.3       1 RES1   0.0000
    92 C37       3.0324    1.0844   -4.3287   C.3       1 RES1   0.0000
    93 C38       3.9545   -0.0591   -4.7545   C.3       1 RES1   0.0000
    94 C39       3.5549   -1.3992   -4.1316   C.3       1 RES1   0.0000
    95 C40       2.7294   -2.2716   -5.0785   C.3       1 RES1   0.0000
    96 C41       1.3843   -1.6818   -5.5041   C.3       1 RES1   0.0000
    97 C42       0.3528   -1.6033   -4.3764   C.3       1 RES1   0.0000
    98 C43      -0.8652   -0.7559   -4.7540   C.3       1 RES1   0.0000
    99 C44      -1.7096   -1.3878   -5.8558   C.3       1 RES1   0.0000
   100 H45       1.5358    8.0838   -2.5516   H         1 RES1   0.0000
   101 H46       1.7154    9.1414   -1.1536   H         1 RES1   0.0000
   102 H47       0.5746    7.8076   -1.0926   H         1 RES1   0.0000
   103 H48       3.6115    7.5712   -1.2433   H         1 RES1   0.0000
   104 H49       2.5132    6.1921   -1.3036   H         1 RES1   0.0000
   105 H50       1.6476    6.7765    0.9559   H         1 RES1   0.0000
   106 H51       2.7076    8.1832    1.0002   H         1 RES1   0.0000
   107 H52       4.6993    6.7189    0.8574   H         1 RES1   0.0000
   108 H53       3.6600    5.3019    0.7474   H         1 RES1   0.0000
   109 H54       2.7255    5.9062    3.0408   H         1 RES1   0.0000
   110 H55       3.8423    7.2543    3.0869   H         1 RES1   0.0000
   111 H56       4.7878    5.4493    4.3843   H         1 RES1   0.0000
   112 H57       5.7754    5.7462    2.9589   H         1 RES1   0.0000
   113 H58       5.6462    3.3866    3.2650   H         1 RES1   0.0000
   114 H59       4.6970    3.7777    1.8377   H         1 RES1   0.0000
   115 H60       2.6341    3.7882    3.4643   H         1 RES1   0.0000
   116 H61       3.7183    3.0151    4.6108   H         1 RES1   0.0000
   117 H62       4.0488    0.7291    4.5405   H         1 RES1   0.0000
   118 H63       5.1159    0.9399    3.1427   H         1 RES1   0.0000
   119 H64       3.7221   -0.1653    3.0402   H         1 RES1   0.0000
   120 H65       2.3412    3.7549    1.3536   H         1 RES1   0.0000
   121 H66       0.7303    3.0291    1.6546   H         1 RES1   0.0000
   122 H67       3.6530    2.1286   -0.1697   H         1 RES1   0.0000
   123 H68       2.9945    3.4885   -1.1449   H         1 RES1   0.0000
   124 H69       4.8843    2.9131   -2.1582   H         1 RES1   0.0000
   125 H70       4.2850    3.4770   -3.7317   H         1 RES1   0.0000
   126 H71       5.3357    2.0625   -3.6243   H         1 RES1   0.0000
   127 H72       3.0669    1.8815   -5.0759   H         1 RES1   0.0000
   128 H73       2.0113    0.7183   -4.2337   H         1 RES1   0.0000
   129 H74       4.9854    0.1843   -4.4970   H         1 RES1   0.0000
   130 H75       3.9149   -0.1463   -5.8403   H         1 RES1   0.0000
   131 H76       3.0040   -1.2112   -3.2102   H         1 RES1   0.0000
   132 H77       4.4533   -1.9586   -3.8717   H         1 RES1   0.0000
   133 H78       2.5600   -3.2383   -4.6063   H         1 RES1   0.0000
   134 H79       3.3209   -2.4544   -5.9772   H         1 RES1   0.0000
   135 H80       0.9770   -2.3079   -6.2995   H         1 RES1   0.0000
   136 H81       1.5400   -0.6898   -5.9297   H         1 RES1   0.0000
   137 H82       0.7966   -1.1802   -3.4676   H         1 RES1   0.0000
   138 H83       0.0206   -2.6156   -4.1317   H         1 RES1   0.0000
   139 H84      -0.5283    0.2289   -5.0867   H         1 RES1   0.0000
   140 H85      -1.4696   -0.6043   -3.8542   H         1 RES1   0.0000
   141 H86      -1.1749   -1.3813   -6.7998   H         1 RES1   0.0000
   142 H87      -2.6372   -0.8393   -5.9938   H         1 RES1   0.0000
   143 H88      -1.9573   -2.4195   -5.6188   H         1 RES1   0.0000
   144 C45      -6.0867    1.2401   -3.7831   C.3       1 RES1   0.0000
   145 C46      -6.4349    1.8693   -2.4375   C.3       1 RES1   0.0000
   146 C47      -7.5964    1.1850   -1.7094   C.3       1 RES1   0.0000
   147 C48      -7.1445    0.1452   -0.6835   C.3       1 RES1   0.0000
   148 C49      -6.3428   -0.9994   -1.3078   C.3       1 RES1   0.0000
   149 C50      -6.3649   -2.2626   -0.4532   C.3       1 RES1   0.0000
   150 C51      -5.8354   -3.4997   -1.1855   C.3       1 RES1   0.0000
   151 C52      -4.3686   -3.8622   -0.9314   C.3       1 RES1   0.0000
   152 N5       -3.3890   -2.8995   -1.4318   N.am      1 RES1   0.0000
   153 C53      -3.4295   -2.6275   -2.8604   C.3       1 RES1   0.0000
   154 C54      -2.3708   -2.3998   -0.7386   C.2       1 RES1   0.0000
   155 O7       -1.5254   -1.6238   -1.2240   O.2       1 RES1   0.0000
   156 C55      -2.2257   -2.8346    0.7292   C.3       1 RES1   0.0000
   157 O8       -1.0328   -2.3093    1.2984   O.3       1 RES1   0.0000
   158 C56      -0.0498   -3.2862    1.6397   C.3       1 RES1   0.0000
   159 C57       1.2173   -3.0525    0.8137   C.2       1 RES1   0.0000
   160 O9        1.3204   -1.9866    0.1690   O.2       1 RES1   0.0000
   161 N6        2.1517   -3.9824    0.8104   N.am      1 RES1   0.0000
   162 C58       2.1192   -5.2037    1.5877   C.3       1 RES1   0.0000
   163 C59       3.3169   -3.8275   -0.0598   C.3       1 RES1   0.0000
   164 C60       2.9401   -3.6107   -1.5285   C.3       1 RES1   0.0000
   165 C61       1.8786   -4.5758   -2.0592   C.3       1 RES1   0.0000
   166 C62       2.4392   -5.9316   -2.4818   C.3       1 RES1   0.0000
   167 C63       1.3354   -6.9007   -2.9112   C.3       1 RES1   0.0000
   168 C64       0.5279   -6.4895   -4.1498   C.3       1 RES1   0.0000
   169 C65       1.1890   -6.8262   -5.4922   C.3       1 RES1   0.0000
   170 C66       2.1189   -5.7451   -6.0292   C.3       1 RES1   0.0000
   171 H89      -5.2966    1.7977   -4.2887   H         1 RES1   0.0000
   172 H90      -5.7495    0.2131   -3.6697   H         1 RES1   0.0000
   173 H91      -6.9658    1.2390   -4.4227   H         1 RES1   0.0000
   174 H92      -6.6897    2.9110   -2.6220   H         1 RES1   0.0000
   175 H93      -5.5691    1.8499   -1.7756   H         1 RES1   0.0000
   176 H94      -8.1633    1.9412   -1.1687   H         1 RES1   0.0000
   177 H95      -8.2597    0.7281   -2.4419   H         1 RES1   0.0000
   178 H96      -6.5412    0.6465    0.0812   H         1 RES1   0.0000
   179 H97      -8.0283   -0.2415   -0.1712   H         1 RES1   0.0000
   180 H98      -6.7759   -1.2317   -2.2813   H         1 RES1   0.0000
   181 H99      -5.3127   -0.6705   -1.4641   H         1 RES1   0.0000
   182 H100     -5.8203   -2.0921    0.4772   H         1 RES1   0.0000
   183 H101     -7.4036   -2.4503   -0.1863   H         1 RES1   0.0000
   184 H102     -6.4092   -4.3684   -0.8631   H         1 RES1   0.0000
   185 H103     -6.0178   -3.3795   -2.2510   H         1 RES1   0.0000
   186 H104     -4.2436   -4.0014    0.1393   H         1 RES1   0.0000
   187 H105     -4.1666   -4.8194   -1.4261   H         1 RES1   0.0000
   188 H106     -4.1771   -3.2574   -3.3328   H         1 RES1   0.0000
   189 H107     -3.6695   -1.5812   -3.0497   H         1 RES1   0.0000
   190 H108     -2.4539   -2.8406   -3.2957   H         1 RES1   0.0000
   191 H109     -3.0688   -2.4562    1.3202   H         1 RES1   0.0000
   192 H110     -2.2379   -3.9294    0.7828   H         1 RES1   0.0000
   193 H111      0.1749   -3.1605    2.7070   H         1 RES1   0.0000
   194 H112     -0.4259   -4.3015    1.4752   H         1 RES1   0.0000
   195 H113      1.4171   -5.1478    2.4127   H         1 RES1   0.0000
   196 H114      1.8685   -6.0581    0.9550   H         1 RES1   0.0000
   197 H115      3.1113   -5.3739    2.0052   H         1 RES1   0.0000
   198 H116      3.8948   -2.9676    0.2918   H         1 RES1   0.0000
   199 H117      3.9200   -4.7276    0.0410   H         1 RES1   0.0000
   200 H118      2.5763   -2.5893   -1.6468   H         1 RES1   0.0000
   201 H119      3.8492   -3.7214   -2.1209   H         1 RES1   0.0000
   202 H120      1.0913   -4.7212   -1.3137   H         1 RES1   0.0000
   203 H121      1.4093   -4.1061   -2.9224   H         1 RES1   0.0000
   204 H122      3.1459   -5.7884   -3.2973   H         1 RES1   0.0000
   205 H123      2.9886   -6.3763   -1.6489   H         1 RES1   0.0000
   206 H124      1.7778   -7.8796   -3.1004   H         1 RES1   0.0000
   207 H125      0.6467   -7.0181   -2.0683   H         1 RES1   0.0000
   208 H126     -0.4251   -7.0206   -4.1043   H         1 RES1   0.0000
   209 H127      0.2964   -5.4224   -4.1187   H         1 RES1   0.0000
   210 H128      1.7386   -7.7627   -5.3961   H         1 RES1   0.0000
   211 H129      0.4035   -6.9895   -6.2321   H         1 RES1   0.0000
   212 H130      2.9790   -5.5942   -5.3833   H         1 RES1   0.0000
   213 H131      2.4882   -6.0301   -7.0100   H         1 RES1   0.0000
   214 H132      1.5907   -4.7999   -6.1330   H         1 RES1   0.0000
@<TRIPOS>BOND
     1     1    13    1
     2     1    15    1
     3     1    18    1
     4     1    84    1
     5     1    86    1
     6     1    89    1
     7     1   155    1
     8     1   157    1
     9     1   160    1
    10     2     3    1
    11     2    29    1
    12     2    30    1
    13     2    31    1
    14     3     4    1
    15     3    32    1
    16     3    33    1
    17     4     5    1
    18     4    34    1
    19     4    35    1
    20     5     6    1
    21     5    36    1
    22     5    37    1
    23     6     7    1
    24     6    38    1
    25     6    39    1
    26     7     8    1
    27     7    40    1
    28     7    41    1
    29     8     9    1
    30     8    42    1
    31     8    43    1
    32     9    10    1
    33     9    44    1
    34     9    45    1
    35    10    11    1
    36    10    12    1
    37    11    46    1
    38    11    47    1
    39    11    48    1
    40    12    13    2
    41    12    14    1
    42    14    15    1
    43    14    49    1
    44    14    50    1
    45    15    16    1
    46    16    17    1
    47    16    51    1
    48    16    52    1
    49    17    18    2
    50    17    19    1
    51    19    20    1
    52    19    21    1
    53    20    53    1
    54    20    54    1
    55    20    55    1
    56    21    22    1
    57    21    56    1
    58    21    57    1
    59    22    23    1
    60    22    58    1
    61    22    59    1
    62    23    24    1
    63    23    60    1
    64    23    61    1
    65    24    25    1
    66    24    62    1
    67    24    63    1
    68    25    26    1
    69    25    64    1
    70    25    65    1
    71    26    27    1
    72    26    66    1
    73    26    67    1
    74    27    28    1
    75    27    68    1
    76    27    69    1
    77    28    70    1
    78    28    71    1
    79    28    72    1
    80    73    74    1
    81    73   100    1
    82    73   101    1
    83    73   102    1
    84    74    75    1
    85    74   103    1
    86    74   104    1
    87    75    76    1
    88    75   105    1
    89    75   106    1
    90    76    77    1
    91    76   107    1
    92    76   108    1
    93    77    78    1
    94    77   109    1
    95    77   110    1
    96    78    79    1
    97    78   111    1
    98    78   112    1
    99    79    80    1
   100    79   113    1
   101    79   114    1
   102    80    81    1
   103    80   115    1
   104    80   116    1
   105    81    82    1
   106    81    83    1
   107    82   117    1
   108    82   118    1
   109    82   119    1
   110    83    84    2
   111    83    85    1
   112    85    86    1
   113    85   120    1
   114    85   121    1
   115    86    87    1
   116    87    88    1
   117    87   122    1
   118    87   123    1
   119    88    89    2
   120    88    90    1
   121    90    91    1
   122    90    92    1
   123    91   124    1
   124    91   125    1
   125    91   126    1
   126    92    93    1
   127    92   127    1
   128    92   128    1
   129    93    94    1
   130    93   129    1
   131    93   130    1
   132    94    95    1
   133    94   131    1
   134    94   132    1
   135    95    96    1
   136    95   133    1
   137    95   134    1
   138    96    97    1
   139    96   135    1
   140    96   136    1
   141    97    98    1
   142    97   137    1
   143    97   138    1
   144    98    99    1
   145    98   139    1
   146    98   140    1
   147    99   141    1
   148    99   142    1
   149    99   143    1
   150   144   145    1
   151   144   171    1
   152   144   172    1
   153   144   173    1
   154   145   146    1
   155   145   174    1
   156   145   175    1
   157   146   147    1
   158   146   176    1
   159   146   177    1
   160   147   148    1
   161   147   178    1
   162   147   179    1
   163   148   149    1
   164   148   180    1
   165   148   181    1
   166   149   150    1
   167   149   182    1
   168   149   183    1
   169   150   151    1
   170   150   184    1
   171   150   185    1
   172   151   152    1
   173   151   186    1
   174   151   187    1
   175   152   153    1
   176   152   154    1
   177   153   188    1
   178   153   189    1
   179   153   190    1
   180   154   155    2
   181   154   156    1
   182   156   157    1
   183   156   191    1
   184   156   192    1
   185   157   158    1
   186   158   159    1
   187   158   193    1
   188   158   194    1
   189   159   160    2
   190   159   161    1
   191   161   162    1
   192   161   163    1
   193   162   195    1
   194   162   196    1
   195   162   197    1
   196   163   164    1
   197   163   198    1
   198   163   199    1
   199   164   165    1
   200   164   200    1
   201   164   201    1
   202   165   166    1
   203   165   202    1
   204   165   203    1
   205   166   167    1
   206   166   204    1
   207   166   205    1
   208   167   168    1
   209   167   206    1
   210   167   207    1
   211   168   169    1
   212   168   208    1
   213   168   209    1
   214   169   170    1
   215   169   210    1
   216   169   211    1
   217   170   212    1
   218   170   213    1
   219   170   214    1
@<TRIPOS>SUBSTRUCTURE
     1 RES1      214 GROUP             0 ****  ****    0  
