@<TRIPOS>MOLECULE
capped_square_antiprismatic_0_nunpairedes_0_charge_3 Charge: 3 Unpaired_Electrons: 0 XTB_Unpaired_Electrons: 0 XTB_Charge: 3
   340   345     1     0     0
SMALL
NoCharges
****
Generated from Architector

@<TRIPOS>ATOM
     1 La1      -0.1518   -0.0074   -0.2320   La        1 RES1   0.0000
     2 C1        5.7691    1.4616    5.9211   C.3       1 RES1   0.0000
     3 C2        5.4815    0.6361    7.1699   C.3       1 RES1   0.0000
     4 C3        4.3264    1.2040    7.9960   C.3       1 RES1   0.0000
     5 C4        2.9553    0.9236    7.3838   C.3       1 RES1   0.0000
     6 C5        1.8095    1.5695    8.1652   C.3       1 RES1   0.0000
     7 C6        1.8338    3.1005    8.1899   C.3       1 RES1   0.0000
     8 C7        1.8501    3.7172    6.7892   C.3       1 RES1   0.0000
     9 C8        1.3477    5.1600    6.7727   C.3       1 RES1   0.0000
    10 C9        1.1125    5.7237    5.3654   C.3       1 RES1   0.0000
    11 C10       2.3831    5.8969    4.5215   C.3       1 RES1   0.0000
    12 C11       2.7456    4.6906    3.6428   C.3       1 RES1   0.0000
    13 C12       1.9628    4.7111    2.3243   C.3       1 RES1   0.0000
    14 N1        2.1078    3.4699    1.5683   N.am      1 RES1   0.0000
    15 C13       3.4625    3.0035    1.2713   C.3       1 RES1   0.0000
    16 C14       4.0074    1.9666    2.2679   C.3       1 RES1   0.0000
    17 C15       4.8846    0.9133    1.5793   C.3       1 RES1   0.0000
    18 C16       5.7858    0.2105    2.5967   C.3       1 RES1   0.0000
    19 C17       6.5033   -1.0388    2.0814   C.3       1 RES1   0.0000
    20 C18       5.6507   -2.3036    1.9120   C.3       1 RES1   0.0000
    21 C19       4.6772   -2.5535    3.0625   C.3       1 RES1   0.0000
    22 C20       3.8252   -3.8077    2.8556   C.3       1 RES1   0.0000
    23 C21       2.5696   -3.8430    3.7403   C.3       1 RES1   0.0000
    24 C22       1.6845   -2.5984    3.5855   C.3       1 RES1   0.0000
    25 C23       0.2999   -2.6899    4.2540   C.3       1 RES1   0.0000
    26 C24       0.1712   -1.7782    5.4750   C.3       1 RES1   0.0000
    27 C25       1.1137    2.7375    1.0927   C.2       1 RES1   0.0000
    28 O1        1.3198    1.6557    0.4982   O.2       1 RES1   0.0000
    29 C26      -0.3418    3.1966    1.2602   C.3       1 RES1   0.0000
    30 O2       -1.2043    2.2346    0.6451   O.3       1 RES1   0.0000
    31 C27      -2.1765    2.8052   -0.2425   C.3       1 RES1   0.0000
    32 C28      -3.1511    1.6829   -0.6083   C.3       1 RES1   0.0000
    33 O3       -2.4498    0.5938   -1.2217   O.3       1 RES1   0.0000
    34 C29      -2.5866    0.4279   -2.6323   C.3       1 RES1   0.0000
    35 C30      -1.5795   -0.6521   -3.0368   C.2       1 RES1   0.0000
    36 O4       -0.8214   -1.0967   -2.1455   O.2       1 RES1   0.0000
    37 N2       -1.4818   -1.1030   -4.2822   N.am      1 RES1   0.0000
    38 C31      -2.4184   -0.8306   -5.3794   C.3       1 RES1   0.0000
    39 C32      -2.4237    0.5632   -6.0381   C.3       1 RES1   0.0000
    40 C33      -1.4253    0.7609   -7.1825   C.3       1 RES1   0.0000
    41 C34      -1.7909    1.9743   -8.0448   C.3       1 RES1   0.0000
    42 C35      -1.7085    3.3378   -7.3275   C.3       1 RES1   0.0000
    43 C36      -3.0720    4.0269   -7.2363   C.3       1 RES1   0.0000
    44 C37      -3.0022    5.5112   -6.8796   C.3       1 RES1   0.0000
    45 C38      -2.4550    5.8434   -5.4894   C.3       1 RES1   0.0000
    46 C39      -3.1054    5.0784   -4.3338   C.3       1 RES1   0.0000
    47 C40      -4.6239    5.2517   -4.2802   C.3       1 RES1   0.0000
    48 C41      -5.2855    4.4209   -3.1791   C.3       1 RES1   0.0000
    49 C42      -5.2763    2.9266   -3.4886   C.3       1 RES1   0.0000
    50 C43      -0.3981   -2.0720   -4.5015   C.3       1 RES1   0.0000
    51 C44      -0.6257   -3.4547   -3.8713   C.3       1 RES1   0.0000
    52 C45      -1.7283   -4.2666   -4.5463   C.3       1 RES1   0.0000
    53 C46      -1.9649   -5.6471   -3.9196   C.3       1 RES1   0.0000
    54 C47      -2.3149   -5.6670   -2.4242   C.3       1 RES1   0.0000
    55 C48      -3.2348   -4.5458   -1.9322   C.3       1 RES1   0.0000
    56 C49      -4.5347   -4.3555   -2.7196   C.3       1 RES1   0.0000
    57 C50      -5.0163   -2.9108   -2.6055   C.3       1 RES1   0.0000
    58 C51      -6.2152   -2.6023   -3.4928   C.3       1 RES1   0.0000
    59 C52      -6.6403   -1.1399   -3.3889   C.3       1 RES1   0.0000
    60 C53      -7.9009   -0.8346   -4.1992   C.3       1 RES1   0.0000
    61 C54      -9.1609   -1.4492   -3.6013   C.3       1 RES1   0.0000
    62 H1        6.6231    1.0521    5.3873   H         1 RES1   0.0000
    63 H2        5.9970    2.4888    6.1963   H         1 RES1   0.0000
    64 H3        4.9115    1.4688    5.2509   H         1 RES1   0.0000
    65 H4        6.3803    0.6234    7.7872   H         1 RES1   0.0000
    66 H5        5.2606   -0.3970    6.8893   H         1 RES1   0.0000
    67 H6        4.4752    2.2790    8.1024   H         1 RES1   0.0000
    68 H7        4.3509    0.7667    8.9952   H         1 RES1   0.0000
    69 H8        2.8001   -0.1599    7.3612   H         1 RES1   0.0000
    70 H9        2.9252    1.2760    6.3498   H         1 RES1   0.0000
    71 H10       1.8258    1.2033    9.1925   H         1 RES1   0.0000
    72 H11       0.8650    1.2380    7.7224   H         1 RES1   0.0000
    73 H12       2.6948    3.4529    8.7558   H         1 RES1   0.0000
    74 H13       0.9438    3.4361    8.7260   H         1 RES1   0.0000
    75 H14       1.2049    3.1214    6.1390   H         1 RES1   0.0000
    76 H15       2.8650    3.6810    6.3911   H         1 RES1   0.0000
    77 H16       2.0528    5.8029    7.3010   H         1 RES1   0.0000
    78 H17       0.3965    5.2077    7.3087   H         1 RES1   0.0000
    79 H18       0.6434    6.7040    5.4770   H         1 RES1   0.0000
    80 H19       0.4006    5.0804    4.8385   H         1 RES1   0.0000
    81 H20       3.2172    6.1001    5.1913   H         1 RES1   0.0000
    82 H21       2.2759    6.7740    3.8792   H         1 RES1   0.0000
    83 H22       2.5360    3.7635    4.1740   H         1 RES1   0.0000
    84 H23       3.8146    4.7279    3.4328   H         1 RES1   0.0000
    85 H24       2.3162    5.5529    1.7173   H         1 RES1   0.0000
    86 H25       0.9086    4.8802    2.5351   H         1 RES1   0.0000
    87 H26       4.1148    3.8746    1.2427   H         1 RES1   0.0000
    88 H27       3.4323    2.5570    0.2735   H         1 RES1   0.0000
    89 H28       3.1782    1.4607    2.7694   H         1 RES1   0.0000
    90 H29       4.5982    2.4656    3.0356   H         1 RES1   0.0000
    91 H30       5.5177    1.3913    0.8301   H         1 RES1   0.0000
    92 H31       4.2384    0.1997    1.0621   H         1 RES1   0.0000
    93 H32       5.2045   -0.0382    3.4825   H         1 RES1   0.0000
    94 H33       6.5532    0.9195    2.9127   H         1 RES1   0.0000
    95 H34       7.3000   -1.2633    2.7897   H         1 RES1   0.0000
    96 H35       6.9744   -0.8047    1.1237   H         1 RES1   0.0000
    97 H36       6.3308   -3.1505    1.8269   H         1 RES1   0.0000
    98 H37       5.0969   -2.2460    0.9715   H         1 RES1   0.0000
    99 H38       4.0222   -1.6868    3.1369   H         1 RES1   0.0000
   100 H39       5.2302   -2.6434    3.9976   H         1 RES1   0.0000
   101 H40       4.4239   -4.6947    3.0695   H         1 RES1   0.0000
   102 H41       3.5365   -3.8775    1.8008   H         1 RES1   0.0000
   103 H42       2.8752   -3.9474    4.7820   H         1 RES1   0.0000
   104 H43       1.9957   -4.7351    3.4740   H         1 RES1   0.0000
   105 H44       1.5595   -2.4040    2.5159   H         1 RES1   0.0000
   106 H45       2.2158   -1.7517    4.0236   H         1 RES1   0.0000
   107 H46       0.1027   -3.7199    4.5537   H         1 RES1   0.0000
   108 H47      -0.4810   -2.4173    3.5342   H         1 RES1   0.0000
   109 H48       0.6719   -2.2025    6.3408   H         1 RES1   0.0000
   110 H49      -0.8747   -1.6407    5.7354   H         1 RES1   0.0000
   111 H50       0.6104   -0.7978    5.2893   H         1 RES1   0.0000
   112 H51      -0.4918    4.1708    0.7871   H         1 RES1   0.0000
   113 H52      -0.5882    3.2731    2.3291   H         1 RES1   0.0000
   114 H53      -1.6808    3.2019   -1.1411   H         1 RES1   0.0000
   115 H54      -2.7297    3.6075    0.2680   H         1 RES1   0.0000
   116 H55      -3.9684    2.0556   -1.2290   H         1 RES1   0.0000
   117 H56      -3.5826    1.2779    0.3166   H         1 RES1   0.0000
   118 H57      -2.3429    1.3694   -3.1406   H         1 RES1   0.0000
   119 H58      -3.6109    0.1225   -2.9037   H         1 RES1   0.0000
   120 H59      -3.4241   -1.0294   -5.0032   H         1 RES1   0.0000
   121 H60      -2.2085   -1.5617   -6.1629   H         1 RES1   0.0000
   122 H61      -2.2907    1.3465   -5.2937   H         1 RES1   0.0000
   123 H62      -3.4228    0.6849   -6.4627   H         1 RES1   0.0000
   124 H63      -1.4370   -0.1252   -7.8259   H         1 RES1   0.0000
   125 H64      -0.4164    0.8938   -6.7967   H         1 RES1   0.0000
   126 H65      -2.8004    1.8241   -8.4336   H         1 RES1   0.0000
   127 H66      -1.1243    1.9756   -8.9081   H         1 RES1   0.0000
   128 H67      -1.0313    3.9928   -7.8786   H         1 RES1   0.0000
   129 H68      -1.2785    3.2037   -6.3306   H         1 RES1   0.0000
   130 H69      -3.7087    3.4988   -6.5237   H         1 RES1   0.0000
   131 H70      -3.5508    3.9564   -8.2138   H         1 RES1   0.0000
   132 H71      -4.0031    5.9294   -6.9829   H         1 RES1   0.0000
   133 H72      -2.3753    6.0193   -7.6139   H         1 RES1   0.0000
   134 H73      -2.5984    6.9128   -5.3231   H         1 RES1   0.0000
   135 H74      -1.3779    5.6558   -5.4713   H         1 RES1   0.0000
   136 H75      -2.6789    5.4465   -3.3936   H         1 RES1   0.0000
   137 H76      -2.8503    4.0170   -4.4156   H         1 RES1   0.0000
   138 H77      -5.0673    4.9724   -5.2360   H         1 RES1   0.0000
   139 H78      -4.8470    6.3069   -4.1157   H         1 RES1   0.0000
   140 H79      -6.3210    4.7446   -3.0781   H         1 RES1   0.0000
   141 H80      -4.7871    4.6094   -2.2227   H         1 RES1   0.0000
   142 H81      -5.7549    2.7397   -4.4465   H         1 RES1   0.0000
   143 H82      -5.8231    2.3718   -2.7278   H         1 RES1   0.0000
   144 H83      -4.2563    2.5497   -3.5449   H         1 RES1   0.0000
   145 H84       0.5120   -1.6481   -4.0601   H         1 RES1   0.0000
   146 H85      -0.2550   -2.1787   -5.5747   H         1 RES1   0.0000
   147 H86      -0.8547   -3.3231   -2.8146   H         1 RES1   0.0000
   148 H87       0.3098   -4.0110   -3.9414   H         1 RES1   0.0000
   149 H88      -1.4679   -4.4338   -5.5940   H         1 RES1   0.0000
   150 H89      -2.6540   -3.6942   -4.5227   H         1 RES1   0.0000
   151 H90      -1.0782   -6.2702   -4.0594   H         1 RES1   0.0000
   152 H91      -2.7685   -6.1290   -4.4799   H         1 RES1   0.0000
   153 H92      -1.3902   -5.6267   -1.8356   H         1 RES1   0.0000
   154 H93      -2.7806   -6.6298   -2.2087   H         1 RES1   0.0000
   155 H94      -2.6815   -3.6016   -1.9325   H         1 RES1   0.0000
   156 H95      -3.4853   -4.7518   -0.8901   H         1 RES1   0.0000
   157 H96      -5.2988   -5.0354   -2.3453   H         1 RES1   0.0000
   158 H97      -4.3912   -4.5987   -3.7697   H         1 RES1   0.0000
   159 H98      -4.1861   -2.2442   -2.8680   H         1 RES1   0.0000
   160 H99      -5.2863   -2.6995   -1.5697   H         1 RES1   0.0000
   161 H100     -7.0413   -3.2423   -3.1919   H         1 RES1   0.0000
   162 H101     -5.9835   -2.8296   -4.5345   H         1 RES1   0.0000
   163 H102     -5.8245   -0.5002   -3.7474   H         1 RES1   0.0000
   164 H103     -6.8175   -0.8829   -2.3418   H         1 RES1   0.0000
   165 H104     -7.7668   -1.1994   -5.2186   H         1 RES1   0.0000
   166 H105     -8.0311    0.2481   -4.2507   H         1 RES1   0.0000
   167 H106     -9.1536   -2.5327   -3.6794   H         1 RES1   0.0000
   168 H107    -10.0391   -1.0850   -4.1265   H         1 RES1   0.0000
   169 H108     -9.2602   -1.1783   -2.5524   H         1 RES1   0.0000
   170 C55      -6.4002   -1.6799    5.9678   C.3       1 RES1   0.0000
   171 C56      -6.0133   -0.8719    7.2017   C.3       1 RES1   0.0000
   172 C57      -4.9040   -1.5359    8.0196   C.3       1 RES1   0.0000
   173 C58      -3.5135   -1.3710    7.4090   C.3       1 RES1   0.0000
   174 C59      -2.4508   -2.1843    8.1508   C.3       1 RES1   0.0000
   175 C60      -2.5584   -3.7050    7.9896   C.3       1 RES1   0.0000
   176 C61      -2.6351   -4.1678    6.5328   C.3       1 RES1   0.0000
   177 C62      -2.2985   -5.6488    6.3671   C.3       1 RES1   0.0000
   178 C63      -2.0685   -6.0794    4.9135   C.3       1 RES1   0.0000
   179 C64      -3.3133   -6.0136    4.0205   C.3       1 RES1   0.0000
   180 C65      -3.5010   -4.6911    3.2674   C.3       1 RES1   0.0000
   181 C66      -2.6725   -4.6608    1.9793   C.3       1 RES1   0.0000
   182 N3       -2.6876   -3.3359    1.3743   N.am      1 RES1   0.0000
   183 C67      -3.9765   -2.7047    1.0953   C.3       1 RES1   0.0000
   184 C68      -4.5812   -1.7875    2.1602   C.3       1 RES1   0.0000
   185 C69      -5.7023   -0.9692    1.5037   C.3       1 RES1   0.0000
   186 C70      -6.6826   -0.3468    2.5061   C.3       1 RES1   0.0000
   187 C71      -7.2556    0.9893    2.0299   C.3       1 RES1   0.0000
   188 C72      -6.2354    2.1267    1.9243   C.3       1 RES1   0.0000
   189 C73      -5.3923    2.2882    3.1854   C.3       1 RES1   0.0000
   190 C74      -4.3443    3.3875    3.0544   C.3       1 RES1   0.0000
   191 C75      -3.3654    3.3992    4.2296   C.3       1 RES1   0.0000
   192 C76      -2.6218    2.0725    4.4144   C.3       1 RES1   0.0000
   193 C77      -1.4249    2.1832    5.3611   C.3       1 RES1   0.0000
   194 C78      -1.8218    2.6645    6.7531   C.3       1 RES1   0.0000
   195 C79      -1.6143   -2.6897    0.9517   C.2       1 RES1   0.0000
   196 O5       -1.6598   -1.4783    0.6474   O.2       1 RES1   0.0000
   197 C80      -0.3177   -3.4565    0.6963   C.3       1 RES1   0.0000
   198 O6        0.6374   -2.4975    0.2610   O.3       1 RES1   0.0000
   199 C81       1.7036   -3.0611   -0.4991   C.3       1 RES1   0.0000
   200 C82       2.7761   -1.9753   -0.5713   C.3       1 RES1   0.0000
   201 O7        2.1803   -0.7654   -1.0399   O.3       1 RES1   0.0000
   202 C83       2.7597   -0.2416   -2.2236   C.3       1 RES1   0.0000
   203 C84       1.7413    0.7079   -2.8409   C.2       1 RES1   0.0000
   204 O8        0.7182    1.0167   -2.1877   O.2       1 RES1   0.0000
   205 N4        1.9406    1.1526   -4.0722   N.am      1 RES1   0.0000
   206 C85       3.0822    0.7665   -4.9002   C.3       1 RES1   0.0000
   207 C86       2.9391   -0.5402   -5.7033   C.3       1 RES1   0.0000
   208 C87       1.9104   -0.4778   -6.8321   C.3       1 RES1   0.0000
   209 C88       2.0617   -1.5483   -7.9228   C.3       1 RES1   0.0000
   210 C89       1.7297   -3.0010   -7.5338   C.3       1 RES1   0.0000
   211 C90       2.9641   -3.8794   -7.3301   C.3       1 RES1   0.0000
   212 C91       2.6547   -5.3753   -7.2146   C.3       1 RES1   0.0000
   213 C92       1.9501   -5.8323   -5.9336   C.3       1 RES1   0.0000
   214 C93       2.5686   -5.3132   -4.6336   C.3       1 RES1   0.0000
   215 C94       4.0524   -5.6473   -4.4780   C.3       1 RES1   0.0000
   216 C95       4.6962   -4.9342   -3.2873   C.3       1 RES1   0.0000
   217 C96       4.7716   -3.4211   -3.4761   C.3       1 RES1   0.0000
   218 C97       0.9210    2.0538   -4.6159   C.3       1 RES1   0.0000
   219 C98       0.7813    3.3788   -3.8450   C.3       1 RES1   0.0000
   220 C99       1.6912    4.4769   -4.3892   C.3       1 RES1   0.0000
   221 C100      1.4673    5.8512   -3.7468   C.3       1 RES1   0.0000
   222 C101      1.6612    5.9868   -2.2262   C.3       1 RES1   0.0000
   223 C102      2.7449    5.1314   -1.5552   C.3       1 RES1   0.0000
   224 C103      4.1268    5.1099   -2.2287   C.3       1 RES1   0.0000
   225 C104      4.6992    3.6915   -2.2345   C.3       1 RES1   0.0000
   226 C105      5.9228    3.5074   -3.1259   C.3       1 RES1   0.0000
   227 C106      6.3804    2.0501   -3.1170   C.3       1 RES1   0.0000
   228 C107      7.5390    1.7592   -4.0714   C.3       1 RES1   0.0000
   229 C108      8.8804    2.2436   -3.5376   C.3       1 RES1   0.0000
   230 H109     -7.2460   -1.2192    5.4627   H         1 RES1   0.0000
   231 H110     -6.6839   -2.6887    6.2583   H         1 RES1   0.0000
   232 H111     -5.5718   -1.7467    5.2639   H         1 RES1   0.0000
   233 H112     -6.8960   -0.7686    7.8338   H         1 RES1   0.0000
   234 H113     -5.6996    0.1327    6.9055   H         1 RES1   0.0000
   235 H114     -5.1385   -2.5953    8.1266   H         1 RES1   0.0000
   236 H115     -4.8872   -1.0994    9.0196   H         1 RES1   0.0000
   237 H116     -3.2387   -0.3121    7.4536   H         1 RES1   0.0000
   238 H117     -3.5248   -1.6567    6.3544   H         1 RES1   0.0000
   239 H118     -2.5062   -1.9442    9.2136   H         1 RES1   0.0000
   240 H119     -1.4642   -1.8637    7.8093   H         1 RES1   0.0000
   241 H120     -3.4251   -4.0804    8.5314   H         1 RES1   0.0000
   242 H121     -1.6729   -4.1396    8.4576   H         1 RES1   0.0000
   243 H122     -1.9204   -3.5911    5.9438   H         1 RES1   0.0000
   244 H123     -3.6375   -3.9818    6.1446   H         1 RES1   0.0000
   245 H124     -3.0914   -6.2609    6.7983   H         1 RES1   0.0000
   246 H125     -1.3831   -5.8653    6.9224   H         1 RES1   0.0000
   247 H126     -1.7176   -7.1133    4.9250   H         1 RES1   0.0000
   248 H127     -1.2691   -5.4702    4.4803   H         1 RES1   0.0000
   249 H128     -4.1932   -6.1912    4.6376   H         1 RES1   0.0000
   250 H129     -3.2768   -6.8209    3.2860   H         1 RES1   0.0000
   251 H130     -3.2033   -3.8526    3.8971   H         1 RES1   0.0000
   252 H131     -4.5567   -4.5870    3.0219   H         1 RES1   0.0000
   253 H132     -3.0585   -5.4053    1.2739   H         1 RES1   0.0000
   254 H133     -1.6444   -4.9272    2.2209   H         1 RES1   0.0000
   255 H134     -4.6859   -3.5013    0.8717   H         1 RES1   0.0000
   256 H135     -3.8175   -2.1070    0.1909   H         1 RES1   0.0000
   257 H136     -3.8127   -1.1198    2.5574   H         1 RES1   0.0000
   258 H137     -4.9892   -2.3651    2.9885   H         1 RES1   0.0000
   259 H138     -6.2658   -1.6115    0.8238   H         1 RES1   0.0000
   260 H139     -5.2389   -0.1902    0.8959   H         1 RES1   0.0000
   261 H140     -6.2008   -0.2047    3.4711   H         1 RES1   0.0000
   262 H141     -7.5123   -1.0357    2.6674   H         1 RES1   0.0000
   263 H142     -8.0312    1.2911    2.7325   H         1 RES1   0.0000
   264 H143     -7.7281    0.8461    1.0561   H         1 RES1   0.0000
   265 H144     -6.7790    3.0501    1.7208   H         1 RES1   0.0000
   266 H145     -5.5723    1.9570    1.0716   H         1 RES1   0.0000
   267 H146     -4.8790    1.3492    3.3846   H         1 RES1   0.0000
   268 H147     -6.0442    2.5064    4.0303   H         1 RES1   0.0000
   269 H148     -4.8397    4.3573    2.9982   H         1 RES1   0.0000
   270 H149     -3.7964    3.2444    2.1173   H         1 RES1   0.0000
   271 H150     -3.9220    3.6227    5.1390   H         1 RES1   0.0000
   272 H151     -2.6401    4.2038    4.0780   H         1 RES1   0.0000
   273 H152     -2.2867    1.7059    3.4325   H         1 RES1   0.0000
   274 H153     -3.3058    1.3294    4.8258   H         1 RES1   0.0000
   275 H154     -0.6813    2.8670    4.9396   H         1 RES1   0.0000
   276 H155     -0.9554    1.1978    5.4536   H         1 RES1   0.0000
   277 H156     -2.1254    3.7076    6.7379   H         1 RES1   0.0000
   278 H157     -0.9882    2.5623    7.4418   H         1 RES1   0.0000
   279 H158     -2.6458    2.0697    7.1397   H         1 RES1   0.0000
   280 H159     -0.5399   -4.1958   -0.0879   H         1 RES1   0.0000
   281 H160      0.0756   -3.9829    1.5759   H         1 RES1   0.0000
   282 H161      1.3512   -3.3379   -1.5037   H         1 RES1   0.0000
   283 H162      2.1064   -3.9502    0.0006   H         1 RES1   0.0000
   284 H163      3.5916   -2.3011   -1.2191   H         1 RES1   0.0000
   285 H164      3.1645   -1.7829    0.4365   H         1 RES1   0.0000
   286 H165      2.9908   -1.0444   -2.9304   H         1 RES1   0.0000
   287 H166      3.6914    0.2946   -1.9834   H         1 RES1   0.0000
   288 H167      3.9657    0.6830   -4.2609   H         1 RES1   0.0000
   289 H168      3.2637    1.5739   -5.6119   H         1 RES1   0.0000
   290 H169      2.7110   -1.3777   -5.0418   H         1 RES1   0.0000
   291 H170      3.9211   -0.7212   -6.1440   H         1 RES1   0.0000
   292 H171      2.0054    0.4903   -7.3317   H         1 RES1   0.0000
   293 H172      0.9085   -0.5466   -6.4100   H         1 RES1   0.0000
   294 H173      3.0761   -1.5043   -8.3224   H         1 RES1   0.0000
   295 H174      1.3936   -1.2458   -8.7323   H         1 RES1   0.0000
   296 H175      1.1324   -3.4432   -8.3330   H         1 RES1   0.0000
   297 H176      1.1147   -3.0183   -6.6329   H         1 RES1   0.0000
   298 H177      3.5143   -3.5435   -6.4507   H         1 RES1   0.0000
   299 H178      3.6163   -3.7529   -8.1957   H         1 RES1   0.0000
   300 H179      3.5945   -5.9180   -7.3106   H         1 RES1   0.0000
   301 H180      2.0350   -5.6762   -8.0609   H         1 RES1   0.0000
   302 H181      1.9635   -6.9238   -5.9182   H         1 RES1   0.0000
   303 H182      0.9013   -5.5261   -5.9642   H         1 RES1   0.0000
   304 H183      2.0246   -5.7537   -3.7906   H         1 RES1   0.0000
   305 H184      2.4291   -4.2296   -4.5876   H         1 RES1   0.0000
   306 H185      4.5970   -5.3714   -5.3806   H         1 RES1   0.0000
   307 H186      4.1598   -6.7256   -4.3509   H         1 RES1   0.0000
   308 H187      5.7093   -5.3161   -3.1667   H         1 RES1   0.0000
   309 H188      4.1426   -5.1651   -2.3718   H         1 RES1   0.0000
   310 H189      5.2364   -3.1817   -4.4295   H         1 RES1   0.0000
   311 H190      5.3684   -2.9655   -2.6875   H         1 RES1   0.0000
   312 H191      3.7720   -2.9852   -3.4659   H         1 RES1   0.0000
   313 H192     -0.0296    1.5111   -4.5847   H         1 RES1   0.0000
   314 H193      1.1756    2.2640   -5.6543   H         1 RES1   0.0000
   315 H194      0.9990    3.2029   -2.7929   H         1 RES1   0.0000
   316 H195     -0.2572    3.7101   -3.9079   H         1 RES1   0.0000
   317 H196      1.4946    4.5989   -5.4580   H         1 RES1   0.0000
   318 H197      2.7321    4.1792   -4.2693   H         1 RES1   0.0000
   319 H198      0.4485    6.1797   -3.9695   H         1 RES1   0.0000
   320 H199      2.1340    6.5528   -4.2498   H         1 RES1   0.0000
   321 H200      0.7153    5.7556   -1.7239   H         1 RES1   0.0000
   322 H201      1.8653    7.0407   -2.0243   H         1 RES1   0.0000
   323 H202      2.3729    4.1055   -1.4647   H         1 RES1   0.0000
   324 H203      2.8469    5.5080   -0.5346   H         1 RES1   0.0000
   325 H204      4.8127    5.7759   -1.7061   H         1 RES1   0.0000
   326 H205      4.0599    5.4864   -3.2463   H         1 RES1   0.0000
   327 H206      3.9194    2.9944   -2.5647   H         1 RES1   0.0000
   328 H207      4.9698    3.4133   -1.2140   H         1 RES1   0.0000
   329 H208      6.7261    4.1497   -2.7709   H         1 RES1   0.0000
   330 H209      5.6876    3.7987   -4.1513   H         1 RES1   0.0000
   331 H210      5.5292    1.4194   -3.3956   H         1 RES1   0.0000
   332 H211      6.6705    1.7642   -2.1034   H         1 RES1   0.0000
   333 H212      7.3329    2.2253   -5.0356   H         1 RES1   0.0000
   334 H213      7.5951    0.6804   -4.2359   H         1 RES1   0.0000
   335 H214      8.9136    3.3270   -3.4733   H         1 RES1   0.0000
   336 H215      9.6860    1.9249   -4.1927   H         1 RES1   0.0000
   337 H216      9.0649    1.8302   -2.5482   H         1 RES1   0.0000
   338 O9       -0.0863    0.0530    2.3932   O.3       1 RES1   0.0000
   339 H217     -0.7599    0.2843    3.0580   H         1 RES1   0.0000
   340 H218      0.5881   -0.4381    2.8824   H         1 RES1   0.0000
@<TRIPOS>BOND
     1     1    28    1
     2     1    30    1
     3     1    33    1
     4     1    36    1
     5     1   196    1
     6     1   198    1
     7     1   201    1
     8     1   204    1
     9     1   338    1
    10     2     3    1
    11     2    62    1
    12     2    63    1
    13     2    64    1
    14     3     4    1
    15     3    65    1
    16     3    66    1
    17     4     5    1
    18     4    67    1
    19     4    68    1
    20     5     6    1
    21     5    69    1
    22     5    70    1
    23     6     7    1
    24     6    71    1
    25     6    72    1
    26     7     8    1
    27     7    73    1
    28     7    74    1
    29     8     9    1
    30     8    75    1
    31     8    76    1
    32     9    10    1
    33     9    77    1
    34     9    78    1
    35    10    11    1
    36    10    79    1
    37    10    80    1
    38    11    12    1
    39    11    81    1
    40    11    82    1
    41    12    13    1
    42    12    83    1
    43    12    84    1
    44    13    14    1
    45    13    85    1
    46    13    86    1
    47    14    15    1
    48    14    27    1
    49    15    16    1
    50    15    87    1
    51    15    88    1
    52    16    17    1
    53    16    89    1
    54    16    90    1
    55    17    18    1
    56    17    91    1
    57    17    92    1
    58    18    19    1
    59    18    93    1
    60    18    94    1
    61    19    20    1
    62    19    95    1
    63    19    96    1
    64    20    21    1
    65    20    97    1
    66    20    98    1
    67    21    22    1
    68    21    99    1
    69    21   100    1
    70    22    23    1
    71    22   101    1
    72    22   102    1
    73    23    24    1
    74    23   103    1
    75    23   104    1
    76    24    25    1
    77    24   105    1
    78    24   106    1
    79    25    26    1
    80    25   107    1
    81    25   108    1
    82    26   109    1
    83    26   110    1
    84    26   111    1
    85    27    28    2
    86    27    29    1
    87    29    30    1
    88    29   112    1
    89    29   113    1
    90    30    31    1
    91    31    32    1
    92    31   114    1
    93    31   115    1
    94    32    33    1
    95    32   116    1
    96    32   117    1
    97    33    34    1
    98    34    35    1
    99    34   118    1
   100    34   119    1
   101    35    36    2
   102    35    37    1
   103    37    38    1
   104    37    50    1
   105    38    39    1
   106    38   120    1
   107    38   121    1
   108    39    40    1
   109    39   122    1
   110    39   123    1
   111    40    41    1
   112    40   124    1
   113    40   125    1
   114    41    42    1
   115    41   126    1
   116    41   127    1
   117    42    43    1
   118    42   128    1
   119    42   129    1
   120    43    44    1
   121    43   130    1
   122    43   131    1
   123    44    45    1
   124    44   132    1
   125    44   133    1
   126    45    46    1
   127    45   134    1
   128    45   135    1
   129    46    47    1
   130    46   136    1
   131    46   137    1
   132    47    48    1
   133    47   138    1
   134    47   139    1
   135    48    49    1
   136    48   140    1
   137    48   141    1
   138    49   142    1
   139    49   143    1
   140    49   144    1
   141    50    51    1
   142    50   145    1
   143    50   146    1
   144    51    52    1
   145    51   147    1
   146    51   148    1
   147    52    53    1
   148    52   149    1
   149    52   150    1
   150    53    54    1
   151    53   151    1
   152    53   152    1
   153    54    55    1
   154    54   153    1
   155    54   154    1
   156    55    56    1
   157    55   155    1
   158    55   156    1
   159    56    57    1
   160    56   157    1
   161    56   158    1
   162    57    58    1
   163    57   159    1
   164    57   160    1
   165    58    59    1
   166    58   161    1
   167    58   162    1
   168    59    60    1
   169    59   163    1
   170    59   164    1
   171    60    61    1
   172    60   165    1
   173    60   166    1
   174    61   167    1
   175    61   168    1
   176    61   169    1
   177   170   171    1
   178   170   230    1
   179   170   231    1
   180   170   232    1
   181   171   172    1
   182   171   233    1
   183   171   234    1
   184   172   173    1
   185   172   235    1
   186   172   236    1
   187   173   174    1
   188   173   237    1
   189   173   238    1
   190   174   175    1
   191   174   239    1
   192   174   240    1
   193   175   176    1
   194   175   241    1
   195   175   242    1
   196   176   177    1
   197   176   243    1
   198   176   244    1
   199   177   178    1
   200   177   245    1
   201   177   246    1
   202   178   179    1
   203   178   247    1
   204   178   248    1
   205   179   180    1
   206   179   249    1
   207   179   250    1
   208   180   181    1
   209   180   251    1
   210   180   252    1
   211   181   182    1
   212   181   253    1
   213   181   254    1
   214   182   183    1
   215   182   195    1
   216   183   184    1
   217   183   255    1
   218   183   256    1
   219   184   185    1
   220   184   257    1
   221   184   258    1
   222   185   186    1
   223   185   259    1
   224   185   260    1
   225   186   187    1
   226   186   261    1
   227   186   262    1
   228   187   188    1
   229   187   263    1
   230   187   264    1
   231   188   189    1
   232   188   265    1
   233   188   266    1
   234   189   190    1
   235   189   267    1
   236   189   268    1
   237   190   191    1
   238   190   269    1
   239   190   270    1
   240   191   192    1
   241   191   271    1
   242   191   272    1
   243   192   193    1
   244   192   273    1
   245   192   274    1
   246   193   194    1
   247   193   275    1
   248   193   276    1
   249   194   277    1
   250   194   278    1
   251   194   279    1
   252   195   196    2
   253   195   197    1
   254   197   198    1
   255   197   280    1
   256   197   281    1
   257   198   199    1
   258   199   200    1
   259   199   282    1
   260   199   283    1
   261   200   201    1
   262   200   284    1
   263   200   285    1
   264   201   202    1
   265   202   203    1
   266   202   286    1
   267   202   287    1
   268   203   204    2
   269   203   205    1
   270   205   206    1
   271   205   218    1
   272   206   207    1
   273   206   288    1
   274   206   289    1
   275   207   208    1
   276   207   290    1
   277   207   291    1
   278   208   209    1
   279   208   292    1
   280   208   293    1
   281   209   210    1
   282   209   294    1
   283   209   295    1
   284   210   211    1
   285   210   296    1
   286   210   297    1
   287   211   212    1
   288   211   298    1
   289   211   299    1
   290   212   213    1
   291   212   300    1
   292   212   301    1
   293   213   214    1
   294   213   302    1
   295   213   303    1
   296   214   215    1
   297   214   304    1
   298   214   305    1
   299   215   216    1
   300   215   306    1
   301   215   307    1
   302   216   217    1
   303   216   308    1
   304   216   309    1
   305   217   310    1
   306   217   311    1
   307   217   312    1
   308   218   219    1
   309   218   313    1
   310   218   314    1
   311   219   220    1
   312   219   315    1
   313   219   316    1
   314   220   221    1
   315   220   317    1
   316   220   318    1
   317   221   222    1
   318   221   319    1
   319   221   320    1
   320   222   223    1
   321   222   321    1
   322   222   322    1
   323   223   224    1
   324   223   323    1
   325   223   324    1
   326   224   225    1
   327   224   325    1
   328   224   326    1
   329   225   226    1
   330   225   327    1
   331   225   328    1
   332   226   227    1
   333   226   329    1
   334   226   330    1
   335   227   228    1
   336   227   331    1
   337   227   332    1
   338   228   229    1
   339   228   333    1
   340   228   334    1
   341   229   335    1
   342   229   336    1
   343   229   337    1
   344   338   339    1
   345   338   340    1
@<TRIPOS>SUBSTRUCTURE
     1 RES1      340 GROUP             0 ****  ****    0  
