@<TRIPOS>MOLECULE
am_c3_9H2O_c0_0_nunpairedes_0_charge_3 Charge: 3 Unpaired_Electrons: 0 XTB_Unpaired_Electrons: 0 XTB_Charge: 3
   124   137     1     0     0
SMALL
NoCharges
****
Generated from Architector

@<TRIPOS>ATOM
     1 La1      -0.0655    0.1003   -0.1559   La        1 RES1   0.0000
     2 C1        0.8488    4.2647    3.1977   C.3       1 RES1   0.0000
     3 C2        1.5909    3.0454    3.7251   C.3       1 RES1   0.0000
     4 N1        0.6795    1.9702    4.1239   N.am      1 RES1   0.0000
     5 C3        0.1193    1.2560    3.1491   C.2       1 RES1   0.0000
     6 O1        0.3817    1.5169    1.9520   O.2       1 RES1   0.0000
     7 C4       -0.8511    0.1423    3.3939   C.ar      1 RES1   0.0000
     8 C5       -1.5493   -0.0192    4.5877   C.ar      1 RES1   0.0000
     9 C6       -2.4252   -1.0899    4.7117   C.ar      1 RES1   0.0000
    10 C7       -2.6188   -1.9084    3.6156   C.ar      1 RES1   0.0000
    11 C8       -1.9433   -1.6423    2.4231   C.ar      1 RES1   0.0000
    12 C9       -2.2832   -2.4053    1.2045   C.ar      1 RES1   0.0000
    13 C10      -3.0755   -3.5558    1.2631   C.ar      1 RES1   0.0000
    14 C11      -3.4339   -4.1934    0.0889   C.ar      1 RES1   0.0000
    15 C12      -3.0528   -3.6331   -1.1215   C.ar      1 RES1   0.0000
    16 C13      -2.3281   -2.4417   -1.1099   C.ar      1 RES1   0.0000
    17 C14      -1.9889   -1.6023   -2.3176   C.2       1 RES1   0.0000
    18 O2       -1.4447   -0.4998   -2.1092   O.2       1 RES1   0.0000
    19 N2       -2.2570   -2.0400   -3.5584   N.am      1 RES1   0.0000
    20 C15      -1.6624   -1.3003   -4.6784   C.3       1 RES1   0.0000
    21 C16      -1.1357   -2.2233   -5.7676   C.3       1 RES1   0.0000
    22 C17      -3.5035   -2.6887   -3.8363   C.ar      1 RES1   0.0000
    23 C18      -4.6434   -2.0650   -3.3296   C.ar      1 RES1   0.0000
    24 C19      -5.8987   -2.5731   -3.5938   C.ar      1 RES1   0.0000
    25 C20      -6.0262   -3.6880   -4.4040   C.ar      1 RES1   0.0000
    26 C21      -4.9006   -4.2962   -4.9338   C.ar      1 RES1   0.0000
    27 C22      -3.6336   -3.8158   -4.6362   C.ar      1 RES1   0.0000
    28 N3       -1.8961   -1.8836    0.0352   N.ar      1 RES1   0.0000
    29 N4       -1.0559   -0.6447    2.3204   N.ar      1 RES1   0.0000
    30 C23       0.6586    1.7274    5.5309   C.ar      1 RES1   0.0000
    31 C24       1.0507    0.4893    6.0291   C.ar      1 RES1   0.0000
    32 C25       1.1157    0.2858    7.3960   C.ar      1 RES1   0.0000
    33 C26       0.8265    1.3289    8.2605   C.ar      1 RES1   0.0000
    34 C27       0.4851    2.5796    7.7687   C.ar      1 RES1   0.0000
    35 C28       0.3898    2.7778    6.4025   C.ar      1 RES1   0.0000
    36 H1        0.1342    4.6356    3.9269   H         1 RES1   0.0000
    37 H2        1.5496    5.0578    2.9571   H         1 RES1   0.0000
    38 H3        0.3011    4.0076    2.3002   H         1 RES1   0.0000
    39 H4        2.1812    3.3015    4.6029   H         1 RES1   0.0000
    40 H5        2.2632    2.6454    2.9614   H         1 RES1   0.0000
    41 H6       -1.4202    0.6695    5.4068   H         1 RES1   0.0000
    42 H7       -2.9553   -1.2731    5.6363   H         1 RES1   0.0000
    43 H8       -3.3145   -2.7253    3.6725   H         1 RES1   0.0000
    44 H9       -3.4090   -3.9624    2.2006   H         1 RES1   0.0000
    45 H10      -4.0361   -5.0907    0.1183   H         1 RES1   0.0000
    46 H11      -3.3348   -4.1067   -2.0493   H         1 RES1   0.0000
    47 H12      -0.8462   -0.7021   -4.2696   H         1 RES1   0.0000
    48 H13      -2.4144   -0.6237   -5.0913   H         1 RES1   0.0000
    49 H14      -0.5197   -1.6485   -6.4539   H         1 RES1   0.0000
    50 H15      -1.9393   -2.6719   -6.3417   H         1 RES1   0.0000
    51 H16      -0.5265   -3.0123   -5.3339   H         1 RES1   0.0000
    52 H17      -4.5237   -1.1672   -2.7389   H         1 RES1   0.0000
    53 H18      -6.7690   -2.0794   -3.1922   H         1 RES1   0.0000
    54 H19      -7.0022   -4.0754   -4.6304   H         1 RES1   0.0000
    55 H20      -5.0076   -5.1424   -5.5933   H         1 RES1   0.0000
    56 H21      -2.7686   -4.3334   -5.0186   H         1 RES1   0.0000
    57 H22       1.3182   -0.2988    5.3391   H         1 RES1   0.0000
    58 H23       1.4411   -0.6722    7.7744   H         1 RES1   0.0000
    59 H24       0.9011    1.1791    9.3209   H         1 RES1   0.0000
    60 H25       0.3310    3.4137    8.4374   H         1 RES1   0.0000
    61 H26       0.1163    3.7509    6.0223   H         1 RES1   0.0000
    62 C29       1.3549    6.5829   -1.0232   C.3       1 RES1   0.0000
    63 C30       0.5354    5.3560   -1.3867   C.3       1 RES1   0.0000
    64 N5        0.0715    4.4758   -0.2956   N.am      1 RES1   0.0000
    65 C31       0.5262    3.1902   -0.3920   C.2       1 RES1   0.0000
    66 O3       -0.2346    2.2541   -0.6899   O.2       1 RES1   0.0000
    67 C32       1.9369    2.8887   -0.0065   C.ar      1 RES1   0.0000
    68 C33       2.8817    3.8172    0.4327   C.ar      1 RES1   0.0000
    69 C34       4.0728    3.3444    0.9674   C.ar      1 RES1   0.0000
    70 C35       4.2797    1.9781    1.1106   C.ar      1 RES1   0.0000
    71 C36       3.2961    1.1149    0.6295   C.ar      1 RES1   0.0000
    72 C37       3.4863   -0.3331    0.3884   C.ar      1 RES1   0.0000
    73 C38       4.5659   -1.1437    0.7242   C.ar      1 RES1   0.0000
    74 C39       4.6960   -2.3380    0.0233   C.ar      1 RES1   0.0000
    75 C40       3.8984   -2.5989   -1.0902   C.ar      1 RES1   0.0000
    76 C41       2.8203   -1.7500   -1.3470   C.ar      1 RES1   0.0000
    77 C42       1.9427   -1.4333   -2.5528   C.2       1 RES1   0.0000
    78 O4        0.9753   -0.6871   -2.3141   O.2       1 RES1   0.0000
    79 N6        2.3282   -1.7101   -3.8071   N.am      1 RES1   0.0000
    80 C43       2.9197   -3.0124   -4.1077   C.3       1 RES1   0.0000
    81 C44       4.3678   -2.9140   -4.5415   C.3       1 RES1   0.0000
    82 C45       2.0699   -0.7810   -4.8732   C.ar      1 RES1   0.0000
    83 C46       2.0575   -1.1987   -6.2035   C.ar      1 RES1   0.0000
    84 C47       1.8424   -0.2985   -7.2353   C.ar      1 RES1   0.0000
    85 C48       1.6133    1.0349   -6.9611   C.ar      1 RES1   0.0000
    86 C49       1.6626    1.4729   -5.6461   C.ar      1 RES1   0.0000
    87 C50       1.9096    0.5834   -4.6136   C.ar      1 RES1   0.0000
    88 N7        2.5769   -0.7517   -0.4932   N.ar      1 RES1   0.0000
    89 N8        2.1697    1.5789    0.0810   N.ar      1 RES1   0.0000
    90 C51      -1.1618    4.7540    0.3496   C.ar      1 RES1   0.0000
    91 C52      -1.6486    6.0590    0.3184   C.ar      1 RES1   0.0000
    92 C53      -2.7501    6.4339    1.0622   C.ar      1 RES1   0.0000
    93 C54      -3.3757    5.5134    1.8812   C.ar      1 RES1   0.0000
    94 C55      -2.9134    4.2052    1.9098   C.ar      1 RES1   0.0000
    95 C56      -1.8294    3.8152    1.1424   C.ar      1 RES1   0.0000
    96 H27       1.3220    7.2677   -1.8648   H         1 RES1   0.0000
    97 H28       2.3987    6.3403   -0.8685   H         1 RES1   0.0000
    98 H29       0.9743    7.0929   -0.1459   H         1 RES1   0.0000
    99 H30       1.0904    4.7247   -2.0839   H         1 RES1   0.0000
   100 H31      -0.3754    5.6720   -1.9005   H         1 RES1   0.0000
   101 H32       2.7098    4.8767    0.3519   H         1 RES1   0.0000
   102 H33       4.8465    4.0423    1.2556   H         1 RES1   0.0000
   103 H34       5.1784    1.5979    1.5683   H         1 RES1   0.0000
   104 H35       5.2920   -0.8766    1.4765   H         1 RES1   0.0000
   105 H36       5.4938   -3.0214    0.2774   H         1 RES1   0.0000
   106 H37       4.1533   -3.4344   -1.7206   H         1 RES1   0.0000
   107 H38       2.3136   -3.4684   -4.8916   H         1 RES1   0.0000
   108 H39       2.8113   -3.6436   -3.2272   H         1 RES1   0.0000
   109 H40       4.4516   -2.2854   -5.4191   H         1 RES1   0.0000
   110 H41       4.7595   -3.8946   -4.7835   H         1 RES1   0.0000
   111 H42       4.9732   -2.4895   -3.7490   H         1 RES1   0.0000
   112 H43       2.2177   -2.2256   -6.4770   H         1 RES1   0.0000
   113 H44       1.8421   -0.6522   -8.2551   H         1 RES1   0.0000
   114 H45       1.3996    1.7253   -7.7583   H         1 RES1   0.0000
   115 H46       1.5028    2.5206   -5.4335   H         1 RES1   0.0000
   116 H47       1.9812    0.9635   -3.6027   H         1 RES1   0.0000
   117 H48      -1.1497    6.8051   -0.2683   H         1 RES1   0.0000
   118 H49      -3.1002    7.4519    0.9958   H         1 RES1   0.0000
   119 H50      -4.2159    5.8076    2.4842   H         1 RES1   0.0000
   120 H51      -3.4056    3.4736    2.5341   H         1 RES1   0.0000
   121 H52      -1.5115    2.7791    1.1745   H         1 RES1   0.0000
   122 O5       -2.7343    0.8786   -0.2061   O.3       1 RES1   0.0000
   123 H53      -3.5753    0.4052   -0.2359   H         1 RES1   0.0000
   124 H54      -2.7278    1.4240   -1.0037   H         1 RES1   0.0000
@<TRIPOS>BOND
     1     1     6    1
     2     1    18    1
     3     1    28    1
     4     1    29    1
     5     1    66    1
     6     1    78    1
     7     1    88    1
     8     1    89    1
     9     1   122    1
    10     2     3    1
    11     2    36    1
    12     2    37    1
    13     2    38    1
    14     3     4    1
    15     3    39    1
    16     3    40    1
    17     4     5    1
    18     4    30    1
    19     5     6    2
    20     5     7    1
    21     7     8    1
    22     7    29    2
    23     8     9    2
    24     8    41    1
    25     9    10    1
    26     9    42    1
    27    10    11    2
    28    10    43    1
    29    11    12    1
    30    11    29    1
    31    12    13    1
    32    12    28    2
    33    13    14    2
    34    13    44    1
    35    14    15    1
    36    14    45    1
    37    15    16    2
    38    15    46    1
    39    16    17    1
    40    16    28    1
    41    17    18    2
    42    17    19    1
    43    19    20    1
    44    19    22    1
    45    20    21    1
    46    20    47    1
    47    20    48    1
    48    21    49    1
    49    21    50    1
    50    21    51    1
    51    22    23    1
    52    22    27    2
    53    23    24    2
    54    23    52    1
    55    24    25    1
    56    24    53    1
    57    25    26    2
    58    25    54    1
    59    26    27    1
    60    26    55    1
    61    27    56    1
    62    30    31    1
    63    30    35    2
    64    31    32    2
    65    31    57    1
    66    32    33    1
    67    32    58    1
    68    33    34    2
    69    33    59    1
    70    34    35    1
    71    34    60    1
    72    35    61    1
    73    62    63    1
    74    62    96    1
    75    62    97    1
    76    62    98    1
    77    63    64    1
    78    63    99    1
    79    63   100    1
    80    64    65    1
    81    64    90    1
    82    65    66    2
    83    65    67    1
    84    67    68    1
    85    67    89    2
    86    68    69    2
    87    68   101    1
    88    69    70    1
    89    69   102    1
    90    70    71    2
    91    70   103    1
    92    71    72    1
    93    71    89    1
    94    72    73    1
    95    72    88    2
    96    73    74    2
    97    73   104    1
    98    74    75    1
    99    74   105    1
   100    75    76    2
   101    75   106    1
   102    76    77    1
   103    76    88    1
   104    77    78    2
   105    77    79    1
   106    79    80    1
   107    79    82    1
   108    80    81    1
   109    80   107    1
   110    80   108    1
   111    81   109    1
   112    81   110    1
   113    81   111    1
   114    82    83    1
   115    82    87    2
   116    83    84    2
   117    83   112    1
   118    84    85    1
   119    84   113    1
   120    85    86    2
   121    85   114    1
   122    86    87    1
   123    86   115    1
   124    87   116    1
   125    90    91    1
   126    90    95    2
   127    91    92    2
   128    91   117    1
   129    92    93    1
   130    92   118    1
   131    93    94    2
   132    93   119    1
   133    94    95    1
   134    94   120    1
   135    95   121    1
   136   122   123    1
   137   122   124    1
@<TRIPOS>SUBSTRUCTURE
     1 RES1      124 GROUP             0 ****  ****    0  
