@<TRIPOS>MOLECULE
am_c3_9H2O_c0_0_nunpairedes_0_charge_3 Charge: 3 Unpaired_Electrons: 0 XTB_Unpaired_Electrons: 0 XTB_Charge: 3
   214   219     1     0     0
SMALL
NoCharges
****
Generated from Architector

@<TRIPOS>ATOM
     1 La1      -0.0147   -0.0664   -0.0751   La        1 RES1   0.0000
     2 C1        5.8111    3.4598    1.3319   C.3       1 RES1   0.0000
     3 C2        4.9519    4.7154    1.4124   C.3       1 RES1   0.0000
     4 C3        4.7447    5.3573    0.0425   C.3       1 RES1   0.0000
     5 C4        4.0436    6.7156    0.1084   C.3       1 RES1   0.0000
     6 C5        2.5891    6.6823    0.5855   C.3       1 RES1   0.0000
     7 C6        1.6279    6.0402   -0.4171   C.3       1 RES1   0.0000
     8 C7        0.1829    6.1466    0.0674   C.3       1 RES1   0.0000
     9 C8       -0.8544    5.6225   -0.9356   C.3       1 RES1   0.0000
    10 N1       -0.5569    4.3034   -1.4800   N.am      1 RES1   0.0000
    11 C9       -0.1134    4.1746   -2.8664   C.3       1 RES1   0.0000
    12 C10      -1.1996    3.6316   -3.7951   C.3       1 RES1   0.0000
    13 C11      -0.7319    3.5522   -5.2534   C.3       1 RES1   0.0000
    14 C12       0.1964    2.3747   -5.5847   C.3       1 RES1   0.0000
    15 C13       1.6935    2.4613   -5.2547   C.3       1 RES1   0.0000
    16 C14       2.5194    3.4843   -6.0437   C.3       1 RES1   0.0000
    17 C15       2.5696    4.8957   -5.4561   C.3       1 RES1   0.0000
    18 C16       3.3143    4.9930   -4.1299   C.3       1 RES1   0.0000
    19 C17      -0.7042    3.1922   -0.7811   C.2       1 RES1   0.0000
    20 O1       -0.5161    2.0473   -1.2454   O.2       1 RES1   0.0000
    21 C18      -1.0646    3.2936    0.7007   C.3       1 RES1   0.0000
    22 O2       -1.4625    2.0151    1.1639   O.3       1 RES1   0.0000
    23 C19      -2.8530    1.7471    0.9721   C.3       1 RES1   0.0000
    24 C20      -3.0243    0.2893    1.3546   C.2       1 RES1   0.0000
    25 O3       -2.1349   -0.4932    0.9461   O.2       1 RES1   0.0000
    26 N2       -4.0387   -0.1754    2.0603   N.am      1 RES1   0.0000
    27 C21      -5.0915    0.5499    2.7292   C.3       1 RES1   0.0000
    28 C22      -4.1009   -1.6186    2.1987   C.3       1 RES1   0.0000
    29 H1        5.9177    2.9925    2.3084   H         1 RES1   0.0000
    30 H2        5.3944    2.7284    0.6384   H         1 RES1   0.0000
    31 H3        6.8055    3.7116    0.9786   H         1 RES1   0.0000
    32 H4        3.9859    4.4813    1.8642   H         1 RES1   0.0000
    33 H5        5.4477    5.4290    2.0686   H         1 RES1   0.0000
    34 H6        5.7232    5.5058   -0.4157   H         1 RES1   0.0000
    35 H7        4.1846    4.6793   -0.6076   H         1 RES1   0.0000
    36 H8        4.6136    7.3577    0.7817   H         1 RES1   0.0000
    37 H9        4.0728    7.1770   -0.8810   H         1 RES1   0.0000
    38 H10       2.5204    6.1682    1.5468   H         1 RES1   0.0000
    39 H11       2.2683    7.7118    0.7524   H         1 RES1   0.0000
    40 H12       1.7323    6.5463   -1.3767   H         1 RES1   0.0000
    41 H13       1.8841    4.9878   -0.5672   H         1 RES1   0.0000
    42 H14       0.0927    5.6476    1.0335   H         1 RES1   0.0000
    43 H15      -0.0609    7.1951    0.2295   H         1 RES1   0.0000
    44 H16      -1.8509    5.6194   -0.4769   H         1 RES1   0.0000
    45 H17      -0.9015    6.3017   -1.7851   H         1 RES1   0.0000
    46 H18       0.2202    5.1530   -3.2092   H         1 RES1   0.0000
    47 H19       0.7236    3.4751   -2.8686   H         1 RES1   0.0000
    48 H20      -1.4969    2.6360   -3.4554   H         1 RES1   0.0000
    49 H21      -2.0707    4.2899   -3.7389   H         1 RES1   0.0000
    50 H22      -1.6303    3.4469   -5.8678   H         1 RES1   0.0000
    51 H23      -0.2693    4.4930   -5.5453   H         1 RES1   0.0000
    52 H24      -0.1869    1.4878   -5.0702   H         1 RES1   0.0000
    53 H25       0.1207    2.1934   -6.6606   H         1 RES1   0.0000
    54 H26       1.8474    2.6052   -4.1850   H         1 RES1   0.0000
    55 H27       2.0859    1.4695   -5.4969   H         1 RES1   0.0000
    56 H28       3.5486    3.1182   -6.1173   H         1 RES1   0.0000
    57 H29       2.1295    3.5333   -7.0616   H         1 RES1   0.0000
    58 H30       3.0766    5.5392   -6.1740   H         1 RES1   0.0000
    59 H31       1.5632    5.2920   -5.3337   H         1 RES1   0.0000
    60 H32       4.3381    4.6443   -4.2352   H         1 RES1   0.0000
    61 H33       3.3474    6.0288   -3.8040   H         1 RES1   0.0000
    62 H34       2.8304    4.4098   -3.3484   H         1 RES1   0.0000
    63 H35      -0.1612    3.5381    1.2713   H         1 RES1   0.0000
    64 H36      -1.8328    4.0501    0.8960   H         1 RES1   0.0000
    65 H37      -3.4611    2.4454    1.5487   H         1 RES1   0.0000
    66 H38      -3.1207    1.8505   -0.0911   H         1 RES1   0.0000
    67 H39      -5.0269    0.3613    3.8017   H         1 RES1   0.0000
    68 H40      -5.0417    1.6168    2.5581   H         1 RES1   0.0000
    69 H41      -6.0592    0.2029    2.3680   H         1 RES1   0.0000
    70 H42      -4.1531   -2.0611    1.2068   H         1 RES1   0.0000
    71 H43      -3.2192   -2.0030    2.7078   H         1 RES1   0.0000
    72 H44      -4.9834   -1.8962    2.7600   H         1 RES1   0.0000
    73 C23      -3.7999    2.9847    4.4195   C.3       1 RES1   0.0000
    74 C24      -2.7748    3.9198    5.0340   C.3       1 RES1   0.0000
    75 C25      -2.0976    3.2652    6.2322   C.3       1 RES1   0.0000
    76 C26      -1.0245    4.1468    6.8680   C.3       1 RES1   0.0000
    77 C27       0.1495    4.4846    5.9461   C.3       1 RES1   0.0000
    78 C28       0.9620    3.2546    5.5383   C.3       1 RES1   0.0000
    79 C29       2.0796    3.6254    4.5648   C.3       1 RES1   0.0000
    80 C30       3.0187    2.4590    4.2283   C.3       1 RES1   0.0000
    81 N3        2.2934    1.2917    3.7428   N.am      1 RES1   0.0000
    82 C31       2.2491    0.1168    4.6046   C.3       1 RES1   0.0000
    83 C32       3.4865   -0.7470    4.3271   C.3       1 RES1   0.0000
    84 C33       3.6116   -2.0021    5.1996   C.3       1 RES1   0.0000
    85 C34       2.7831   -3.2057    4.7396   C.3       1 RES1   0.0000
    86 C35       1.2621   -3.1726    4.9476   C.3       1 RES1   0.0000
    87 C36       0.7867   -3.2065    6.4085   C.3       1 RES1   0.0000
    88 C37       0.6524   -1.8492    7.1046   C.3       1 RES1   0.0000
    89 C38      -0.5263   -1.0172    6.6127   C.3       1 RES1   0.0000
    90 C39       1.7480    1.2230    2.5377   C.2       1 RES1   0.0000
    91 O4        0.9064    0.3686    2.1919   O.2       1 RES1   0.0000
    92 C40       2.2852    2.1875    1.4754   C.3       1 RES1   0.0000
    93 O5        1.8697    1.6922    0.2089   O.3       1 RES1   0.0000
    94 C41       2.8024    1.8885   -0.8415   C.3       1 RES1   0.0000
    95 C42       2.5747    0.7942   -1.8889   C.2       1 RES1   0.0000
    96 O6        1.5549    0.0884   -1.8094   O.2       1 RES1   0.0000
    97 N4        3.5190    0.6216   -2.7997   N.am      1 RES1   0.0000
    98 C43       4.6394    1.5109   -3.0268   C.3       1 RES1   0.0000
    99 C44       3.4543   -0.4927   -3.7246   C.3       1 RES1   0.0000
   100 H45      -4.2987    3.4690    3.5820   H         1 RES1   0.0000
   101 H46      -3.2997    2.0787    4.0817   H         1 RES1   0.0000
   102 H47      -4.5568    2.7110    5.1484   H         1 RES1   0.0000
   103 H48      -2.0366    4.1691    4.2698   H         1 RES1   0.0000
   104 H49      -3.2606    4.8433    5.3442   H         1 RES1   0.0000
   105 H50      -2.8583    3.0512    6.9843   H         1 RES1   0.0000
   106 H51      -1.6702    2.3058    5.9301   H         1 RES1   0.0000
   107 H52      -1.4930    5.0776    7.1917   H         1 RES1   0.0000
   108 H53      -0.6407    3.6486    7.7601   H         1 RES1   0.0000
   109 H54      -0.2149    4.9993    5.0547   H         1 RES1   0.0000
   110 H55       0.8065    5.1807    6.4692   H         1 RES1   0.0000
   111 H56       1.3859    2.8049    6.4366   H         1 RES1   0.0000
   112 H57       0.3105    2.5173    5.0670   H         1 RES1   0.0000
   113 H58       1.6335    4.0310    3.6537   H         1 RES1   0.0000
   114 H59       2.6942    4.4089    5.0049   H         1 RES1   0.0000
   115 H60       3.7736    2.7786    3.5024   H         1 RES1   0.0000
   116 H61       3.5428    2.1542    5.1337   H         1 RES1   0.0000
   117 H62       2.2323    0.4447    5.6409   H         1 RES1   0.0000
   118 H63       1.3391   -0.4370    4.3885   H         1 RES1   0.0000
   119 H64       3.4780   -1.0351    3.2707   H         1 RES1   0.0000
   120 H65       4.3724   -0.1291    4.4981   H         1 RES1   0.0000
   121 H66       4.6624   -2.3065    5.1715   H         1 RES1   0.0000
   122 H67       3.3885   -1.7614    6.2369   H         1 RES1   0.0000
   123 H68       2.9739   -3.3472    3.6701   H         1 RES1   0.0000
   124 H69       3.1685   -4.0859    5.2603   H         1 RES1   0.0000
   125 H70       0.8281   -2.3165    4.4300   H         1 RES1   0.0000
   126 H71       0.8731   -4.0707    4.4549   H         1 RES1   0.0000
   127 H72      -0.1929   -3.6910    6.4423   H         1 RES1   0.0000
   128 H73       1.4730   -3.8355    6.9783   H         1 RES1   0.0000
   129 H74       0.5128   -2.0263    8.1708   H         1 RES1   0.0000
   130 H75       1.5711   -1.2754    7.0018   H         1 RES1   0.0000
   131 H76      -1.4631   -1.5333    6.8040   H         1 RES1   0.0000
   132 H77      -0.5544   -0.0667    7.1398   H         1 RES1   0.0000
   133 H78      -0.4667   -0.8104    5.5459   H         1 RES1   0.0000
   134 H79       1.9435    3.2235    1.6017   H         1 RES1   0.0000
   135 H80       3.3769    2.1698    1.5535   H         1 RES1   0.0000
   136 H81       2.6757    2.8925   -1.2721   H         1 RES1   0.0000
   137 H82       3.8256    1.7990   -0.4640   H         1 RES1   0.0000
   138 H83       4.6502    2.3713   -2.3652   H         1 RES1   0.0000
   139 H84       5.5789    0.9699   -2.9110   H         1 RES1   0.0000
   140 H85       4.5915    1.8767   -4.0529   H         1 RES1   0.0000
   141 H86       2.5778   -1.1009   -3.5192   H         1 RES1   0.0000
   142 H87       3.4018   -0.1235   -4.7462   H         1 RES1   0.0000
   143 H88       4.3538   -1.0992   -3.6250   H         1 RES1   0.0000
   144 C45      -5.6340    3.5628   -0.0654   C.3       1 RES1   0.0000
   145 C46      -6.2450    2.1822    0.1465   C.3       1 RES1   0.0000
   146 C47      -7.0227    1.7127   -1.0751   C.3       1 RES1   0.0000
   147 C48      -7.8272    0.4241   -0.8694   C.3       1 RES1   0.0000
   148 C49      -7.0932   -0.8519   -0.4302   C.3       1 RES1   0.0000
   149 C50      -5.9784   -1.3612   -1.3527   C.3       1 RES1   0.0000
   150 C51      -5.6387   -2.8107   -0.9724   C.3       1 RES1   0.0000
   151 C52      -4.3231   -3.4354   -1.5114   C.3       1 RES1   0.0000
   152 N5       -3.3071   -2.4767   -1.9157   N.am      1 RES1   0.0000
   153 C53      -3.4659   -1.9130   -3.2580   C.3       1 RES1   0.0000
   154 C54      -2.5738   -2.6756   -4.2433   C.3       1 RES1   0.0000
   155 C55      -2.8130   -2.3105   -5.7125   C.3       1 RES1   0.0000
   156 C56      -2.1053   -1.0432   -6.1983   C.3       1 RES1   0.0000
   157 C57      -2.6774    0.3200   -5.7912   C.3       1 RES1   0.0000
   158 C58      -4.0414    0.6951   -6.3807   C.3       1 RES1   0.0000
   159 C59      -5.2544    0.2845   -5.5505   C.3       1 RES1   0.0000
   160 C60      -5.4018    1.0777   -4.2606   C.3       1 RES1   0.0000
   161 C61      -2.1501   -2.2520   -1.3121   C.2       1 RES1   0.0000
   162 O7       -1.3847   -1.3274   -1.6583   O.2       1 RES1   0.0000
   163 C62      -1.6581   -3.1735   -0.1853   C.3       1 RES1   0.0000
   164 O8       -0.4353   -2.5962    0.2450   O.3       1 RES1   0.0000
   165 C63       0.5145   -3.4862    0.7949   C.3       1 RES1   0.0000
   166 C64       1.8575   -2.7660    0.7007   C.2       1 RES1   0.0000
   167 O9        1.8651   -1.5595    0.3889   O.2       1 RES1   0.0000
   168 N6        2.9600   -3.4534    0.9388   N.am      1 RES1   0.0000
   169 C65       3.0109   -4.8572    1.2887   C.3       1 RES1   0.0000
   170 C66       4.2583   -2.8288    0.7813   C.3       1 RES1   0.0000
   171 H89      -5.0904    3.8946    0.8189   H         1 RES1   0.0000
   172 H90      -4.9567    3.5667   -0.9180   H         1 RES1   0.0000
   173 H91      -6.4141    4.2918   -0.2600   H         1 RES1   0.0000
   174 H92      -5.4558    1.4558    0.3396   H         1 RES1   0.0000
   175 H93      -6.9079    2.2181    1.0112   H         1 RES1   0.0000
   176 H94      -7.7320    2.4929   -1.3543   H         1 RES1   0.0000
   177 H95      -6.3252    1.6013   -1.9021   H         1 RES1   0.0000
   178 H96      -8.5928    0.6232   -0.1149   H         1 RES1   0.0000
   179 H97      -8.3486    0.2086   -1.8047   H         1 RES1   0.0000
   180 H98      -6.6833   -0.7274    0.5746   H         1 RES1   0.0000
   181 H99      -7.8538   -1.6349   -0.3689   H         1 RES1   0.0000
   182 H100     -6.3281   -1.3228   -2.3833   H         1 RES1   0.0000
   183 H101     -5.0973   -0.7210   -1.2653   H         1 RES1   0.0000
   184 H102     -5.6489   -2.8873    0.1153   H         1 RES1   0.0000
   185 H103     -6.4472   -3.4497   -1.3256   H         1 RES1   0.0000
   186 H104     -3.9189   -4.1152   -0.7584   H         1 RES1   0.0000
   187 H105     -4.5494   -4.0347   -2.3946   H         1 RES1   0.0000
   188 H106     -4.5092   -2.0203   -3.5388   H         1 RES1   0.0000
   189 H107     -3.1944   -0.8589   -3.2372   H         1 RES1   0.0000
   190 H108     -1.5258   -2.4943   -3.9885   H         1 RES1   0.0000
   191 H109     -2.7763   -3.7449   -4.1209   H         1 RES1   0.0000
   192 H110     -2.4341   -3.1421   -6.3125   H         1 RES1   0.0000
   193 H111     -3.8812   -2.2428   -5.9086   H         1 RES1   0.0000
   194 H112     -1.0661   -1.0888   -5.8534   H         1 RES1   0.0000
   195 H113     -2.0912   -1.0754   -7.2902   H         1 RES1   0.0000
   196 H114     -2.6970    0.4199   -4.7058   H         1 RES1   0.0000
   197 H115     -1.9666    1.0559   -6.1638   H         1 RES1   0.0000
   198 H116     -4.0771    1.7828   -6.4903   H         1 RES1   0.0000
   199 H117     -4.1211    0.2647   -7.3798   H         1 RES1   0.0000
   200 H118     -6.1543    0.4489   -6.1426   H         1 RES1   0.0000
   201 H119     -5.2146   -0.7774   -5.3145   H         1 RES1   0.0000
   202 H120     -5.4727    2.1430   -4.4640   H         1 RES1   0.0000
   203 H121     -6.3143    0.7645   -3.7629   H         1 RES1   0.0000
   204 H122     -4.5636    0.9213   -3.5835   H         1 RES1   0.0000
   205 H123     -2.3535   -3.2492    0.6563   H         1 RES1   0.0000
   206 H124     -1.4872   -4.1746   -0.6034   H         1 RES1   0.0000
   207 H125      0.2711   -3.7157    1.8423   H         1 RES1   0.0000
   208 H126      0.5390   -4.4151    0.2169   H         1 RES1   0.0000
   209 H127      2.0323   -5.2756    1.5010   H         1 RES1   0.0000
   210 H128      3.4685   -5.4212    0.4749   H         1 RES1   0.0000
   211 H129      3.6333   -4.9814    2.1750   H         1 RES1   0.0000
   212 H130      4.1401   -1.7870    0.4921   H         1 RES1   0.0000
   213 H131      4.8110   -2.8887    1.7173   H         1 RES1   0.0000
   214 H132      4.8195   -3.3532    0.0095   H         1 RES1   0.0000
@<TRIPOS>BOND
     1     1    20    1
     2     1    22    1
     3     1    25    1
     4     1    91    1
     5     1    93    1
     6     1    96    1
     7     1   162    1
     8     1   164    1
     9     1   167    1
    10     2     3    1
    11     2    29    1
    12     2    30    1
    13     2    31    1
    14     3     4    1
    15     3    32    1
    16     3    33    1
    17     4     5    1
    18     4    34    1
    19     4    35    1
    20     5     6    1
    21     5    36    1
    22     5    37    1
    23     6     7    1
    24     6    38    1
    25     6    39    1
    26     7     8    1
    27     7    40    1
    28     7    41    1
    29     8     9    1
    30     8    42    1
    31     8    43    1
    32     9    10    1
    33     9    44    1
    34     9    45    1
    35    10    11    1
    36    10    19    1
    37    11    12    1
    38    11    46    1
    39    11    47    1
    40    12    13    1
    41    12    48    1
    42    12    49    1
    43    13    14    1
    44    13    50    1
    45    13    51    1
    46    14    15    1
    47    14    52    1
    48    14    53    1
    49    15    16    1
    50    15    54    1
    51    15    55    1
    52    16    17    1
    53    16    56    1
    54    16    57    1
    55    17    18    1
    56    17    58    1
    57    17    59    1
    58    18    60    1
    59    18    61    1
    60    18    62    1
    61    19    20    2
    62    19    21    1
    63    21    22    1
    64    21    63    1
    65    21    64    1
    66    22    23    1
    67    23    24    1
    68    23    65    1
    69    23    66    1
    70    24    25    2
    71    24    26    1
    72    26    27    1
    73    26    28    1
    74    27    67    1
    75    27    68    1
    76    27    69    1
    77    28    70    1
    78    28    71    1
    79    28    72    1
    80    73    74    1
    81    73   100    1
    82    73   101    1
    83    73   102    1
    84    74    75    1
    85    74   103    1
    86    74   104    1
    87    75    76    1
    88    75   105    1
    89    75   106    1
    90    76    77    1
    91    76   107    1
    92    76   108    1
    93    77    78    1
    94    77   109    1
    95    77   110    1
    96    78    79    1
    97    78   111    1
    98    78   112    1
    99    79    80    1
   100    79   113    1
   101    79   114    1
   102    80    81    1
   103    80   115    1
   104    80   116    1
   105    81    82    1
   106    81    90    1
   107    82    83    1
   108    82   117    1
   109    82   118    1
   110    83    84    1
   111    83   119    1
   112    83   120    1
   113    84    85    1
   114    84   121    1
   115    84   122    1
   116    85    86    1
   117    85   123    1
   118    85   124    1
   119    86    87    1
   120    86   125    1
   121    86   126    1
   122    87    88    1
   123    87   127    1
   124    87   128    1
   125    88    89    1
   126    88   129    1
   127    88   130    1
   128    89   131    1
   129    89   132    1
   130    89   133    1
   131    90    91    2
   132    90    92    1
   133    92    93    1
   134    92   134    1
   135    92   135    1
   136    93    94    1
   137    94    95    1
   138    94   136    1
   139    94   137    1
   140    95    96    2
   141    95    97    1
   142    97    98    1
   143    97    99    1
   144    98   138    1
   145    98   139    1
   146    98   140    1
   147    99   141    1
   148    99   142    1
   149    99   143    1
   150   144   145    1
   151   144   171    1
   152   144   172    1
   153   144   173    1
   154   145   146    1
   155   145   174    1
   156   145   175    1
   157   146   147    1
   158   146   176    1
   159   146   177    1
   160   147   148    1
   161   147   178    1
   162   147   179    1
   163   148   149    1
   164   148   180    1
   165   148   181    1
   166   149   150    1
   167   149   182    1
   168   149   183    1
   169   150   151    1
   170   150   184    1
   171   150   185    1
   172   151   152    1
   173   151   186    1
   174   151   187    1
   175   152   153    1
   176   152   161    1
   177   153   154    1
   178   153   188    1
   179   153   189    1
   180   154   155    1
   181   154   190    1
   182   154   191    1
   183   155   156    1
   184   155   192    1
   185   155   193    1
   186   156   157    1
   187   156   194    1
   188   156   195    1
   189   157   158    1
   190   157   196    1
   191   157   197    1
   192   158   159    1
   193   158   198    1
   194   158   199    1
   195   159   160    1
   196   159   200    1
   197   159   201    1
   198   160   202    1
   199   160   203    1
   200   160   204    1
   201   161   162    2
   202   161   163    1
   203   163   164    1
   204   163   205    1
   205   163   206    1
   206   164   165    1
   207   165   166    1
   208   165   207    1
   209   165   208    1
   210   166   167    2
   211   166   168    1
   212   168   169    1
   213   168   170    1
   214   169   209    1
   215   169   210    1
   216   169   211    1
   217   170   212    1
   218   170   213    1
   219   170   214    1
@<TRIPOS>SUBSTRUCTURE
     1 RES1      214 GROUP             0 ****  ****    0  
