@<TRIPOS>MOLECULE
am_c3_9H2O_c0_0_nunpairedes_0_charge_3 Charge: 3 Unpaired_Electrons: 0 XTB_Unpaired_Electrons: 0 XTB_Charge: 3
   284   291     1     0     0
SMALL
NoCharges
****
Generated from Architector

@<TRIPOS>ATOM
     1 La1       0.0025   -0.0761    0.0562   La        1 RES1   0.0000
     2 C1       -0.1138    3.6584   -9.3566   C.3       1 RES1   0.0000
     3 C2        0.3299    3.7792   -7.9020   C.3       1 RES1   0.0000
     4 C3       -0.7692    4.3698   -7.0157   C.3       1 RES1   0.0000
     5 C4       -0.3488    4.6658   -5.5637   C.3       1 RES1   0.0000
     6 C5       -0.6475    3.5402   -4.5571   C.3       1 RES1   0.0000
     7 C6       -0.0383    2.1910   -4.9473   C.3       1 RES1   0.0000
     8 C7        1.4884    2.1433   -5.0668   C.3       1 RES1   0.0000
     9 C8       -0.2265    3.9643   -3.1357   C.3       1 RES1   0.0000
    10 P1       -1.1355    3.0077   -1.8490   P.3       1 RES1   0.0000
    11 O1       -0.7668    1.5693   -1.7344   O.2       1 RES1   0.0000
    12 C9       -0.8627    3.7694   -0.1538   C.3       1 RES1   0.0000
    13 C10       0.6069    3.6063    0.1074   C.2       1 RES1   0.0000
    14 O2        1.0575    2.4375    0.1659   O.2       1 RES1   0.0000
    15 N1        1.4064    4.6692    0.2497   N.am      1 RES1   0.0000
    16 C11       0.9000    6.0447    0.2428   C.3       1 RES1   0.0000
    17 C12       1.8615    7.1667   -0.2003   C.3       1 RES1   0.0000
    18 C13       0.9868    8.3420   -0.6554   C.3       1 RES1   0.0000
    19 C14       2.8112    7.6642    0.8952   C.3       1 RES1   0.0000
    20 C15       2.8174    4.4167    0.5154   C.3       1 RES1   0.0000
    21 C16       3.2076    4.4869    1.9991   C.3       1 RES1   0.0000
    22 C17       2.3352    3.5444    2.8215   C.3       1 RES1   0.0000
    23 C18       4.6849    4.1300    2.1493   C.3       1 RES1   0.0000
    24 C19      -2.9092    3.2805   -2.1051   C.ar      1 RES1   0.0000
    25 C20      -3.6972    2.1690   -2.3589   C.ar      1 RES1   0.0000
    26 C21      -5.0430    2.3259   -2.6439   C.ar      1 RES1   0.0000
    27 C22      -5.6136    3.5853   -2.5986   C.ar      1 RES1   0.0000
    28 C23      -4.8364    4.6920   -2.3008   C.ar      1 RES1   0.0000
    29 C24      -3.4794    4.5467   -2.0840   C.ar      1 RES1   0.0000
    30 H1        0.6655    3.1767   -9.9432   H         1 RES1   0.0000
    31 H2       -0.3119    4.6375   -9.7854   H         1 RES1   0.0000
    32 H3       -1.0203    3.0598   -9.4354   H         1 RES1   0.0000
    33 H4        1.2106    4.4219   -7.8390   H         1 RES1   0.0000
    34 H5        0.6197    2.7901   -7.5526   H         1 RES1   0.0000
    35 H6       -1.6399    3.7120   -7.0126   H         1 RES1   0.0000
    36 H7       -1.0877    5.3069   -7.4749   H         1 RES1   0.0000
    37 H8       -0.8912    5.5543   -5.2310   H         1 RES1   0.0000
    38 H9        0.7106    4.9232   -5.5408   H         1 RES1   0.0000
    39 H10      -1.7368    3.4016   -4.5550   H         1 RES1   0.0000
    40 H11      -0.4743    1.9159   -5.9051   H         1 RES1   0.0000
    41 H12      -0.3602    1.4484   -4.2144   H         1 RES1   0.0000
    42 H13       1.9333    3.0992   -5.3392   H         1 RES1   0.0000
    43 H14       1.7703    1.4165   -5.8264   H         1 RES1   0.0000
    44 H15       1.9329    1.8138   -4.1335   H         1 RES1   0.0000
    45 H16      -0.4687    5.0181   -2.9716   H         1 RES1   0.0000
    46 H17       0.8472    3.8206   -3.0032   H         1 RES1   0.0000
    47 H18      -1.4263    3.0523    0.4527   H         1 RES1   0.0000
    48 H19      -1.2853    4.7577   -0.0214   H         1 RES1   0.0000
    49 H20       0.5161    6.2928    1.2414   H         1 RES1   0.0000
    50 H21       0.0686    6.0889   -0.4624   H         1 RES1   0.0000
    51 H22       2.4396    6.8201   -1.0621   H         1 RES1   0.0000
    52 H23       0.3440    8.6631    0.1614   H         1 RES1   0.0000
    53 H24       0.3628    8.0767   -1.5074   H         1 RES1   0.0000
    54 H25       1.6067    9.1876   -0.9422   H         1 RES1   0.0000
    55 H26       2.3109    7.6647    1.8613   H         1 RES1   0.0000
    56 H27       3.1043    8.6904    0.6840   H         1 RES1   0.0000
    57 H28       3.7232    7.0766    0.9662   H         1 RES1   0.0000
    58 H29       3.4131    5.1225   -0.0586   H         1 RES1   0.0000
    59 H30       3.0264    3.4075    0.1530   H         1 RES1   0.0000
    60 H31       3.0607    5.4953    2.3844   H         1 RES1   0.0000
    61 H32       2.3805    2.5524    2.3765   H         1 RES1   0.0000
    62 H33       1.3069    3.9051    2.8342   H         1 RES1   0.0000
    63 H34       2.6959    3.4969    3.8459   H         1 RES1   0.0000
    64 H35       4.8824    3.1132    1.8176   H         1 RES1   0.0000
    65 H36       4.9819    4.2192    3.1908   H         1 RES1   0.0000
    66 H37       5.3133    4.7984    1.5676   H         1 RES1   0.0000
    67 H38      -3.2230    1.2000   -2.3100   H         1 RES1   0.0000
    68 H39      -5.6481    1.4740   -2.9118   H         1 RES1   0.0000
    69 H40      -6.6639    3.7109   -2.7968   H         1 RES1   0.0000
    70 H41      -5.2866    5.6676   -2.2538   H         1 RES1   0.0000
    71 H42      -2.8746    5.4207   -1.9022   H         1 RES1   0.0000
    72 C25      -5.3771   -5.4351    2.4185   C.3       1 RES1   0.0000
    73 C26      -3.9293   -5.1754    2.8157   C.3       1 RES1   0.0000
    74 C27      -3.6148   -3.6821    2.9264   C.3       1 RES1   0.0000
    75 C28      -3.9664   -3.0656    4.2786   C.3       1 RES1   0.0000
    76 C29      -3.4792   -1.6161    4.4785   C.3       1 RES1   0.0000
    77 C30      -3.6640   -0.7513    3.2344   C.3       1 RES1   0.0000
    78 C31      -2.9126    0.5685    3.3136   C.3       1 RES1   0.0000
    79 C32      -2.0381   -1.5249    4.9783   C.3       1 RES1   0.0000
    80 P2       -0.5954   -1.7662    3.8095   P.3       1 RES1   0.0000
    81 O3       -0.7698   -1.7186    2.3197   O.2       1 RES1   0.0000
    82 C33       0.4496   -0.3559    4.4176   C.3       1 RES1   0.0000
    83 C34       1.7087   -0.0368    3.6561   C.2       1 RES1   0.0000
    84 O4        1.7509   -0.1282    2.4130   O.2       1 RES1   0.0000
    85 N2        2.7334    0.4452    4.3873   N.am      1 RES1   0.0000
    86 C35       2.4761    0.9254    5.7611   C.3       1 RES1   0.0000
    87 C36       3.5231    1.7589    6.5319   C.3       1 RES1   0.0000
    88 C37       2.7631    2.7340    7.4416   C.3       1 RES1   0.0000
    89 C38       4.3933    0.8807    7.4239   C.3       1 RES1   0.0000
    90 C39       4.0032    0.6745    3.7189   C.3       1 RES1   0.0000
    91 C40       5.0667   -0.4480    3.8643   C.3       1 RES1   0.0000
    92 C41       5.4662   -0.9630    2.4828   C.3       1 RES1   0.0000
    93 C42       4.6343   -1.6319    4.7273   C.3       1 RES1   0.0000
    94 C43      -0.0072   -3.3100    4.6117   C.ar      1 RES1   0.0000
    95 C44       0.4823   -3.2625    5.9149   C.ar      1 RES1   0.0000
    96 C45       0.5527   -4.4089    6.6845   C.ar      1 RES1   0.0000
    97 C46       0.1326   -5.6220    6.1678   C.ar      1 RES1   0.0000
    98 C47      -0.3188   -5.6874    4.8634   C.ar      1 RES1   0.0000
    99 C48      -0.3983   -4.5375    4.0957   C.ar      1 RES1   0.0000
   100 H43      -5.5696   -6.5015    2.3908   H         1 RES1   0.0000
   101 H44      -5.5911   -5.0340    1.4286   H         1 RES1   0.0000
   102 H45      -6.0662   -4.9953    3.1330   H         1 RES1   0.0000
   103 H46      -3.2781   -5.6188    2.0584   H         1 RES1   0.0000
   104 H47      -3.7194   -5.6634    3.7669   H         1 RES1   0.0000
   105 H48      -4.1760   -3.1699    2.1476   H         1 RES1   0.0000
   106 H49      -2.5547   -3.5132    2.7358   H         1 RES1   0.0000
   107 H50      -3.5306   -3.6855    5.0665   H         1 RES1   0.0000
   108 H51      -5.0518   -3.0817    4.3994   H         1 RES1   0.0000
   109 H52      -4.0855   -1.1937    5.2880   H         1 RES1   0.0000
   110 H53      -4.7269   -0.5938    3.0550   H         1 RES1   0.0000
   111 H54      -3.2469   -1.2762    2.3829   H         1 RES1   0.0000
   112 H55      -3.1817    1.1548    4.1894   H         1 RES1   0.0000
   113 H56      -3.0879    1.1562    2.4167   H         1 RES1   0.0000
   114 H57      -1.8557    0.3338    3.3355   H         1 RES1   0.0000
   115 H58      -1.8998   -2.2638    5.7708   H         1 RES1   0.0000
   116 H59      -1.8966   -0.5396    5.4283   H         1 RES1   0.0000
   117 H60       0.6501   -0.5538    5.4619   H         1 RES1   0.0000
   118 H61      -0.2022    0.5184    4.3671   H         1 RES1   0.0000
   119 H62       2.2420    0.0706    6.4064   H         1 RES1   0.0000
   120 H63       1.5874    1.5631    5.7087   H         1 RES1   0.0000
   121 H64       4.1512    2.3520    5.8644   H         1 RES1   0.0000
   122 H65       2.0358    2.1880    8.0405   H         1 RES1   0.0000
   123 H66       2.2539    3.5161    6.8801   H         1 RES1   0.0000
   124 H67       3.4584    3.2200    8.1216   H         1 RES1   0.0000
   125 H68       3.7523    0.3033    8.0885   H         1 RES1   0.0000
   126 H69       5.0389    1.5026    8.0379   H         1 RES1   0.0000
   127 H70       5.0143    0.2008    6.8513   H         1 RES1   0.0000
   128 H71       4.4174    1.6112    4.0853   H         1 RES1   0.0000
   129 H72       3.7680    0.7945    2.6565   H         1 RES1   0.0000
   130 H73       5.9527   -0.0004    4.3189   H         1 RES1   0.0000
   131 H74       4.6067   -1.4294    2.0039   H         1 RES1   0.0000
   132 H75       6.2606   -1.6979    2.5901   H         1 RES1   0.0000
   133 H76       5.8314   -0.1544    1.8512   H         1 RES1   0.0000
   134 H77       3.6133   -1.9391    4.5262   H         1 RES1   0.0000
   135 H78       4.7217   -1.4205    5.7864   H         1 RES1   0.0000
   136 H79       5.2824   -2.4770    4.5162   H         1 RES1   0.0000
   137 H80       0.8085   -2.3327    6.3535   H         1 RES1   0.0000
   138 H81       0.9077   -4.3546    7.6992   H         1 RES1   0.0000
   139 H82       0.1429   -6.5065    6.7800   H         1 RES1   0.0000
   140 H83      -0.6357   -6.6265    4.4440   H         1 RES1   0.0000
   141 H84      -0.7648   -4.5885    3.0849   H         1 RES1   0.0000
   142 C49       2.9729   -2.1330   -9.4886   C.3       1 RES1   0.0000
   143 C50       2.8749   -2.4609   -8.0014   C.3       1 RES1   0.0000
   144 C51       3.8895   -1.6689   -7.1730   C.3       1 RES1   0.0000
   145 C52       4.0248   -2.0832   -5.6958   C.3       1 RES1   0.0000
   146 C53       3.1330   -1.3190   -4.7017   C.3       1 RES1   0.0000
   147 C54       1.6297   -1.5030   -4.9365   C.3       1 RES1   0.0000
   148 C55       1.1229   -2.9436   -4.9372   C.3       1 RES1   0.0000
   149 C56       3.4981   -1.7009   -3.2536   C.3       1 RES1   0.0000
   150 P3        3.0449   -0.3887   -2.0401   P.3       1 RES1   0.0000
   151 O5        1.5908   -0.0759   -1.9113   O.2       1 RES1   0.0000
   152 C57       3.6509   -0.9615   -0.3764   C.3       1 RES1   0.0000
   153 C58       2.8568   -2.2073   -0.1112   C.2       1 RES1   0.0000
   154 O6        1.6178   -2.0736    0.0112   O.2       1 RES1   0.0000
   155 N3        3.4516   -3.4050   -0.0774   N.am      1 RES1   0.0000
   156 C59       4.9072   -3.5730   -0.1729   C.3       1 RES1   0.0000
   157 C60       5.4607   -4.9638   -0.5565   C.3       1 RES1   0.0000
   158 C61       6.8683   -4.7373   -1.1226   C.3       1 RES1   0.0000
   159 C62       5.5816   -5.9515    0.6097   C.3       1 RES1   0.0000
   160 C63       2.6519   -4.5369    0.3662   C.3       1 RES1   0.0000
   161 C64       2.7794   -4.7297    1.8817   C.3       1 RES1   0.0000
   162 C65       2.2905   -3.4830    2.6036   C.3       1 RES1   0.0000
   163 C66       2.0225   -5.9763    2.3241   C.3       1 RES1   0.0000
   164 C67       4.0735    1.0774   -2.3354   C.ar      1 RES1   0.0000
   165 C68       3.4706    2.3263   -2.2714   C.ar      1 RES1   0.0000
   166 C69       4.2183    3.4684   -2.4995   C.ar      1 RES1   0.0000
   167 C70       5.5730    3.3657   -2.7592   C.ar      1 RES1   0.0000
   168 C71       6.1823    2.1230   -2.7961   C.ar      1 RES1   0.0000
   169 C72       5.4346    0.9782   -2.5904   C.ar      1 RES1   0.0000
   170 H85       2.2139   -2.6828  -10.0404   H         1 RES1   0.0000
   171 H86       3.9466   -2.4097   -9.8848   H         1 RES1   0.0000
   172 H87       2.8194   -1.0698   -9.6646   H         1 RES1   0.0000
   173 H88       3.0619   -3.5275   -7.8604   H         1 RES1   0.0000
   174 H89       1.8569   -2.2524   -7.6740   H         1 RES1   0.0000
   175 H90       3.6593   -0.6031   -7.2271   H         1 RES1   0.0000
   176 H91       4.8650   -1.8116   -7.6423   H         1 RES1   0.0000
   177 H92       5.0625   -1.9054   -5.4025   H         1 RES1   0.0000
   178 H93       3.8547   -3.1552   -5.5954   H         1 RES1   0.0000
   179 H94       3.3497   -0.2488   -4.8212   H         1 RES1   0.0000
   180 H95       1.3827   -1.0553   -5.8988   H         1 RES1   0.0000
   181 H96       1.0996   -0.9409   -4.1628   H         1 RES1   0.0000
   182 H97       1.5968   -3.5530   -5.7024   H         1 RES1   0.0000
   183 H98       0.0540   -2.9271   -5.1355   H         1 RES1   0.0000
   184 H99       1.2658   -3.4354   -3.9790   H         1 RES1   0.0000
   185 H100      4.5777   -1.8553   -3.1620   H         1 RES1   0.0000
   186 H101      2.9915   -2.6251   -2.9642   H         1 RES1   0.0000
   187 H102      3.2877   -0.1900    0.3142   H         1 RES1   0.0000
   188 H103      4.7290   -1.0405   -0.3089   H         1 RES1   0.0000
   189 H104      5.3723   -3.2820    0.7763   H         1 RES1   0.0000
   190 H105      5.2615   -2.8930   -0.9493   H         1 RES1   0.0000
   191 H106      4.8381   -5.3965   -1.3452   H         1 RES1   0.0000
   192 H107      7.4964   -4.2522   -0.3777   H         1 RES1   0.0000
   193 H108      6.8533   -4.1234   -2.0207   H         1 RES1   0.0000
   194 H109      7.3272   -5.6890   -1.3766   H         1 RES1   0.0000
   195 H110      5.9398   -5.4445    1.5034   H         1 RES1   0.0000
   196 H111      6.3111   -6.7201    0.3633   H         1 RES1   0.0000
   197 H112      4.6483   -6.4559    0.8396   H         1 RES1   0.0000
   198 H113      2.9727   -5.4261   -0.1735   H         1 RES1   0.0000
   199 H114      1.6110   -4.3221    0.1172   H         1 RES1   0.0000
   200 H115      3.8285   -4.8607    2.1450   H         1 RES1   0.0000
   201 H116      1.2701   -3.2523    2.3116   H         1 RES1   0.0000
   202 H117      2.9028   -2.6194    2.3531   H         1 RES1   0.0000
   203 H118      2.3338   -3.6349    3.6790   H         1 RES1   0.0000
   204 H119      0.9804   -5.9362    2.0200   H         1 RES1   0.0000
   205 H120      2.0643   -6.0584    3.4065   H         1 RES1   0.0000
   206 H121      2.4648   -6.8738    1.8993   H         1 RES1   0.0000
   207 H122      2.4147    2.3709   -2.0477   H         1 RES1   0.0000
   208 H123      3.7476    4.4383   -2.4883   H         1 RES1   0.0000
   209 H124      6.1588    4.2509   -2.9373   H         1 RES1   0.0000
   210 H125      7.2354    2.0437   -2.9997   H         1 RES1   0.0000
   211 H126      5.9175    0.0159   -2.6433   H         1 RES1   0.0000
   212 C73      -3.5466   -2.1716   -9.3739   C.3       1 RES1   0.0000
   213 C74      -3.7447   -1.7652   -7.9157   C.3       1 RES1   0.0000
   214 C75      -3.6130   -2.9540   -6.9572   C.3       1 RES1   0.0000
   215 C76      -4.0794   -2.6985   -5.5085   C.3       1 RES1   0.0000
   216 C77      -2.9916   -2.2387   -4.5183   C.3       1 RES1   0.0000
   217 C78      -2.2052   -1.0165   -4.9983   C.3       1 RES1   0.0000
   218 C79      -3.0219    0.2569   -5.2338   C.3       1 RES1   0.0000
   219 C80      -3.5935   -1.9934   -3.1174   C.3       1 RES1   0.0000
   220 P4       -2.3168   -2.1854   -1.7896   P.3       1 RES1   0.0000
   221 O7       -1.2038   -1.1895   -1.8039   O.2       1 RES1   0.0000
   222 C81      -3.1070   -2.1457   -0.0980   C.3       1 RES1   0.0000
   223 C82      -3.5695   -0.7331    0.1503   C.2       1 RES1   0.0000
   224 O8       -2.6657    0.1356    0.2420   O.2       1 RES1   0.0000
   225 N4       -4.8742   -0.4364    0.2423   N.am      1 RES1   0.0000
   226 C83      -5.8670   -1.5290    0.1957   C.3       1 RES1   0.0000
   227 C84      -7.3509   -1.3018   -0.1791   C.3       1 RES1   0.0000
   228 C85      -7.8128   -2.6022   -0.8579   C.3       1 RES1   0.0000
   229 C86      -8.2980   -1.0564    1.0087   C.3       1 RES1   0.0000
   230 C87      -5.2585    0.9769    0.3056   C.3       1 RES1   0.0000
   231 C88      -6.2101    1.4488    1.4243   C.3       1 RES1   0.0000
   232 C89      -5.5330    2.2699    2.5239   C.3       1 RES1   0.0000
   233 C90      -7.3253    2.3125    0.8289   C.3       1 RES1   0.0000
   234 C91      -1.6831   -3.8773   -1.8776   C.ar      1 RES1   0.0000
   235 C92      -0.3077   -4.0391   -1.9623   C.ar      1 RES1   0.0000
   236 C93       0.2278   -5.3112   -2.0657   C.ar      1 RES1   0.0000
   237 C94      -0.6074   -6.4138   -2.0580   C.ar      1 RES1   0.0000
   238 C95      -1.9785   -6.2523   -1.9556   C.ar      1 RES1   0.0000
   239 C96      -2.5202   -4.9839   -1.8735   C.ar      1 RES1   0.0000
   240 H127     -3.5923   -1.2911  -10.0114   H         1 RES1   0.0000
   241 H128     -4.3228   -2.8617   -9.6948   H         1 RES1   0.0000
   242 H129     -2.5788   -2.6481   -9.5198   H         1 RES1   0.0000
   243 H130     -4.7405   -1.3315   -7.8021   H         1 RES1   0.0000
   244 H131     -3.0166   -0.9908   -7.6797   H         1 RES1   0.0000
   245 H132     -2.5824   -3.3146   -6.9527   H         1 RES1   0.0000
   246 H133     -4.2308   -3.7583   -7.3622   H         1 RES1   0.0000
   247 H134     -4.4896   -3.6366   -5.1268   H         1 RES1   0.0000
   248 H135     -4.9030   -1.9837   -5.5202   H         1 RES1   0.0000
   249 H136     -2.2721   -3.0645   -4.4252   H         1 RES1   0.0000
   250 H137     -1.7172   -1.2957   -5.9311   H         1 RES1   0.0000
   251 H138     -1.4231   -0.8085   -4.2646   H         1 RES1   0.0000
   252 H139     -4.0164    0.0602   -5.6273   H         1 RES1   0.0000
   253 H140     -2.5009    0.8843   -5.9525   H         1 RES1   0.0000
   254 H141     -3.1255    0.8395   -4.3250   H         1 RES1   0.0000
   255 H142     -4.3733   -2.7336   -2.9111   H         1 RES1   0.0000
   256 H143     -4.0386   -0.9974   -3.0645   H         1 RES1   0.0000
   257 H144     -2.2456   -2.3270    0.5597   H         1 RES1   0.0000
   258 H145     -3.8305   -2.9378    0.0476   H         1 RES1   0.0000
   259 H146     -5.8505   -2.0388    1.1669   H         1 RES1   0.0000
   260 H147     -5.5075   -2.2271   -0.5612   H         1 RES1   0.0000
   261 H148     -7.4328   -0.4804   -0.8937   H         1 RES1   0.0000
   262 H149     -7.7382   -3.4244   -0.1479   H         1 RES1   0.0000
   263 H150     -7.2215   -2.8482   -1.7383   H         1 RES1   0.0000
   264 H151     -8.8528   -2.5268   -1.1643   H         1 RES1   0.0000
   265 H152     -7.8702   -1.4188    1.9416   H         1 RES1   0.0000
   266 H153     -9.2264   -1.6021    0.8502   H         1 RES1   0.0000
   267 H154     -8.5637   -0.0117    1.1279   H         1 RES1   0.0000
   268 H155     -5.7240    1.2290   -0.6483   H         1 RES1   0.0000
   269 H156     -4.3149    1.5236    0.3601   H         1 RES1   0.0000
   270 H157     -6.6579    0.5763    1.8949   H         1 RES1   0.0000
   271 H158     -4.7554    2.9190    2.1261   H         1 RES1   0.0000
   272 H159     -5.1084    1.6309    3.2857   H         1 RES1   0.0000
   273 H160     -6.2770    2.9028    2.9996   H         1 RES1   0.0000
   274 H161     -6.9394    3.2722    0.4953   H         1 RES1   0.0000
   275 H162     -8.0700    2.5129    1.5939   H         1 RES1   0.0000
   276 H163     -7.8178    1.8438   -0.0181   H         1 RES1   0.0000
   277 H164      0.3110   -3.1520   -1.9559   H         1 RES1   0.0000
   278 H165      1.2921   -5.4486   -2.1653   H         1 RES1   0.0000
   279 H166     -0.1933   -7.4032   -2.1446   H         1 RES1   0.0000
   280 H167     -2.6243   -7.1122   -1.9527   H         1 RES1   0.0000
   281 H168     -3.5902   -4.8614   -1.8190   H         1 RES1   0.0000
   282 O9       -0.3527    1.6596    2.2158   O.3       1 RES1   0.0000
   283 H169     -0.9107    2.4436    2.2652   H         1 RES1   0.0000
   284 H170      0.5391    1.9485    2.4677   H         1 RES1   0.0000
@<TRIPOS>BOND
     1     1    11    1
     2     1    14    1
     3     1    81    1
     4     1    84    1
     5     1   151    1
     6     1   154    1
     7     1   221    1
     8     1   224    1
     9     1   282    1
    10     2     3    1
    11     2    30    1
    12     2    31    1
    13     2    32    1
    14     3     4    1
    15     3    33    1
    16     3    34    1
    17     4     5    1
    18     4    35    1
    19     4    36    1
    20     5     6    1
    21     5    37    1
    22     5    38    1
    23     6     7    1
    24     6     9    1
    25     6    39    1
    26     7     8    1
    27     7    40    1
    28     7    41    1
    29     8    42    1
    30     8    43    1
    31     8    44    1
    32     9    10    1
    33     9    45    1
    34     9    46    1
    35    10    11    2
    36    10    12    1
    37    10    24    1
    38    12    13    1
    39    12    47    1
    40    12    48    1
    41    13    14    2
    42    13    15    1
    43    15    16    1
    44    15    20    1
    45    16    17    1
    46    16    49    1
    47    16    50    1
    48    17    18    1
    49    17    19    1
    50    17    51    1
    51    18    52    1
    52    18    53    1
    53    18    54    1
    54    19    55    1
    55    19    56    1
    56    19    57    1
    57    20    21    1
    58    20    58    1
    59    20    59    1
    60    21    22    1
    61    21    23    1
    62    21    60    1
    63    22    61    1
    64    22    62    1
    65    22    63    1
    66    23    64    1
    67    23    65    1
    68    23    66    1
    69    24    25    1
    70    24    29    2
    71    25    26    2
    72    25    67    1
    73    26    27    1
    74    26    68    1
    75    27    28    2
    76    27    69    1
    77    28    29    1
    78    28    70    1
    79    29    71    1
    80    72    73    1
    81    72   100    1
    82    72   101    1
    83    72   102    1
    84    73    74    1
    85    73   103    1
    86    73   104    1
    87    74    75    1
    88    74   105    1
    89    74   106    1
    90    75    76    1
    91    75   107    1
    92    75   108    1
    93    76    77    1
    94    76    79    1
    95    76   109    1
    96    77    78    1
    97    77   110    1
    98    77   111    1
    99    78   112    1
   100    78   113    1
   101    78   114    1
   102    79    80    1
   103    79   115    1
   104    79   116    1
   105    80    81    2
   106    80    82    1
   107    80    94    1
   108    82    83    1
   109    82   117    1
   110    82   118    1
   111    83    84    2
   112    83    85    1
   113    85    86    1
   114    85    90    1
   115    86    87    1
   116    86   119    1
   117    86   120    1
   118    87    88    1
   119    87    89    1
   120    87   121    1
   121    88   122    1
   122    88   123    1
   123    88   124    1
   124    89   125    1
   125    89   126    1
   126    89   127    1
   127    90    91    1
   128    90   128    1
   129    90   129    1
   130    91    92    1
   131    91    93    1
   132    91   130    1
   133    92   131    1
   134    92   132    1
   135    92   133    1
   136    93   134    1
   137    93   135    1
   138    93   136    1
   139    94    95    1
   140    94    99    2
   141    95    96    2
   142    95   137    1
   143    96    97    1
   144    96   138    1
   145    97    98    2
   146    97   139    1
   147    98    99    1
   148    98   140    1
   149    99   141    1
   150   142   143    1
   151   142   170    1
   152   142   171    1
   153   142   172    1
   154   143   144    1
   155   143   173    1
   156   143   174    1
   157   144   145    1
   158   144   175    1
   159   144   176    1
   160   145   146    1
   161   145   177    1
   162   145   178    1
   163   146   147    1
   164   146   149    1
   165   146   179    1
   166   147   148    1
   167   147   180    1
   168   147   181    1
   169   148   182    1
   170   148   183    1
   171   148   184    1
   172   149   150    1
   173   149   185    1
   174   149   186    1
   175   150   151    2
   176   150   152    1
   177   150   164    1
   178   152   153    1
   179   152   187    1
   180   152   188    1
   181   153   154    2
   182   153   155    1
   183   155   156    1
   184   155   160    1
   185   156   157    1
   186   156   189    1
   187   156   190    1
   188   157   158    1
   189   157   159    1
   190   157   191    1
   191   158   192    1
   192   158   193    1
   193   158   194    1
   194   159   195    1
   195   159   196    1
   196   159   197    1
   197   160   161    1
   198   160   198    1
   199   160   199    1
   200   161   162    1
   201   161   163    1
   202   161   200    1
   203   162   201    1
   204   162   202    1
   205   162   203    1
   206   163   204    1
   207   163   205    1
   208   163   206    1
   209   164   165    1
   210   164   169    2
   211   165   166    2
   212   165   207    1
   213   166   167    1
   214   166   208    1
   215   167   168    2
   216   167   209    1
   217   168   169    1
   218   168   210    1
   219   169   211    1
   220   212   213    1
   221   212   240    1
   222   212   241    1
   223   212   242    1
   224   213   214    1
   225   213   243    1
   226   213   244    1
   227   214   215    1
   228   214   245    1
   229   214   246    1
   230   215   216    1
   231   215   247    1
   232   215   248    1
   233   216   217    1
   234   216   219    1
   235   216   249    1
   236   217   218    1
   237   217   250    1
   238   217   251    1
   239   218   252    1
   240   218   253    1
   241   218   254    1
   242   219   220    1
   243   219   255    1
   244   219   256    1
   245   220   221    2
   246   220   222    1
   247   220   234    1
   248   222   223    1
   249   222   257    1
   250   222   258    1
   251   223   224    2
   252   223   225    1
   253   225   226    1
   254   225   230    1
   255   226   227    1
   256   226   259    1
   257   226   260    1
   258   227   228    1
   259   227   229    1
   260   227   261    1
   261   228   262    1
   262   228   263    1
   263   228   264    1
   264   229   265    1
   265   229   266    1
   266   229   267    1
   267   230   231    1
   268   230   268    1
   269   230   269    1
   270   231   232    1
   271   231   233    1
   272   231   270    1
   273   232   271    1
   274   232   272    1
   275   232   273    1
   276   233   274    1
   277   233   275    1
   278   233   276    1
   279   234   235    1
   280   234   239    2
   281   235   236    2
   282   235   277    1
   283   236   237    1
   284   236   278    1
   285   237   238    2
   286   237   279    1
   287   238   239    1
   288   238   280    1
   289   239   281    1
   290   282   283    1
   291   282   284    1
@<TRIPOS>SUBSTRUCTURE
     1 RES1      284 GROUP             0 ****  ****    0  
