@<TRIPOS>MOLECULE
am_c3_9H2O_c0_0_nunpairedes_0_charge_3 Charge: 3 Unpaired_Electrons: 0 XTB_Unpaired_Electrons: 0 XTB_Charge: 3
   130   141     1     0     0
SMALL
NoCharges
****
Generated from Architector

@<TRIPOS>ATOM
     1 La1      -0.1084   -0.0487    0.0227   La        1 RES1   0.0000
     2 C1       -1.3246    5.3359    0.6998   C.3       1 RES1   0.0000
     3 N1       -1.2808    4.0479    1.3767   N.am      1 RES1   0.0000
     4 C2       -1.0264    2.9380    0.6902   C.2       1 RES1   0.0000
     5 O1       -0.9081    1.8050    1.1923   O.2       1 RES1   0.0000
     6 C3       -0.7948    3.0882   -0.8163   C.3       1 RES1   0.0000
     7 O2       -1.0446    1.8775   -1.5111   O.3       1 RES1   0.0000
     8 C4       -2.3930    1.7149   -1.9481   C.3       1 RES1   0.0000
     9 C5       -3.1064    0.6260   -1.1226   C.2       1 RES1   0.0000
    10 O3       -2.4345    0.0612   -0.2454   O.2       1 RES1   0.0000
    11 N2       -4.3738    0.3492   -1.4340   N.am      1 RES1   0.0000
    12 C6       -5.1484    1.1749   -2.3526   C.3       1 RES1   0.0000
    13 C7       -5.1217   -0.7160   -0.8223   C.ar      1 RES1   0.0000
    14 C8       -4.4873   -1.7861   -0.1938   C.ar      1 RES1   0.0000
    15 C9       -5.2338   -2.7917    0.3981   C.ar      1 RES1   0.0000
    16 C10      -6.6173   -2.7774    0.3534   C.ar      1 RES1   0.0000
    17 C11      -7.2500   -1.7353   -0.3007   C.ar      1 RES1   0.0000
    18 C12      -6.5172   -0.7123   -0.8795   C.ar      1 RES1   0.0000
    19 C13      -1.5562    4.0403    2.7825   C.ar      1 RES1   0.0000
    20 C14      -0.9791    3.1087    3.6401   C.ar      1 RES1   0.0000
    21 C15      -1.2689    3.1475    4.9940   C.ar      1 RES1   0.0000
    22 C16      -2.1084    4.1186    5.5109   C.ar      1 RES1   0.0000
    23 C17      -2.6731    5.0516    4.6574   C.ar      1 RES1   0.0000
    24 C18      -2.4124    5.0094    3.2998   C.ar      1 RES1   0.0000
    25 H1       -0.4119    5.4801    0.1233   H         1 RES1   0.0000
    26 H2       -2.1958    5.4062    0.0446   H         1 RES1   0.0000
    27 H3       -1.3862    6.1332    1.4361   H         1 RES1   0.0000
    28 H4       -1.3874    3.8925   -1.2485   H         1 RES1   0.0000
    29 H5        0.2696    3.3057   -0.9580   H         1 RES1   0.0000
    30 H6       -2.9285    2.6627   -1.8813   H         1 RES1   0.0000
    31 H7       -2.3672    1.3975   -2.9977   H         1 RES1   0.0000
    32 H8       -4.5400    1.8686   -2.9190   H         1 RES1   0.0000
    33 H9       -5.6718    0.5321   -3.0615   H         1 RES1   0.0000
    34 H10      -5.8869    1.7531   -1.7917   H         1 RES1   0.0000
    35 H11      -3.4107   -1.8454   -0.1568   H         1 RES1   0.0000
    36 H12      -4.7182   -3.5899    0.9079   H         1 RES1   0.0000
    37 H13      -7.1972   -3.5621    0.8160   H         1 RES1   0.0000
    38 H14      -8.3284   -1.7193   -0.3510   H         1 RES1   0.0000
    39 H15      -7.0759    0.0707   -1.3634   H         1 RES1   0.0000
    40 H16      -0.3250    2.3363    3.2648   H         1 RES1   0.0000
    41 H17      -0.8360    2.4029    5.6423   H         1 RES1   0.0000
    42 H18      -2.3350    4.1476    6.5642   H         1 RES1   0.0000
    43 H19      -3.3267    5.8151    5.0474   H         1 RES1   0.0000
    44 H20      -2.8970    5.7238    2.6514   H         1 RES1   0.0000
    45 C19       3.5809    2.3967    3.8113   C.3       1 RES1   0.0000
    46 N3        3.0335    1.1104    3.3943   N.am      1 RES1   0.0000
    47 C20       2.3222    1.0115    2.2724   C.2       1 RES1   0.0000
    48 O4        1.6755    0.0305    1.8618   O.2       1 RES1   0.0000
    49 C21       2.2952    2.2531    1.3580   C.3       1 RES1   0.0000
    50 O5        1.8395    1.8548    0.0675   O.3       1 RES1   0.0000
    51 C22       2.9146    1.6916   -0.8567   C.3       1 RES1   0.0000
    52 C23       2.3188    1.0890   -2.1253   C.2       1 RES1   0.0000
    53 O6        1.2892    0.3876   -2.0023   O.2       1 RES1   0.0000
    54 N4        2.9054    1.2947   -3.2983   N.am      1 RES1   0.0000
    55 C24       2.2902    0.6595   -4.4546   C.3       1 RES1   0.0000
    56 C25       4.0712    2.0923   -3.5184   C.ar      1 RES1   0.0000
    57 C26       4.1447    2.8920   -4.6562   C.ar      1 RES1   0.0000
    58 C27       5.2728    3.6571   -4.8887   C.ar      1 RES1   0.0000
    59 C28       6.3145    3.6822   -3.9787   C.ar      1 RES1   0.0000
    60 C29       6.2453    2.8756   -2.8585   C.ar      1 RES1   0.0000
    61 C30       5.1520    2.0559   -2.6412   C.ar      1 RES1   0.0000
    62 C31       3.3818    0.0102    4.2429   C.ar      1 RES1   0.0000
    63 C32       4.2906    0.1976    5.2858   C.ar      1 RES1   0.0000
    64 C33       4.6913   -0.8642    6.0763   C.ar      1 RES1   0.0000
    65 C34       4.2128   -2.1411    5.8488   C.ar      1 RES1   0.0000
    66 C35       3.3018   -2.3289    4.8244   C.ar      1 RES1   0.0000
    67 C36       2.8785   -1.2724    4.0337   C.ar      1 RES1   0.0000
    68 H21       3.1748    3.2334    3.2552   H         1 RES1   0.0000
    69 H22       3.3203    2.5427    4.8579   H         1 RES1   0.0000
    70 H23       4.6667    2.3922    3.7040   H         1 RES1   0.0000
    71 H24       1.5562    2.9659    1.7447   H         1 RES1   0.0000
    72 H25       3.2771    2.7265    1.2661   H         1 RES1   0.0000
    73 H26       3.3993    2.6598   -1.0561   H         1 RES1   0.0000
    74 H27       3.6561    0.9874   -0.4451   H         1 RES1   0.0000
    75 H28       2.1830   -0.4087   -4.2712   H         1 RES1   0.0000
    76 H29       1.3006    1.0717   -4.6451   H         1 RES1   0.0000
    77 H30       2.9198    0.8101   -5.3224   H         1 RES1   0.0000
    78 H31       3.3335    2.9267   -5.3677   H         1 RES1   0.0000
    79 H32       5.3338    4.2348   -5.7917   H         1 RES1   0.0000
    80 H33       7.1786    4.3044   -4.1430   H         1 RES1   0.0000
    81 H34       7.0575    2.8695   -2.1537   H         1 RES1   0.0000
    82 H35       5.1735    1.3582   -1.8195   H         1 RES1   0.0000
    83 H36       4.7206    1.1539    5.5210   H         1 RES1   0.0000
    84 H37       5.3954   -0.6844    6.8698   H         1 RES1   0.0000
    85 H38       4.5425   -2.9734    6.4522   H         1 RES1   0.0000
    86 H39       2.9221   -3.3228    4.6389   H         1 RES1   0.0000
    87 H40       2.1493   -1.4477    3.2604   H         1 RES1   0.0000
    88 C37       1.0202   -4.1720   -3.5948   C.3       1 RES1   0.0000
    89 N5       -0.0283   -3.3161   -3.0566   N.am      1 RES1   0.0000
    90 C38       0.1948   -2.5384   -2.0011   C.2       1 RES1   0.0000
    91 O7       -0.6455   -1.7908   -1.4696   O.2       1 RES1   0.0000
    92 C39       1.5987   -2.5480   -1.3822   C.3       1 RES1   0.0000
    93 O8        1.5326   -2.0675   -0.0480   O.3       1 RES1   0.0000
    94 C40       1.2373   -3.0803    0.9125   C.3       1 RES1   0.0000
    95 C41      -0.0169   -2.7099    1.7232   C.2       1 RES1   0.0000
    96 O9       -0.6383   -1.6822    1.3983   O.2       1 RES1   0.0000
    97 N6       -0.3555   -3.5197    2.7229   N.am      1 RES1   0.0000
    98 C42       0.3601   -4.7622    2.9796   C.3       1 RES1   0.0000
    99 C43      -1.4906   -3.3042    3.5783   C.ar      1 RES1   0.0000
   100 C44      -2.1462   -2.0763    3.6598   C.ar      1 RES1   0.0000
   101 C45      -3.2484   -1.9261    4.4856   C.ar      1 RES1   0.0000
   102 C46      -3.7133   -2.9743    5.2599   C.ar      1 RES1   0.0000
   103 C47      -3.0479   -4.1858    5.2036   C.ar      1 RES1   0.0000
   104 C48      -1.9524   -4.3543    4.3752   C.ar      1 RES1   0.0000
   105 C49      -1.3243   -3.3939   -3.6588   C.ar      1 RES1   0.0000
   106 C50      -2.1572   -2.2806   -3.6929   C.ar      1 RES1   0.0000
   107 C51      -3.4236   -2.3874   -4.2387   C.ar      1 RES1   0.0000
   108 C52      -3.8573   -3.5792   -4.7925   C.ar      1 RES1   0.0000
   109 C53      -3.0118   -4.6753   -4.7880   C.ar      1 RES1   0.0000
   110 C54      -1.7570   -4.5959   -4.2107   C.ar      1 RES1   0.0000
   111 H41       1.9083   -3.5860   -3.8305   H         1 RES1   0.0000
   112 H42       1.2850   -4.9682   -2.8940   H         1 RES1   0.0000
   113 H43       0.6689   -4.6339   -4.5147   H         1 RES1   0.0000
   114 H44       2.0782   -3.5289   -1.4182   H         1 RES1   0.0000
   115 H45       2.2104   -1.8250   -1.9319   H         1 RES1   0.0000
   116 H46       1.0682   -4.0458    0.4261   H         1 RES1   0.0000
   117 H47       2.0997   -3.1531    1.5866   H         1 RES1   0.0000
   118 H48       1.2771   -4.8493    2.4130   H         1 RES1   0.0000
   119 H49       0.6119   -4.8165    4.0390   H         1 RES1   0.0000
   120 H50      -0.2745   -5.6115    2.7193   H         1 RES1   0.0000
   121 H51      -1.8159   -1.2251    3.0854   H         1 RES1   0.0000
   122 H52      -3.7463   -0.9706    4.5131   H         1 RES1   0.0000
   123 H53      -4.5735   -2.8549    5.9003   H         1 RES1   0.0000
   124 H54      -3.3881   -5.0097    5.8110   H         1 RES1   0.0000
   125 H55      -1.4861   -5.3237    4.3786   H         1 RES1   0.0000
   126 H56      -1.8217   -1.3347   -3.2947   H         1 RES1   0.0000
   127 H57      -4.0714   -1.5264   -4.2262   H         1 RES1   0.0000
   128 H58      -4.8433   -3.6600   -5.2222   H         1 RES1   0.0000
   129 H59      -3.3379   -5.6020   -5.2307   H         1 RES1   0.0000
   130 H60      -1.1378   -5.4797   -4.1901   H         1 RES1   0.0000
@<TRIPOS>BOND
     1     1     5    1
     2     1     7    1
     3     1    10    1
     4     1    48    1
     5     1    50    1
     6     1    53    1
     7     1    91    1
     8     1    93    1
     9     1    96    1
    10     2     3    1
    11     2    25    1
    12     2    26    1
    13     2    27    1
    14     3     4    1
    15     3    19    1
    16     4     5    2
    17     4     6    1
    18     6     7    1
    19     6    28    1
    20     6    29    1
    21     7     8    1
    22     8     9    1
    23     8    30    1
    24     8    31    1
    25     9    10    2
    26     9    11    1
    27    11    12    1
    28    11    13    1
    29    12    32    1
    30    12    33    1
    31    12    34    1
    32    13    14    1
    33    13    18    2
    34    14    15    2
    35    14    35    1
    36    15    16    1
    37    15    36    1
    38    16    17    2
    39    16    37    1
    40    17    18    1
    41    17    38    1
    42    18    39    1
    43    19    20    1
    44    19    24    2
    45    20    21    2
    46    20    40    1
    47    21    22    1
    48    21    41    1
    49    22    23    2
    50    22    42    1
    51    23    24    1
    52    23    43    1
    53    24    44    1
    54    45    46    1
    55    45    68    1
    56    45    69    1
    57    45    70    1
    58    46    47    1
    59    46    62    1
    60    47    48    2
    61    47    49    1
    62    49    50    1
    63    49    71    1
    64    49    72    1
    65    50    51    1
    66    51    52    1
    67    51    73    1
    68    51    74    1
    69    52    53    2
    70    52    54    1
    71    54    55    1
    72    54    56    1
    73    55    75    1
    74    55    76    1
    75    55    77    1
    76    56    57    1
    77    56    61    2
    78    57    58    2
    79    57    78    1
    80    58    59    1
    81    58    79    1
    82    59    60    2
    83    59    80    1
    84    60    61    1
    85    60    81    1
    86    61    82    1
    87    62    63    1
    88    62    67    2
    89    63    64    2
    90    63    83    1
    91    64    65    1
    92    64    84    1
    93    65    66    2
    94    65    85    1
    95    66    67    1
    96    66    86    1
    97    67    87    1
    98    88    89    1
    99    88   111    1
   100    88   112    1
   101    88   113    1
   102    89    90    1
   103    89   105    1
   104    90    91    2
   105    90    92    1
   106    92    93    1
   107    92   114    1
   108    92   115    1
   109    93    94    1
   110    94    95    1
   111    94   116    1
   112    94   117    1
   113    95    96    2
   114    95    97    1
   115    97    98    1
   116    97    99    1
   117    98   118    1
   118    98   119    1
   119    98   120    1
   120    99   100    1
   121    99   104    2
   122   100   101    2
   123   100   121    1
   124   101   102    1
   125   101   122    1
   126   102   103    2
   127   102   123    1
   128   103   104    1
   129   103   124    1
   130   104   125    1
   131   105   106    1
   132   105   110    2
   133   106   107    2
   134   106   126    1
   135   107   108    1
   136   107   127    1
   137   108   109    2
   138   108   128    1
   139   109   110    1
   140   109   129    1
   141   110   130    1
@<TRIPOS>SUBSTRUCTURE
     1 RES1      130 GROUP             0 ****  ****    0  
