@<TRIPOS>MOLECULE
cn9_YICLED_0_nunpairedes_0_charge_3 Charge: 3 Unpaired_Electrons: 0 XTB_Unpaired_Electrons: 0 XTB_Charge: 3
   190   207     1     0     0
SMALL
NoCharges
****
Generated from Architector

@<TRIPOS>ATOM
     1 La1       0.1794    0.1808    0.0122   La        1 RES1   0.0000
     2 C1       -7.5270   -1.4486   -0.1135   C.3       1 RES1   0.0000
     3 C2       -7.4948   -2.7207    0.7336   C.3       1 RES1   0.0000
     4 C3       -6.1424   -3.4408    0.7391   C.3       1 RES1   0.0000
     5 C4       -6.0946   -4.5386    1.8026   C.3       1 RES1   0.0000
     6 C5       -4.7192   -4.9963    2.3711   C.3       1 RES1   0.0000
     7 C6       -3.4082   -4.5401    1.7180   C.3       1 RES1   0.0000
     8 C7       -2.2008   -4.8730    2.6216   C.3       1 RES1   0.0000
     9 C8       -0.8497   -4.7086    1.8746   C.3       1 RES1   0.0000
    10 N1        0.3022   -3.9914    2.4635   N.am      1 RES1   0.0000
    11 C9        0.6044   -2.7628    1.9680   C.2       1 RES1   0.0000
    12 O1       -0.2934   -1.9714    1.6199   O.2       1 RES1   0.0000
    13 C10       2.0298   -2.3596    1.6783   C.ar      1 RES1   0.0000
    14 C11       3.1322   -3.2303    1.7339   C.ar      1 RES1   0.0000
    15 C12       4.3965   -2.7351    1.5406   C.ar      1 RES1   0.0000
    16 C13       4.5633   -1.3755    1.2239   C.ar      1 RES1   0.0000
    17 C14       5.8404   -0.7487    1.1776   C.ar      1 RES1   0.0000
    18 C15       5.9750    0.5024    0.6785   C.ar      1 RES1   0.0000
    19 C16       4.8552    1.1748    0.1074   C.ar      1 RES1   0.0000
    20 C17       5.0097    2.3543   -0.6376   C.ar      1 RES1   0.0000
    21 C18       3.9094    2.9081   -1.2431   C.ar      1 RES1   0.0000
    22 C19       2.6671    2.3027   -1.0628   C.ar      1 RES1   0.0000
    23 N2        2.4770    1.2099   -0.3411   N.ar      1 RES1   0.0000
    24 C20       3.5540    0.6218    0.2226   C.ar      1 RES1   0.0000
    25 C21       3.3896   -0.6545    0.8888   C.ar      1 RES1   0.0000
    26 N3        2.1597   -1.1409    1.1442   N.ar      1 RES1   0.0000
    27 C22       1.2392   -4.6743    3.3010   C.ar      1 RES1   0.0000
    28 C23       1.7851   -5.9258    3.0010   C.ar      1 RES1   0.0000
    29 C24       2.8456   -6.4249    3.7388   C.ar      1 RES1   0.0000
    30 C25       3.3693   -5.7299    4.8250   C.ar      1 RES1   0.0000
    31 C26       4.5507   -6.2375    5.5848   C.3       1 RES1   0.0000
    32 C27       2.7481   -4.5365    5.1862   C.ar      1 RES1   0.0000
    33 C28       1.7132   -4.0085    4.4343   C.ar      1 RES1   0.0000
    34 H1       -8.5089   -0.9822   -0.0446   H         1 RES1   0.0000
    35 H2       -6.8029   -0.7124    0.2364   H         1 RES1   0.0000
    36 H3       -7.3117   -1.6602   -1.1570   H         1 RES1   0.0000
    37 H4       -7.7291   -2.4399    1.7599   H         1 RES1   0.0000
    38 H5       -8.2686   -3.4102    0.3965   H         1 RES1   0.0000
    39 H6       -5.9598   -3.8839   -0.2425   H         1 RES1   0.0000
    40 H7       -5.3791   -2.6976    0.9519   H         1 RES1   0.0000
    41 H8       -6.6762   -4.2017    2.6605   H         1 RES1   0.0000
    42 H9       -6.6221   -5.4004    1.3960   H         1 RES1   0.0000
    43 H10      -4.6743   -4.6789    3.4172   H         1 RES1   0.0000
    44 H11      -4.7195   -6.0872    2.3598   H         1 RES1   0.0000
    45 H12      -3.2990   -5.0256    0.7472   H         1 RES1   0.0000
    46 H13      -3.4151   -3.4620    1.5732   H         1 RES1   0.0000
    47 H14      -2.2474   -4.2173    3.4898   H         1 RES1   0.0000
    48 H15      -2.2986   -5.9048    2.9667   H         1 RES1   0.0000
    49 H16      -0.4629   -5.7064    1.6520   H         1 RES1   0.0000
    50 H17      -1.0630   -4.1962    0.9327   H         1 RES1   0.0000
    51 H18       2.9955   -4.2772    1.9325   H         1 RES1   0.0000
    52 H19       5.2590   -3.3834    1.6053   H         1 RES1   0.0000
    53 H20       6.6895   -1.2943    1.5560   H         1 RES1   0.0000
    54 H21       6.9334    0.9947    0.6438   H         1 RES1   0.0000
    55 H22       5.9916    2.7876   -0.7533   H         1 RES1   0.0000
    56 H23       3.9975    3.7839   -1.8602   H         1 RES1   0.0000
    57 H24       1.7893    2.7160   -1.5401   H         1 RES1   0.0000
    58 H25       1.4186   -6.5134    2.1722   H         1 RES1   0.0000
    59 H26       3.2933   -7.3658    3.4528   H         1 RES1   0.0000
    60 H27       4.8134   -7.2498    5.2935   H         1 RES1   0.0000
    61 H28       5.4154   -5.5950    5.4133   H         1 RES1   0.0000
    62 H29       4.3594   -6.2359    6.6551   H         1 RES1   0.0000
    63 H30       3.0928   -4.0199    6.0685   H         1 RES1   0.0000
    64 H31       1.2532   -3.0815    4.7371   H         1 RES1   0.0000
    65 C29      -3.4004    6.5422    1.2607   C.3       1 RES1   0.0000
    66 C30      -2.8118    6.1266    2.6039   C.3       1 RES1   0.0000
    67 C31      -3.2629    4.7203    2.9996   C.3       1 RES1   0.0000
    68 C32      -2.9311    4.3773    4.4544   C.3       1 RES1   0.0000
    69 C33      -3.0552    2.8788    4.7536   C.3       1 RES1   0.0000
    70 C34      -1.8373    2.1274    4.2039   C.3       1 RES1   0.0000
    71 C35      -2.1242    0.7472    3.6318   C.3       1 RES1   0.0000
    72 C36      -2.8492    0.8469    2.2926   C.3       1 RES1   0.0000
    73 N4       -3.0505   -0.4849    1.6894   N.am      1 RES1   0.0000
    74 C37      -2.5690   -0.6363    0.4610   C.2       1 RES1   0.0000
    75 O2       -2.1384    0.3870   -0.1376   O.2       1 RES1   0.0000
    76 C38      -2.2743   -1.8773   -0.3718   C.ar      1 RES1   0.0000
    77 C39      -3.1453   -2.8440   -0.8694   C.ar      1 RES1   0.0000
    78 C40      -2.6660   -3.8191   -1.7211   C.ar      1 RES1   0.0000
    79 C41      -1.3366   -3.7855   -2.1807   C.ar      1 RES1   0.0000
    80 C42      -0.7723   -4.7012   -3.1241   C.ar      1 RES1   0.0000
    81 C43       0.4458   -4.4743   -3.6803   C.ar      1 RES1   0.0000
    82 C44       1.2087   -3.3117   -3.3461   C.ar      1 RES1   0.0000
    83 C45       2.4208   -2.9834   -3.9868   C.ar      1 RES1   0.0000
    84 C46       3.0566   -1.8121   -3.6513   C.ar      1 RES1   0.0000
    85 C47       2.4713   -0.9881   -2.6867   C.ar      1 RES1   0.0000
    86 N5        1.3555   -1.2678   -2.0346   N.ar      1 RES1   0.0000
    87 C48       0.7209   -2.4180   -2.3595   C.ar      1 RES1   0.0000
    88 C49      -0.5651   -2.6801   -1.7492   C.ar      1 RES1   0.0000
    89 N6       -1.0296   -1.7962   -0.8544   N.ar      1 RES1   0.0000
    90 C50      -3.8414   -1.2582    2.6128   C.ar      1 RES1   0.0000
    91 C51      -5.2063   -1.0020    2.6478   C.ar      1 RES1   0.0000
    92 C52      -5.9848   -1.4915    3.6785   C.ar      1 RES1   0.0000
    93 C53      -5.4129   -2.2115    4.7187   C.ar      1 RES1   0.0000
    94 C54      -6.2589   -2.7726    5.8116   C.3       1 RES1   0.0000
    95 C55      -4.0384   -2.4300    4.6949   C.ar      1 RES1   0.0000
    96 C56      -3.2476   -1.9393    3.6684   C.ar      1 RES1   0.0000
    97 H32      -3.1199    5.8410    0.4741   H         1 RES1   0.0000
    98 H33      -3.0570    7.5349    0.9826   H         1 RES1   0.0000
    99 H34      -4.4854    6.5653    1.3191   H         1 RES1   0.0000
   100 H35      -1.7183    6.1597    2.5514   H         1 RES1   0.0000
   101 H36      -3.1289    6.8401    3.3658   H         1 RES1   0.0000
   102 H37      -4.3434    4.6428    2.8692   H         1 RES1   0.0000
   103 H38      -2.7988    3.9953    2.3210   H         1 RES1   0.0000
   104 H39      -1.9098    4.6929    4.6889   H         1 RES1   0.0000
   105 H40      -3.5984    4.9346    5.1122   H         1 RES1   0.0000
   106 H41      -3.1024    2.7271    5.8340   H         1 RES1   0.0000
   107 H42      -3.9844    2.4873    4.3338   H         1 RES1   0.0000
   108 H43      -1.3582    2.7323    3.4327   H         1 RES1   0.0000
   109 H44      -1.1179    1.9950    5.0079   H         1 RES1   0.0000
   110 H45      -1.1713    0.2332    3.4734   H         1 RES1   0.0000
   111 H46      -2.7051    0.1816    4.3584   H         1 RES1   0.0000
   112 H47      -3.8204    1.3344    2.4047   H         1 RES1   0.0000
   113 H48      -2.2330    1.4521    1.6187   H         1 RES1   0.0000
   114 H49      -4.1910   -2.8145   -0.6192   H         1 RES1   0.0000
   115 H50      -3.3343   -4.5928   -2.0660   H         1 RES1   0.0000
   116 H51      -1.3353   -5.5771   -3.4066   H         1 RES1   0.0000
   117 H52       0.8514   -5.1411   -4.4325   H         1 RES1   0.0000
   118 H53       2.8340   -3.6415   -4.7367   H         1 RES1   0.0000
   119 H54       3.9792   -1.5218   -4.1348   H         1 RES1   0.0000
   120 H55       2.9417   -0.0454   -2.4511   H         1 RES1   0.0000
   121 H56      -5.6550   -0.4003    1.8755   H         1 RES1   0.0000
   122 H57      -7.0426   -1.2812    3.6879   H         1 RES1   0.0000
   123 H58      -7.2469   -2.3214    5.8351   H         1 RES1   0.0000
   124 H59      -6.3837   -3.8418    5.6435   H         1 RES1   0.0000
   125 H60      -5.8011   -2.6476    6.7903   H         1 RES1   0.0000
   126 H61      -3.5819   -2.9602    5.5159   H         1 RES1   0.0000
   127 H62      -2.1745   -2.0399    3.6883   H         1 RES1   0.0000
   128 C57       9.1532    4.5072    5.0925   C.3       1 RES1   0.0000
   129 C58       7.6512    4.4734    4.8425   C.3       1 RES1   0.0000
   130 C59       7.2915    3.5177    3.7053   C.3       1 RES1   0.0000
   131 C60       5.7826    3.3685    3.4886   C.3       1 RES1   0.0000
   132 C61       5.1549    4.6397    2.9181   C.3       1 RES1   0.0000
   133 C62       3.6392    4.5504    2.7344   C.3       1 RES1   0.0000
   134 C63       2.8718    4.7090    4.0488   C.3       1 RES1   0.0000
   135 C64       1.3781    4.3757    3.9236   C.3       1 RES1   0.0000
   136 N7        1.2190    3.0265    3.4036   N.am      1 RES1   0.0000
   137 C65       0.7793    2.6098    2.2179   C.2       1 RES1   0.0000
   138 O3        0.6062    1.3785    2.0194   O.2       1 RES1   0.0000
   139 C66       0.3993    3.5185    1.0812   C.ar      1 RES1   0.0000
   140 C67       0.6122    4.8980    0.9446   C.ar      1 RES1   0.0000
   141 C68      -0.0092    5.5746   -0.0817   C.ar      1 RES1   0.0000
   142 C69      -0.7698    4.8708   -1.0254   C.ar      1 RES1   0.0000
   143 C70      -1.5832    5.5048   -2.0028   C.ar      1 RES1   0.0000
   144 C71      -2.3127    4.7505   -2.8601   C.ar      1 RES1   0.0000
   145 C72      -2.1270    3.3371   -2.9444   C.ar      1 RES1   0.0000
   146 C73      -2.7535    2.5531   -3.9281   C.ar      1 RES1   0.0000
   147 C74      -2.3927    1.2291   -4.0445   C.ar      1 RES1   0.0000
   148 C75      -1.4314    0.7009   -3.1771   C.ar      1 RES1   0.0000
   149 N8       -0.8660    1.3916   -2.2021   N.ar      1 RES1   0.0000
   150 C76      -1.2313    2.6847   -2.0626   C.ar      1 RES1   0.0000
   151 C77      -0.6951    3.4572   -0.9661   C.ar      1 RES1   0.0000
   152 N9       -0.1715    2.8249    0.0918   N.ar      1 RES1   0.0000
   153 C78       1.7048    2.0179    4.3000   C.ar      1 RES1   0.0000
   154 C79       1.2505    1.9333    5.6104   C.ar      1 RES1   0.0000
   155 C80       1.7648    0.9653    6.4499   C.ar      1 RES1   0.0000
   156 C81       2.7628    0.0964    6.0186   C.ar      1 RES1   0.0000
   157 C82       3.3738   -0.8820    6.9665   C.3       1 RES1   0.0000
   158 C83       3.2072    0.1922    4.7044   C.ar      1 RES1   0.0000
   159 C84       2.6799    1.1373    3.8466   C.ar      1 RES1   0.0000
   160 H63       9.3869    5.2038    5.8919   H         1 RES1   0.0000
   161 H64       9.6834    4.8259    4.1983   H         1 RES1   0.0000
   162 H65       9.5223    3.5252    5.3776   H         1 RES1   0.0000
   163 H66       7.3177    5.4824    4.5984   H         1 RES1   0.0000
   164 H67       7.1355    4.1601    5.7526   H         1 RES1   0.0000
   165 H68       7.7120    2.5344    3.9304   H         1 RES1   0.0000
   166 H69       7.7539    3.8745    2.7821   H         1 RES1   0.0000
   167 H70       5.3142    3.1164    4.4420   H         1 RES1   0.0000
   168 H71       5.5944    2.5333    2.8019   H         1 RES1   0.0000
   169 H72       5.6116    4.8480    1.9485   H         1 RES1   0.0000
   170 H73       5.3836    5.4781    3.5729   H         1 RES1   0.0000
   171 H74       3.3988    3.5829    2.2816   H         1 RES1   0.0000
   172 H75       3.3300    5.3316    2.0377   H         1 RES1   0.0000
   173 H76       2.9726    5.7299    4.4175   H         1 RES1   0.0000
   174 H77       3.2930    4.0382    4.7988   H         1 RES1   0.0000
   175 H78       0.8407    5.1040    3.3249   H         1 RES1   0.0000
   176 H79       0.9177    4.3982    4.9155   H         1 RES1   0.0000
   177 H80       1.2434    5.4488    1.6157   H         1 RES1   0.0000
   178 H81       0.0995    6.6431   -0.1618   H         1 RES1   0.0000
   179 H82      -1.6196    6.5826   -2.0149   H         1 RES1   0.0000
   180 H83      -3.0037    5.2095   -3.5477   H         1 RES1   0.0000
   181 H84      -3.4843    3.0000   -4.5861   H         1 RES1   0.0000
   182 H85      -2.8386    0.6066   -4.8007   H         1 RES1   0.0000
   183 H86      -1.1161   -0.3334   -3.2788   H         1 RES1   0.0000
   184 H87       0.5030    2.6141    5.9966   H         1 RES1   0.0000
   185 H88       1.3977    0.8991    7.4641   H         1 RES1   0.0000
   186 H89       4.0249   -0.3604    7.6673   H         1 RES1   0.0000
   187 H90       3.9766   -1.6166    6.4396   H         1 RES1   0.0000
   188 H91       2.6226   -1.3953    7.5617   H         1 RES1   0.0000
   189 H92       3.9895   -0.4639    4.3534   H         1 RES1   0.0000
   190 H93       3.0405    1.2040    2.8329   H         1 RES1   0.0000
@<TRIPOS>BOND
     1     1    12    1
     2     1    23    1
     3     1    26    1
     4     1    75    1
     5     1    86    1
     6     1    89    1
     7     1   138    1
     8     1   149    1
     9     1   152    1
    10     2     3    1
    11     2    34    1
    12     2    35    1
    13     2    36    1
    14     3     4    1
    15     3    37    1
    16     3    38    1
    17     4     5    1
    18     4    39    1
    19     4    40    1
    20     5     6    1
    21     5    41    1
    22     5    42    1
    23     6     7    1
    24     6    43    1
    25     6    44    1
    26     7     8    1
    27     7    45    1
    28     7    46    1
    29     8     9    1
    30     8    47    1
    31     8    48    1
    32     9    10    1
    33     9    49    1
    34     9    50    1
    35    10    11    1
    36    10    27    1
    37    11    12    2
    38    11    13    1
    39    13    14    1
    40    13    26    2
    41    14    15    2
    42    14    51    1
    43    15    16    1
    44    15    52    1
    45    16    17    1
    46    16    25    2
    47    17    18    2
    48    17    53    1
    49    18    19    1
    50    18    54    1
    51    19    20    1
    52    19    24    2
    53    20    21    2
    54    20    55    1
    55    21    22    1
    56    21    56    1
    57    22    23    2
    58    22    57    1
    59    23    24    1
    60    24    25    1
    61    25    26    1
    62    27    28    1
    63    27    33    2
    64    28    29    2
    65    28    58    1
    66    29    30    1
    67    29    59    1
    68    30    31    1
    69    30    32    2
    70    31    60    1
    71    31    61    1
    72    31    62    1
    73    32    33    1
    74    32    63    1
    75    33    64    1
    76    65    66    1
    77    65    97    1
    78    65    98    1
    79    65    99    1
    80    66    67    1
    81    66   100    1
    82    66   101    1
    83    67    68    1
    84    67   102    1
    85    67   103    1
    86    68    69    1
    87    68   104    1
    88    68   105    1
    89    69    70    1
    90    69   106    1
    91    69   107    1
    92    70    71    1
    93    70   108    1
    94    70   109    1
    95    71    72    1
    96    71   110    1
    97    71   111    1
    98    72    73    1
    99    72   112    1
   100    72   113    1
   101    73    74    1
   102    73    90    1
   103    74    75    2
   104    74    76    1
   105    76    77    1
   106    76    89    2
   107    77    78    2
   108    77   114    1
   109    78    79    1
   110    78   115    1
   111    79    80    1
   112    79    88    2
   113    80    81    2
   114    80   116    1
   115    81    82    1
   116    81   117    1
   117    82    83    1
   118    82    87    2
   119    83    84    2
   120    83   118    1
   121    84    85    1
   122    84   119    1
   123    85    86    2
   124    85   120    1
   125    86    87    1
   126    87    88    1
   127    88    89    1
   128    90    91    1
   129    90    96    2
   130    91    92    2
   131    91   121    1
   132    92    93    1
   133    92   122    1
   134    93    94    1
   135    93    95    2
   136    94   123    1
   137    94   124    1
   138    94   125    1
   139    95    96    1
   140    95   126    1
   141    96   127    1
   142   128   129    1
   143   128   160    1
   144   128   161    1
   145   128   162    1
   146   129   130    1
   147   129   163    1
   148   129   164    1
   149   130   131    1
   150   130   165    1
   151   130   166    1
   152   131   132    1
   153   131   167    1
   154   131   168    1
   155   132   133    1
   156   132   169    1
   157   132   170    1
   158   133   134    1
   159   133   171    1
   160   133   172    1
   161   134   135    1
   162   134   173    1
   163   134   174    1
   164   135   136    1
   165   135   175    1
   166   135   176    1
   167   136   137    1
   168   136   153    1
   169   137   138    2
   170   137   139    1
   171   139   140    1
   172   139   152    2
   173   140   141    2
   174   140   177    1
   175   141   142    1
   176   141   178    1
   177   142   143    1
   178   142   151    2
   179   143   144    2
   180   143   179    1
   181   144   145    1
   182   144   180    1
   183   145   146    1
   184   145   150    2
   185   146   147    2
   186   146   181    1
   187   147   148    1
   188   147   182    1
   189   148   149    2
   190   148   183    1
   191   149   150    1
   192   150   151    1
   193   151   152    1
   194   153   154    1
   195   153   159    2
   196   154   155    2
   197   154   184    1
   198   155   156    1
   199   155   185    1
   200   156   157    1
   201   156   158    2
   202   157   186    1
   203   157   187    1
   204   157   188    1
   205   158   159    1
   206   158   189    1
   207   159   190    1
@<TRIPOS>SUBSTRUCTURE
     1 RES1      190 GROUP             0 ****  ****    0  
