@<TRIPOS>MOLECULE
tri_tri_mer_capped_0_nunpairedes_0_charge_3 Charge: 3 Unpaired_Electrons: 0 XTB_Unpaired_Electrons: 0 XTB_Charge: 3
   120   133     1     0     0
SMALL
NoCharges
****
Generated from Architector

@<TRIPOS>ATOM
     1 La1       0.6619   -0.3105    1.7081   La        1 RES1   0.0000
     2 C1       -0.4297   -1.6136   -4.9636   C.3       1 RES1   0.0000
     3 C2       -1.8912   -1.2073   -5.1041   C.3       1 RES1   0.0000
     4 C3       -2.4234   -0.3919   -3.9202   C.3       1 RES1   0.0000
     5 C4       -2.3157   -1.0302   -2.5227   C.3       1 RES1   0.0000
     6 C5       -3.1828   -2.2695   -2.2767   C.3       1 RES1   0.0000
     7 C6       -2.9860   -2.8531   -0.8662   C.3       1 RES1   0.0000
     8 N1       -1.6190   -3.3731   -0.7418   N.ar      1 RES1   0.0000
     9 C7       -1.2131   -4.4335   -1.5360   C.ar      1 RES1   0.0000
    10 C8       -2.2540   -5.4027   -1.9168   C.ar      1 RES1   0.0000
    11 C9       -2.9660   -6.1170   -0.9493   C.ar      1 RES1   0.0000
    12 C10      -3.9544   -7.0074   -1.3373   C.ar      1 RES1   0.0000
    13 C11      -4.2712   -7.1515   -2.6802   C.ar      1 RES1   0.0000
    14 C12      -3.5687   -6.4389   -3.6402   C.ar      1 RES1   0.0000
    15 C13      -2.5474   -5.5882   -3.2669   C.ar      1 RES1   0.0000
    16 C14       0.0699   -4.5324   -2.0327   C.ar      1 RES1   0.0000
    17 C15       0.4587   -5.7734   -2.7285   C.ar      1 RES1   0.0000
    18 C16       0.8914   -5.8062   -4.0508   C.ar      1 RES1   0.0000
    19 C17       1.1851   -7.0139   -4.6559   C.ar      1 RES1   0.0000
    20 C18       1.0716   -8.2007   -3.9473   C.ar      1 RES1   0.0000
    21 C19       0.6746   -8.1723   -2.6181   C.ar      1 RES1   0.0000
    22 C20       0.3593   -6.9719   -2.0151   C.ar      1 RES1   0.0000
    23 C21       0.9484   -3.4110   -1.8161   C.ar      1 RES1   0.0000
    24 C22       2.0038   -2.9662   -2.6326   C.ar      1 RES1   0.0000
    25 C23       2.6002   -1.7221   -2.3978   C.ar      1 RES1   0.0000
    26 C24       3.4443   -1.0142   -3.3192   C.ar      1 RES1   0.0000
    27 C25       3.7647    0.2912   -3.1484   C.ar      1 RES1   0.0000
    28 C26       3.3290    1.0355   -1.9996   C.ar      1 RES1   0.0000
    29 C27       3.3506    2.4250   -1.8728   C.ar      1 RES1   0.0000
    30 C28       2.7117    3.0473   -0.7830   C.ar      1 RES1   0.0000
    31 C29       2.2858    4.4106   -0.7053   C.ar      1 RES1   0.0000
    32 C30       2.8086    5.5635   -1.4727   C.ar      1 RES1   0.0000
    33 C31       3.4005    6.5636   -0.6940   C.ar      1 RES1   0.0000
    34 C32       3.8623    7.7301   -1.2694   C.ar      1 RES1   0.0000
    35 C33       3.6995    7.9321   -2.6311   C.ar      1 RES1   0.0000
    36 C34       3.1079    6.9505   -3.4099   C.ar      1 RES1   0.0000
    37 C35       2.6728    5.7637   -2.8449   C.ar      1 RES1   0.0000
    38 C36       1.2175    4.6788    0.1381   C.ar      1 RES1   0.0000
    39 C37       0.3077    5.7793   -0.2189   C.ar      1 RES1   0.0000
    40 C38       0.0424    6.9238    0.5187   C.ar      1 RES1   0.0000
    41 C39      -0.9229    7.8131    0.0642   C.ar      1 RES1   0.0000
    42 C40      -1.6416    7.5487   -1.0929   C.ar      1 RES1   0.0000
    43 C41      -1.3753    6.4012   -1.8256   C.ar      1 RES1   0.0000
    44 C42      -0.3980    5.5279   -1.3989   C.ar      1 RES1   0.0000
    45 N2        0.7574    3.7895    1.0745   N.ar      1 RES1   0.0000
    46 C43      -0.5844    3.8529    1.6398   C.3       1 RES1   0.0000
    47 C44      -0.6870    4.4367    3.0407   C.3       1 RES1   0.0000
    48 C45      -1.8773    3.8049    3.7672   C.3       1 RES1   0.0000
    49 C46      -1.9070    4.2439    5.2323   C.3       1 RES1   0.0000
    50 C47      -0.9117    3.4547    6.0799   C.3       1 RES1   0.0000
    51 C48      -0.8779    3.9678    7.5072   C.3       1 RES1   0.0000
    52 C49       1.4165    2.6398    1.3300   C.ar      1 RES1   0.0000
    53 O1        1.0550    1.8593    2.2630   O.2       1 RES1   0.0000
    54 C50       2.2815    2.1910    0.2682   C.ar      1 RES1   0.0000
    55 N3        2.2977    0.8530    0.1739   N.ar      1 RES1   0.0000
    56 C51       2.7151    0.2940   -0.9564   C.ar      1 RES1   0.0000
    57 C52       2.2636   -1.0514   -1.1964   C.ar      1 RES1   0.0000
    58 N4        1.3271   -1.5010   -0.3603   N.ar      1 RES1   0.0000
    59 C53       0.6162   -2.5860   -0.7075   C.ar      1 RES1   0.0000
    60 C54      -0.6989   -2.6224   -0.0971   C.ar      1 RES1   0.0000
    61 O2       -0.9902   -1.8469    0.8654   O.2       1 RES1   0.0000
    62 H1       -0.0591   -1.9642   -5.9209   H         1 RES1   0.0000
    63 H2       -0.3126   -2.4185   -4.2401   H         1 RES1   0.0000
    64 H3        0.1701   -0.7582   -4.6555   H         1 RES1   0.0000
    65 H4       -2.5049   -2.0916   -5.2801   H         1 RES1   0.0000
    66 H5       -1.9911   -0.5682   -5.9830   H         1 RES1   0.0000
    67 H6       -3.4684   -0.1434   -4.1205   H         1 RES1   0.0000
    68 H7       -1.8517    0.5436   -3.8867   H         1 RES1   0.0000
    69 H8       -2.6357   -0.2659   -1.8000   H         1 RES1   0.0000
    70 H9       -1.2626   -1.2739   -2.3356   H         1 RES1   0.0000
    71 H10      -2.9644   -3.0420   -3.0130   H         1 RES1   0.0000
    72 H11      -4.2368   -2.0085   -2.3756   H         1 RES1   0.0000
    73 H12      -3.7160   -3.6380   -0.6804   H         1 RES1   0.0000
    74 H13      -3.1117   -2.0826   -0.1039   H         1 RES1   0.0000
    75 H14      -2.7180   -5.9992    0.0987   H         1 RES1   0.0000
    76 H15      -4.4957   -7.5864   -0.6018   H         1 RES1   0.0000
    77 H16      -5.0680   -7.8069   -2.9926   H         1 RES1   0.0000
    78 H17      -3.8077   -6.5465   -4.6842   H         1 RES1   0.0000
    79 H18      -1.9868   -5.0371   -4.0080   H         1 RES1   0.0000
    80 H19       0.9429   -4.8943   -4.6253   H         1 RES1   0.0000
    81 H20       1.4864   -7.0315   -5.6915   H         1 RES1   0.0000
    82 H21       1.2843   -9.1454   -4.4245   H         1 RES1   0.0000
    83 H22       0.5980   -9.0924   -2.0585   H         1 RES1   0.0000
    84 H23       0.0531   -6.9622   -0.9799   H         1 RES1   0.0000
    85 H24       2.2950   -3.5222   -3.5100   H         1 RES1   0.0000
    86 H25       3.7709   -1.5314   -4.2052   H         1 RES1   0.0000
    87 H26       4.3561    0.7939   -3.8961   H         1 RES1   0.0000
    88 H27       3.7602    3.0293   -2.6680   H         1 RES1   0.0000
    89 H28       3.5304    6.3972    0.3644   H         1 RES1   0.0000
    90 H29       4.3451    8.4853   -0.6672   H         1 RES1   0.0000
    91 H30       4.0389    8.8461   -3.0925   H         1 RES1   0.0000
    92 H31       2.9807    7.1197   -4.4680   H         1 RES1   0.0000
    93 H32       2.2074    5.0193   -3.4748   H         1 RES1   0.0000
    94 H33       0.6137    7.1363    1.4113   H         1 RES1   0.0000
    95 H34      -1.1219    8.7195    0.6158   H         1 RES1   0.0000
    96 H35      -2.4101    8.2277   -1.4295   H         1 RES1   0.0000
    97 H36      -1.9142    6.1802   -2.7336   H         1 RES1   0.0000
    98 H37      -0.1626    4.6346   -1.9629   H         1 RES1   0.0000
    99 H38      -0.9106    2.8069    1.7102   H         1 RES1   0.0000
   100 H39      -1.2223    4.3843    0.9381   H         1 RES1   0.0000
   101 H40      -0.8171    5.5167    2.9985   H         1 RES1   0.0000
   102 H41       0.2266    4.2228    3.5961   H         1 RES1   0.0000
   103 H42      -1.7902    2.7094    3.7157   H         1 RES1   0.0000
   104 H43      -2.8080    4.0821    3.2632   H         1 RES1   0.0000
   105 H44      -2.9106    4.1125    5.6375   H         1 RES1   0.0000
   106 H45      -1.6759    5.3092    5.2834   H         1 RES1   0.0000
   107 H46       0.0855    3.5246    5.6416   H         1 RES1   0.0000
   108 H47      -1.1989    2.3987    6.0736   H         1 RES1   0.0000
   109 H48      -0.5534    5.0027    7.5224   H         1 RES1   0.0000
   110 H49      -0.1937    3.3790    8.1070   H         1 RES1   0.0000
   111 H50      -1.8672    3.9077    7.9479   H         1 RES1   0.0000
   112 O3       -1.0388    0.8442    0.1771   O.3       1 RES1   0.0000
   113 H51      -1.7816    1.4025    0.4642   H         1 RES1   0.0000
   114 H52      -1.3841    0.3284   -0.5809   H         1 RES1   0.0000
   115 O4        1.9541   -1.1892    3.7390   O.3       1 RES1   0.0000
   116 H53       2.5476   -0.6865    4.3241   H         1 RES1   0.0000
   117 H54       2.1052   -2.1187    3.9702   H         1 RES1   0.0000
   118 O5       -0.8250   -0.2213    3.7638   O.3       1 RES1   0.0000
   119 H55      -1.4902   -0.8210    4.1333   H         1 RES1   0.0000
   120 H56      -0.6240    0.4166    4.4700   H         1 RES1   0.0000
@<TRIPOS>BOND
     1     1     8    1
     2     1    45    1
     3     1    53    1
     4     1    55    1
     5     1    58    1
     6     1    61    1
     7     1   112    1
     8     1   115    1
     9     1   118    1
    10     2     3    1
    11     2    62    1
    12     2    63    1
    13     2    64    1
    14     3     4    1
    15     3    65    1
    16     3    66    1
    17     4     5    1
    18     4    67    1
    19     4    68    1
    20     5     6    1
    21     5    69    1
    22     5    70    1
    23     6     7    1
    24     6    71    1
    25     6    72    1
    26     7     8    1
    27     7    73    1
    28     7    74    1
    29     8     9    1
    30     8    60    1
    31     9    10    1
    32     9    16    2
    33    10    11    1
    34    10    15    2
    35    11    12    2
    36    11    75    1
    37    12    13    1
    38    12    76    1
    39    13    14    2
    40    13    77    1
    41    14    15    1
    42    14    78    1
    43    15    79    1
    44    16    17    1
    45    16    23    1
    46    17    18    1
    47    17    22    2
    48    18    19    2
    49    18    80    1
    50    19    20    1
    51    19    81    1
    52    20    21    2
    53    20    82    1
    54    21    22    1
    55    21    83    1
    56    22    84    1
    57    23    24    1
    58    23    59    2
    59    24    25    2
    60    24    85    1
    61    25    26    1
    62    25    57    1
    63    26    27    2
    64    26    86    1
    65    27    28    1
    66    27    87    1
    67    28    29    1
    68    28    56    2
    69    29    30    2
    70    29    88    1
    71    30    31    1
    72    30    54    1
    73    31    32    1
    74    31    38    2
    75    32    33    1
    76    32    37    2
    77    33    34    2
    78    33    89    1
    79    34    35    1
    80    34    90    1
    81    35    36    2
    82    35    91    1
    83    36    37    1
    84    36    92    1
    85    37    93    1
    86    38    39    1
    87    38    45    1
    88    39    40    1
    89    39    44    2
    90    40    41    2
    91    40    94    1
    92    41    42    1
    93    41    95    1
    94    42    43    2
    95    42    96    1
    96    43    44    1
    97    43    97    1
    98    44    98    1
    99    45    46    1
   100    45    52    1
   101    46    47    1
   102    46    99    1
   103    46   100    1
   104    47    48    1
   105    47   101    1
   106    47   102    1
   107    48    49    1
   108    48   103    1
   109    48   104    1
   110    49    50    1
   111    49   105    1
   112    49   106    1
   113    50    51    1
   114    50   107    1
   115    50   108    1
   116    51   109    1
   117    51   110    1
   118    51   111    1
   119    52    53    2
   120    52    54    1
   121    54    55    2
   122    55    56    1
   123    56    57    1
   124    57    58    2
   125    58    59    1
   126    59    60    1
   127    60    61    2
   128   112   113    1
   129   112   114    1
   130   115   116    1
   131   115   117    1
   132   118   119    1
   133   118   120    1
@<TRIPOS>SUBSTRUCTURE
     1 RES1      120 GROUP             0 ****  ****    0  
