@<TRIPOS>MOLECULE
am_c3_9H2O_c0_0_nunpairedes_0_charge_3 Charge: 3 Unpaired_Electrons: 0 XTB_Unpaired_Electrons: 0 XTB_Charge: 3
    64    69     1     0     0
SMALL
NoCharges
****
Generated from Architector

@<TRIPOS>ATOM
     1 La1      -0.0120   -0.1743   -0.2000   La        1 RES1   0.0000
     2 C1        2.9021   -1.4983    0.9408   C.3       1 RES1   0.0000
     3 O1        1.6748   -1.0413    1.5499   O.3       1 RES1   0.0000
     4 C2        1.3304   -1.9029    2.6575   C.3       1 RES1   0.0000
     5 C3        0.3337   -1.2858    3.6377   C.3       1 RES1   0.0000
     6 N1       -0.9411   -0.7426    3.1494   N.am      1 RES1   0.0000
     7 C4       -1.3691    0.5022    3.7824   C.3       1 RES1   0.0000
     8 C5       -1.1750    1.6624    2.7772   C.3       1 RES1   0.0000
     9 O2       -0.0280    1.4590    1.9306   O.3       1 RES1   0.0000
    10 C6        1.1497    2.0558    2.5046   C.3       1 RES1   0.0000
    11 C7       -1.5209   -1.1862    2.0426   C.2       1 RES1   0.0000
    12 O3       -0.9292   -1.8809    1.1895   O.2       1 RES1   0.0000
    13 C8       -2.9183   -0.7453    1.5987   C.3       1 RES1   0.0000
    14 O4       -2.6328   -0.0532    0.3732   O.3       1 RES1   0.0000
    15 C9       -3.2238   -0.5145   -0.8514   C.3       1 RES1   0.0000
    16 C10      -2.2112   -0.0425   -1.8966   C.2       1 RES1   0.0000
    17 O5       -1.1862   -0.7553   -2.0209   O.2       1 RES1   0.0000
    18 N2       -2.3490    1.1142   -2.5261   N.am      1 RES1   0.0000
    19 C11      -3.3195    2.1114   -2.1024   C.3       1 RES1   0.0000
    20 C12      -3.0482    2.5796   -0.6473   C.3       1 RES1   0.0000
    21 O6       -1.6761    2.3974   -0.2679   O.3       1 RES1   0.0000
    22 C13      -0.9984    3.6523   -0.1071   C.3       1 RES1   0.0000
    23 C14      -1.4271    1.5011   -3.5950   C.3       1 RES1   0.0000
    24 C15       0.0824    1.3430   -3.3383   C.3       1 RES1   0.0000
    25 O7        0.4743    1.6188   -1.9759   O.3       1 RES1   0.0000
    26 C16       1.6198    2.4918   -1.9215   C.3       1 RES1   0.0000
    27 H1        3.5927   -1.8778    1.6958   H         1 RES1   0.0000
    28 H2        3.3664   -0.6391    0.4589   H         1 RES1   0.0000
    29 H3        2.7001   -2.3012    0.2240   H         1 RES1   0.0000
    30 H4        2.2350   -2.0788    3.2554   H         1 RES1   0.0000
    31 H5        0.9850   -2.8691    2.2815   H         1 RES1   0.0000
    32 H6        0.8397   -0.4797    4.1674   H         1 RES1   0.0000
    33 H7        0.0989   -2.0678    4.3710   H         1 RES1   0.0000
    34 H8       -0.7578    0.6619    4.6691   H         1 RES1   0.0000
    35 H9       -2.4030    0.4678    4.1252   H         1 RES1   0.0000
    36 H10      -1.0729    2.6036    3.3279   H         1 RES1   0.0000
    37 H11      -2.0267    1.7458    2.0987   H         1 RES1   0.0000
    38 H12       1.4027    1.5958    3.4602   H         1 RES1   0.0000
    39 H13       0.9987    3.1268    2.6655   H         1 RES1   0.0000
    40 H14       1.9738    1.9024    1.8108   H         1 RES1   0.0000
    41 H15      -3.4571   -0.0839    2.2822   H         1 RES1   0.0000
    42 H16      -3.5115   -1.6462    1.4189   H         1 RES1   0.0000
    43 H17      -4.2390   -0.1265   -0.9792   H         1 RES1   0.0000
    44 H18      -3.2348   -1.6123   -0.8921   H         1 RES1   0.0000
    45 H19      -4.3390    1.7330   -2.1804   H         1 RES1   0.0000
    46 H20      -3.2354    2.9646   -2.7759   H         1 RES1   0.0000
    47 H21      -3.6647    2.0262    0.0663   H         1 RES1   0.0000
    48 H22      -3.3261    3.6344   -0.5674   H         1 RES1   0.0000
    49 H23      -1.0258    4.2380   -1.0295   H         1 RES1   0.0000
    50 H24       0.0294    3.4212    0.1624   H         1 RES1   0.0000
    51 H25      -1.4522    4.2479    0.6920   H         1 RES1   0.0000
    52 H26      -1.6384    2.5449   -3.8279   H         1 RES1   0.0000
    53 H27      -1.6599    0.8984   -4.4782   H         1 RES1   0.0000
    54 H28       0.5808    2.0470   -4.0110   H         1 RES1   0.0000
    55 H29       0.4143    0.3307   -3.5944   H         1 RES1   0.0000
    56 H30       2.4009    2.1661   -2.6150   H         1 RES1   0.0000
    57 H31       2.0139    2.4584   -0.9032   H         1 RES1   0.0000
    58 H32       1.3401    3.5200   -2.1750   H         1 RES1   0.0000
    59 O8        0.4290   -2.7060   -0.9721   O.3       1 RES1   0.0000
    60 H33       0.0713   -3.0100   -1.8181   H         1 RES1   0.0000
    61 H34       0.1603   -3.4002   -0.3491   H         1 RES1   0.0000
    62 O9        2.0918   -0.5412   -1.7815   O.3       1 RES1   0.0000
    63 H35       2.8811   -0.0448   -2.0501   H         1 RES1   0.0000
    64 H36       2.1486   -1.3736   -2.2802   H         1 RES1   0.0000
@<TRIPOS>BOND
     1     1     3    1
     2     1     9    1
     3     1    12    1
     4     1    14    1
     5     1    17    1
     6     1    21    1
     7     1    25    1
     8     1    59    1
     9     1    62    1
    10     2     3    1
    11     2    27    1
    12     2    28    1
    13     2    29    1
    14     3     4    1
    15     4     5    1
    16     4    30    1
    17     4    31    1
    18     5     6    1
    19     5    32    1
    20     5    33    1
    21     6     7    1
    22     6    11    1
    23     7     8    1
    24     7    34    1
    25     7    35    1
    26     8     9    1
    27     8    36    1
    28     8    37    1
    29     9    10    1
    30    10    38    1
    31    10    39    1
    32    10    40    1
    33    11    12    2
    34    11    13    1
    35    13    14    1
    36    13    41    1
    37    13    42    1
    38    14    15    1
    39    15    16    1
    40    15    43    1
    41    15    44    1
    42    16    17    2
    43    16    18    1
    44    18    19    1
    45    18    23    1
    46    19    20    1
    47    19    45    1
    48    19    46    1
    49    20    21    1
    50    20    47    1
    51    20    48    1
    52    21    22    1
    53    22    49    1
    54    22    50    1
    55    22    51    1
    56    23    24    1
    57    23    52    1
    58    23    53    1
    59    24    25    1
    60    24    54    1
    61    24    55    1
    62    25    26    1
    63    26    56    1
    64    26    57    1
    65    26    58    1
    66    59    60    1
    67    59    61    1
    68    62    63    1
    69    62    64    1
@<TRIPOS>SUBSTRUCTURE
     1 RES1       64 GROUP             0 ****  ****    0  
