@<TRIPOS>MOLECULE
am_c3_9H2O_c0_0_nunpairedes_0_charge_2 Charge: 2 Unpaired_Electrons: 0 XTB_Unpaired_Electrons: 0 XTB_Charge: 2
    66    75     1     0     0
SMALL
NoCharges
****
Generated from Architector

@<TRIPOS>ATOM
     1 La1      -0.1951   -0.1678   -0.2242   La        1 RES1   0.0000
     2 C1       -2.1608    0.6747   -2.9643   C.3       1 RES1   0.0000
     3 C2       -2.6108   -0.4105   -3.9399   C.3       1 RES1   0.0000
     4 C3       -3.5110   -1.4860   -3.3036   C.3       1 RES1   0.0000
     5 C4       -2.7872   -2.2633   -2.2640   C.ar      1 RES1   0.0000
     6 N1       -2.1965   -3.3849   -2.5752   N.ar      1 RES1   0.0000
     7 N2       -1.3430   -4.0043   -1.8489   N.ar      1 RES1   0.0000
     8 C5       -0.8250   -3.2807   -0.8589   C.ar      1 RES1   0.0000
     9 C6        0.6152   -3.3742   -0.5647   C.ar      1 RES1   0.0000
    10 C7        1.3903   -4.5050   -0.3701   C.ar      1 RES1   0.0000
    11 C8        2.7716   -4.3467   -0.3185   C.ar      1 RES1   0.0000
    12 C9        3.3504   -3.1213   -0.6360   C.ar      1 RES1   0.0000
    13 C10       2.4992   -2.0489   -0.8576   C.ar      1 RES1   0.0000
    14 C11       2.8232   -0.7540   -1.4737   C.ar      1 RES1   0.0000
    15 N3        3.6447   -0.6914   -2.5129   N.ar      1 RES1   0.0000
    16 N4        3.3223    0.1361   -3.4359   N.ar      1 RES1   0.0000
    17 C12       2.4113    1.0708   -3.3213   C.ar      1 RES1   0.0000
    18 C13       1.7446    1.6722   -4.5042   C.3       1 RES1   0.0000
    19 C14       1.3263    0.5865   -5.5152   C.3       1 RES1   0.0000
    20 C15       2.4967    0.1792   -6.3943   C.3       1 RES1   0.0000
    21 C16       1.9920    1.3529   -1.9751   C.ar      1 RES1   0.0000
    22 C17       1.7410    2.7080   -1.4169   C.3       1 RES1   0.0000
    23 C18       3.0386    3.5370   -1.6380   C.3       1 RES1   0.0000
    24 C19       4.2751    2.8874   -1.0354   C.3       1 RES1   0.0000
    25 N5        2.0417    0.2991   -1.1467   N.ar      1 RES1   0.0000
    26 N6        1.1652   -2.1598   -0.7229   N.ar      1 RES1   0.0000
    27 N7       -1.5097   -2.2614   -0.3246   N.ar      1 RES1   0.0000
    28 C20      -2.6779   -1.8850   -0.8807   C.ar      1 RES1   0.0000
    29 C21      -3.8331   -1.5395   -0.0219   C.3       1 RES1   0.0000
    30 C22      -4.8445   -2.7033   -0.2178   C.3       1 RES1   0.0000
    31 C23      -4.3501   -4.0068    0.3934   C.3       1 RES1   0.0000
    32 H1       -1.7531    1.5218   -3.5093   H         1 RES1   0.0000
    33 H2       -1.3517    0.3012   -2.2740   H         1 RES1   0.0000
    34 H3       -3.0008    1.0454   -2.3773   H         1 RES1   0.0000
    35 H4       -1.7422   -0.8824   -4.4054   H         1 RES1   0.0000
    36 H5       -3.1979    0.0726   -4.7218   H         1 RES1   0.0000
    37 H6       -3.8228   -2.1771   -4.0868   H         1 RES1   0.0000
    38 H7       -4.3840   -0.9928   -2.8768   H         1 RES1   0.0000
    39 H8        0.9215   -5.4678   -0.2556   H         1 RES1   0.0000
    40 H9        3.3927   -5.1945   -0.0777   H         1 RES1   0.0000
    41 H10       4.4189   -2.9954   -0.7034   H         1 RES1   0.0000
    42 H11       2.4088    2.3540   -5.0394   H         1 RES1   0.0000
    43 H12       0.8818    2.2467   -4.1597   H         1 RES1   0.0000
    44 H13       0.5431    1.0073   -6.1423   H         1 RES1   0.0000
    45 H14       0.9094   -0.2879   -5.0055   H         1 RES1   0.0000
    46 H15       2.9625    1.0669   -6.8117   H         1 RES1   0.0000
    47 H16       2.1623   -0.4329   -7.2253   H         1 RES1   0.0000
    48 H17       3.2429   -0.3713   -5.8287   H         1 RES1   0.0000
    49 H18       1.4924    2.6150   -0.3450   H         1 RES1   0.0000
    50 H19       0.9288    3.2243   -1.9359   H         1 RES1   0.0000
    51 H20       2.8920    4.5340   -1.2176   H         1 RES1   0.0000
    52 H21       3.1736    3.6289   -2.7180   H         1 RES1   0.0000
    53 H22       4.2460    2.8816    0.0473   H         1 RES1   0.0000
    54 H23       5.1583    3.4382   -1.3369   H         1 RES1   0.0000
    55 H24       4.4032    1.8674   -1.3838   H         1 RES1   0.0000
    56 H25      -4.3142   -0.6110   -0.3212   H         1 RES1   0.0000
    57 H26      -3.5294   -1.4732    1.0264   H         1 RES1   0.0000
    58 H27      -5.0146   -2.8355   -1.2881   H         1 RES1   0.0000
    59 H28      -5.7901   -2.4133    0.2387   H         1 RES1   0.0000
    60 H29      -3.3761   -4.3067    0.0098   H         1 RES1   0.0000
    61 H30      -5.0394   -4.8097    0.1495   H         1 RES1   0.0000
    62 H31      -4.2917   -3.9339    1.4760   H         1 RES1   0.0000
    63 N8       -1.7350    0.9207    1.4423   N.3       1 RES1   0.0000
    64 O1       -2.5802    1.2628    2.1749   O.2       1 RES1   0.0000
    65 O2       -0.8869    0.0422    1.7347   O.co2     1 RES1   0.0000
    66 O3       -1.6054    1.3707    0.2693   O.co2     1 RES1   0.0000
@<TRIPOS>BOND
     1     1     6    1
     2     1     7    1
     3     1    15    1
     4     1    16    1
     5     1    25    1
     6     1    26    1
     7     1    27    1
     8     1    65    1
     9     1    66    1
    10     2     3    1
    11     2    32    1
    12     2    33    1
    13     2    34    1
    14     3     4    1
    15     3    35    1
    16     3    36    1
    17     4     5    1
    18     4    37    1
    19     4    38    1
    20     5     6    1
    21     5    28    2
    22     6     7    2
    23     7     8    1
    24     8     9    1
    25     8    27    2
    26     9    10    1
    27     9    26    2
    28    10    11    2
    29    10    39    1
    30    11    12    1
    31    11    40    1
    32    12    13    2
    33    12    41    1
    34    13    14    1
    35    13    26    1
    36    14    15    1
    37    14    25    2
    38    15    16    2
    39    16    17    1
    40    17    18    1
    41    17    21    2
    42    18    19    1
    43    18    42    1
    44    18    43    1
    45    19    20    1
    46    19    44    1
    47    19    45    1
    48    20    46    1
    49    20    47    1
    50    20    48    1
    51    21    22    1
    52    21    25    1
    53    22    23    1
    54    22    49    1
    55    22    50    1
    56    23    24    1
    57    23    51    1
    58    23    52    1
    59    24    53    1
    60    24    54    1
    61    24    55    1
    62    27    28    1
    63    28    29    1
    64    29    30    1
    65    29    56    1
    66    29    57    1
    67    30    31    1
    68    30    58    1
    69    30    59    1
    70    31    60    1
    71    31    61    1
    72    31    62    1
    73    63    64    2
    74    63    65    1
    75    63    66    1
@<TRIPOS>SUBSTRUCTURE
     1 RES1       66 GROUP             0 ****  ****    0  
