@<TRIPOS>MOLECULE
capped_square_antiprismatic_0_nunpairedes_0_charge_3 Charge: 3 Unpaired_Electrons: 0 XTB_Unpaired_Electrons: 0 XTB_Charge: 3
   340   345     1     0     0
SMALL
NoCharges
****
Generated from Architector

@<TRIPOS>ATOM
     1 La1      -0.0101   -0.0129   -0.2890   La        1 RES1   0.0000
     2 C1       -6.3085    6.6399   -0.8805   C.3       1 RES1   0.0000
     3 C2       -6.2453    6.1444    0.5598   C.3       1 RES1   0.0000
     4 C3       -6.4957    4.6408    0.7030   C.3       1 RES1   0.0000
     5 C4       -7.9409    4.2187    0.3998   C.3       1 RES1   0.0000
     6 C5       -8.1631    3.7415   -1.0370   C.3       1 RES1   0.0000
     7 C6       -7.5173    2.3917   -1.3430   C.3       1 RES1   0.0000
     8 C7       -7.6111    2.0566   -2.8292   C.3       1 RES1   0.0000
     9 C8       -6.8277    0.7972   -3.1799   C.3       1 RES1   0.0000
    10 C9       -6.5717    0.6663   -4.6802   C.3       1 RES1   0.0000
    11 C10      -5.6789   -0.5220   -5.0397   C.3       1 RES1   0.0000
    12 C11      -4.2892   -0.3488   -4.4236   C.3       1 RES1   0.0000
    13 C12      -3.4786   -1.6402   -4.4764   C.3       1 RES1   0.0000
    14 N1       -2.0753   -1.5035   -4.0793   N.am      1 RES1   0.0000
    15 C13      -1.1266   -1.9427   -5.1095   C.3       1 RES1   0.0000
    16 C14      -0.9910   -1.1126   -6.4070   C.3       1 RES1   0.0000
    17 C15      -2.2595   -0.5686   -7.0750   C.3       1 RES1   0.0000
    18 C16      -2.0059    0.2262   -8.3628   C.3       1 RES1   0.0000
    19 C17      -3.1697    1.1770   -8.6700   C.3       1 RES1   0.0000
    20 C18      -3.1015    2.4778   -7.8669   C.3       1 RES1   0.0000
    21 C19      -4.1260    3.5152   -8.3264   C.3       1 RES1   0.0000
    22 C20      -4.0144    4.8473   -7.5743   C.3       1 RES1   0.0000
    23 C21      -4.3723    4.7609   -6.0783   C.3       1 RES1   0.0000
    24 C22      -3.1570    4.8850   -5.1571   C.3       1 RES1   0.0000
    25 C23      -3.5238    4.7416   -3.6783   C.3       1 RES1   0.0000
    26 C24      -3.6912    3.2912   -3.2361   C.3       1 RES1   0.0000
    27 C25      -1.6970   -1.2972   -2.8275   C.2       1 RES1   0.0000
    28 O1       -0.5082   -1.2427   -2.4314   O.2       1 RES1   0.0000
    29 C26      -2.7469   -1.1240   -1.7180   C.3       1 RES1   0.0000
    30 O2       -2.4203    0.1024   -1.0543   O.3       1 RES1   0.0000
    31 C27      -3.3206    0.4204    0.0090   C.3       1 RES1   0.0000
    32 C28      -2.9410    1.8097    0.5095   C.3       1 RES1   0.0000
    33 O3       -1.5525    1.7937    0.8432   O.3       1 RES1   0.0000
    34 C29      -1.1090    3.0146    1.4295   C.3       1 RES1   0.0000
    35 C30       0.4285    3.0326    1.4017   C.2       1 RES1   0.0000
    36 O4        1.0193    2.0800    0.8338   O.2       1 RES1   0.0000
    37 N2        1.0526    4.0688    1.9452   N.am      1 RES1   0.0000
    38 C31       2.5184    4.1844    1.8884   C.3       1 RES1   0.0000
    39 C32       3.0494    5.5896    1.5718   C.3       1 RES1   0.0000
    40 C33       4.5710    5.6266    1.7854   C.3       1 RES1   0.0000
    41 C34       5.2657    6.8103    1.1028   C.3       1 RES1   0.0000
    42 C35       5.3576    6.7224   -0.4229   C.3       1 RES1   0.0000
    43 C36       6.3922    5.7109   -0.9313   C.3       1 RES1   0.0000
    44 C37       5.9223    4.2736   -1.1650   C.3       1 RES1   0.0000
    45 C38       4.9636    4.1005   -2.3487   C.3       1 RES1   0.0000
    46 C39       3.4789    4.3661   -2.0390   C.3       1 RES1   0.0000
    47 C40       2.8187    5.4229   -2.9260   C.3       1 RES1   0.0000
    48 C41       1.5077    5.9275   -2.3191   C.3       1 RES1   0.0000
    49 C42       0.4255    4.8606   -2.1753   C.3       1 RES1   0.0000
    50 C43       0.3980    5.1411    2.6962   C.3       1 RES1   0.0000
    51 C44       1.0171    5.2974    4.0952   C.3       1 RES1   0.0000
    52 C45       0.2892    6.3450    4.9423   C.3       1 RES1   0.0000
    53 C46      -1.0541    5.9167    5.5397   C.3       1 RES1   0.0000
    54 C47      -0.9461    5.2299    6.9066   C.3       1 RES1   0.0000
    55 C48      -0.6520    3.7311    6.8694   C.3       1 RES1   0.0000
    56 C49      -1.8171    2.9221    6.3058   C.3       1 RES1   0.0000
    57 C50      -1.4693    1.4431    6.1755   C.3       1 RES1   0.0000
    58 C51      -2.6826    0.5578    5.8976   C.3       1 RES1   0.0000
    59 C52      -3.3206    0.7992    4.5303   C.3       1 RES1   0.0000
    60 C53      -4.4950   -0.1408    4.2578   C.3       1 RES1   0.0000
    61 C54      -4.0543   -1.5894    4.0835   C.3       1 RES1   0.0000
    62 H1       -5.9353    7.6590   -0.9458   H         1 RES1   0.0000
    63 H2       -7.3295    6.6349   -1.2499   H         1 RES1   0.0000
    64 H3       -5.7008    6.0080   -1.5270   H         1 RES1   0.0000
    65 H4       -6.9787    6.6844    1.1595   H         1 RES1   0.0000
    66 H5       -5.2564    6.3704    0.9709   H         1 RES1   0.0000
    67 H6       -6.2501    4.3529    1.7292   H         1 RES1   0.0000
    68 H7       -5.8062    4.1082    0.0410   H         1 RES1   0.0000
    69 H8       -8.5983    5.0668    0.5992   H         1 RES1   0.0000
    70 H9       -8.2395    3.4212    1.0835   H         1 RES1   0.0000
    71 H10      -7.7754    4.4885   -1.7289   H         1 RES1   0.0000
    72 H11      -9.2346    3.6558   -1.2146   H         1 RES1   0.0000
    73 H12      -8.0051    1.6093   -0.7586   H         1 RES1   0.0000
    74 H13      -6.4627    2.4146   -1.0459   H         1 RES1   0.0000
    75 H14      -7.2120    2.8952   -3.4012   H         1 RES1   0.0000
    76 H15      -8.6528    1.9297   -3.1160   H         1 RES1   0.0000
    77 H16      -7.3566   -0.0894   -2.8278   H         1 RES1   0.0000
    78 H17      -5.8755    0.8458   -2.6459   H         1 RES1   0.0000
    79 H18      -6.0870    1.5722   -5.0499   H         1 RES1   0.0000
    80 H19      -7.5295    0.5721   -5.1899   H         1 RES1   0.0000
    81 H20      -5.5922   -0.5851   -6.1249   H         1 RES1   0.0000
    82 H21      -6.1423   -1.4488   -4.6980   H         1 RES1   0.0000
    83 H22      -4.4020   -0.0014   -3.4008   H         1 RES1   0.0000
    84 H23      -3.7699    0.4516   -4.9459   H         1 RES1   0.0000
    85 H24      -3.4624   -2.0110   -5.4975   H         1 RES1   0.0000
    86 H25      -3.9622   -2.4070   -3.8731   H         1 RES1   0.0000
    87 H26      -1.4419   -2.9477   -5.4026   H         1 RES1   0.0000
    88 H27      -0.1420   -2.0209   -4.6416   H         1 RES1   0.0000
    89 H28      -0.4935   -1.7868   -7.1090   H         1 RES1   0.0000
    90 H29      -0.3229   -0.2758   -6.2252   H         1 RES1   0.0000
    91 H30      -2.9390   -1.3834   -7.3338   H         1 RES1   0.0000
    92 H31      -2.7503    0.1127   -6.3866   H         1 RES1   0.0000
    93 H32      -1.8592   -0.4690   -9.1917   H         1 RES1   0.0000
    94 H33      -1.1023    0.8269   -8.2641   H         1 RES1   0.0000
    95 H34      -4.1165    0.6727   -8.4728   H         1 RES1   0.0000
    96 H35      -3.1428    1.4253   -9.7291   H         1 RES1   0.0000
    97 H36      -2.1086    2.9196   -7.9805   H         1 RES1   0.0000
    98 H37      -3.2569    2.2724   -6.8057   H         1 RES1   0.0000
    99 H38      -5.1382    3.1254   -8.2073   H         1 RES1   0.0000
   100 H39      -3.9799    3.7105   -9.3907   H         1 RES1   0.0000
   101 H40      -4.6800    5.5627   -8.0629   H         1 RES1   0.0000
   102 H41      -2.9972    5.2309   -7.6827   H         1 RES1   0.0000
   103 H42      -4.8940    3.8214   -5.8856   H         1 RES1   0.0000
   104 H43      -5.0678    5.5625   -5.8247   H         1 RES1   0.0000
   105 H44      -2.7106    5.8679   -5.3150   H         1 RES1   0.0000
   106 H45      -2.4071    4.1373   -5.4239   H         1 RES1   0.0000
   107 H46      -4.4535    5.2836   -3.4967   H         1 RES1   0.0000
   108 H47      -2.7507    5.2086   -3.0645   H         1 RES1   0.0000
   109 H48      -4.3830    2.7694   -3.8894   H         1 RES1   0.0000
   110 H49      -4.0987    3.2528   -2.2268   H         1 RES1   0.0000
   111 H50      -2.7361    2.7640   -3.2463   H         1 RES1   0.0000
   112 H51      -2.6021   -1.9634   -1.0186   H         1 RES1   0.0000
   113 H52      -3.7850   -1.0829   -2.0446   H         1 RES1   0.0000
   114 H53      -3.2296   -0.3121    0.8256   H         1 RES1   0.0000
   115 H54      -4.3581    0.4232   -0.3543   H         1 RES1   0.0000
   116 H55      -3.5497    2.0569    1.3866   H         1 RES1   0.0000
   117 H56      -3.1157    2.5443   -0.2850   H         1 RES1   0.0000
   118 H57      -1.4919    3.0871    2.4551   H         1 RES1   0.0000
   119 H58      -1.4752    3.8767    0.8575   H         1 RES1   0.0000
   120 H59       2.8629    3.4769    1.1303   H         1 RES1   0.0000
   121 H60       2.9337    3.8749    2.8517   H         1 RES1   0.0000
   122 H61       2.6120    6.3470    2.2197   H         1 RES1   0.0000
   123 H62       2.7885    5.8595    0.5496   H         1 RES1   0.0000
   124 H63       5.0249    4.6993    1.4348   H         1 RES1   0.0000
   125 H64       4.7670    5.6913    2.8588   H         1 RES1   0.0000
   126 H65       6.2808    6.8737    1.4985   H         1 RES1   0.0000
   127 H66       4.7608    7.7384    1.3802   H         1 RES1   0.0000
   128 H67       5.6515    7.7080   -0.7865   H         1 RES1   0.0000
   129 H68       4.3835    6.5114   -0.8529   H         1 RES1   0.0000
   130 H69       7.2326    5.6932   -0.2344   H         1 RES1   0.0000
   131 H70       6.7832    6.0620   -1.8864   H         1 RES1   0.0000
   132 H71       5.4651    3.8490   -0.2702   H         1 RES1   0.0000
   133 H72       6.8194    3.6808   -1.3716   H         1 RES1   0.0000
   134 H73       5.0952    3.0681   -2.6738   H         1 RES1   0.0000
   135 H74       5.2894    4.7359   -3.1724   H         1 RES1   0.0000
   136 H75       3.3764    4.6521   -0.9938   H         1 RES1   0.0000
   137 H76       2.8928    3.4554   -2.1568   H         1 RES1   0.0000
   138 H77       2.6253    4.9982   -3.9149   H         1 RES1   0.0000
   139 H78       3.4822    6.2786   -3.0528   H         1 RES1   0.0000
   140 H79       1.1125    6.7302   -2.9428   H         1 RES1   0.0000
   141 H80       1.7157    6.3563   -1.3355   H         1 RES1   0.0000
   142 H81       0.2420    4.3806   -3.1334   H         1 RES1   0.0000
   143 H82      -0.5022    5.3181   -1.8358   H         1 RES1   0.0000
   144 H83       0.7003    4.0865   -1.4588   H         1 RES1   0.0000
   145 H84      -0.6627    4.9296    2.8048   H         1 RES1   0.0000
   146 H85       0.4992    6.0746    2.1318   H         1 RES1   0.0000
   147 H86       2.0542    5.6174    4.0174   H         1 RES1   0.0000
   148 H87       1.0156    4.3251    4.5869   H         1 RES1   0.0000
   149 H88       0.1490    7.2307    4.3198   H         1 RES1   0.0000
   150 H89       0.9496    6.6343    5.7599   H         1 RES1   0.0000
   151 H90      -1.5944    5.2828    4.8349   H         1 RES1   0.0000
   152 H91      -1.6521    6.8176    5.6714   H         1 RES1   0.0000
   153 H92      -1.8844    5.3727    7.4444   H         1 RES1   0.0000
   154 H93      -0.1706    5.7350    7.4844   H         1 RES1   0.0000
   155 H94      -0.4576    3.4008    7.8905   H         1 RES1   0.0000
   156 H95       0.2554    3.5374    6.2951   H         1 RES1   0.0000
   157 H96      -2.1055    3.3147    5.3282   H         1 RES1   0.0000
   158 H97      -2.6709    3.0363    6.9741   H         1 RES1   0.0000
   159 H98      -1.0096    1.1089    7.1070   H         1 RES1   0.0000
   160 H99      -0.7286    1.3140    5.3784   H         1 RES1   0.0000
   161 H100     -3.4338    0.7386    6.6657   H         1 RES1   0.0000
   162 H101     -2.3784   -0.4865    5.9839   H         1 RES1   0.0000
   163 H102     -2.5682    0.6733    3.7391   H         1 RES1   0.0000
   164 H103     -3.6824    1.8274    4.4849   H         1 RES1   0.0000
   165 H104     -5.0127    0.1858    3.3518   H         1 RES1   0.0000
   166 H105     -5.2039   -0.0754    5.0824   H         1 RES1   0.0000
   167 H106     -3.2229   -1.6403    3.3790   H         1 RES1   0.0000
   168 H107     -4.8775   -2.1874    3.7021   H         1 RES1   0.0000
   169 H108     -3.7411   -2.0204    5.0303   H         1 RES1   0.0000
   170 C55       5.7637   -6.2574   -0.8750   C.3       1 RES1   0.0000
   171 C56       5.6717   -5.7547    0.5613   C.3       1 RES1   0.0000
   172 C57       5.9771   -4.2621    0.7080   C.3       1 RES1   0.0000
   173 C58       7.4486   -3.8928    0.4756   C.3       1 RES1   0.0000
   174 C59       7.7787   -3.4524   -0.9509   C.3       1 RES1   0.0000
   175 C60       7.1815   -2.0954   -1.3123   C.3       1 RES1   0.0000
   176 C61       7.4300   -1.7440   -2.7753   C.3       1 RES1   0.0000
   177 C62       6.8096   -0.4006   -3.1415   C.3       1 RES1   0.0000
   178 C63       6.6521   -0.2186   -4.6476   C.3       1 RES1   0.0000
   179 C64       5.6950    0.9211   -4.9865   C.3       1 RES1   0.0000
   180 C65       4.2432    0.5213   -4.6972   C.3       1 RES1   0.0000
   181 C66       3.3646    1.7617   -4.4938   C.3       1 RES1   0.0000
   182 N3        1.9960    1.5195   -4.0351   N.am      1 RES1   0.0000
   183 C67       0.8698    1.8054   -4.9449   C.3       1 RES1   0.0000
   184 C68       1.1606    1.8589   -6.4555   C.3       1 RES1   0.0000
   185 C69       1.9761    0.6694   -6.9921   C.3       1 RES1   0.0000
   186 C70       1.6782    0.1694   -8.4083   C.3       1 RES1   0.0000
   187 C71       2.6922   -0.9116   -8.8123   C.3       1 RES1   0.0000
   188 C72       2.5803   -2.1955   -7.9865   C.3       1 RES1   0.0000
   189 C73       3.5520   -3.2870   -8.4337   C.3       1 RES1   0.0000
   190 C74       3.4050   -4.5695   -7.6097   C.3       1 RES1   0.0000
   191 C75       3.8141   -4.4084   -6.1343   C.3       1 RES1   0.0000
   192 C76       2.6260   -4.4278   -5.1700   C.3       1 RES1   0.0000
   193 C77       3.0425   -4.1993   -3.7148   C.3       1 RES1   0.0000
   194 C78       3.3904   -2.7454   -3.4109   C.3       1 RES1   0.0000
   195 C79       1.6906    1.2248   -2.7787   C.2       1 RES1   0.0000
   196 O5        0.5121    1.1648   -2.3489   O.2       1 RES1   0.0000
   197 C80       2.7888    0.9313   -1.7470   C.3       1 RES1   0.0000
   198 O6        2.3506   -0.2331   -1.0393   O.3       1 RES1   0.0000
   199 C81       3.2656   -0.6342   -0.0208   C.3       1 RES1   0.0000
   200 C82       2.8217   -2.0001    0.4862   C.3       1 RES1   0.0000
   201 O7        1.4798   -1.8839    0.9558   O.3       1 RES1   0.0000
   202 C83       0.9622   -3.1054    1.4705   C.3       1 RES1   0.0000
   203 C84      -0.5672   -3.0313    1.3998   C.2       1 RES1   0.0000
   204 O8       -1.0766   -2.0512    0.7941   O.2       1 RES1   0.0000
   205 N4       -1.2814   -4.0101    1.9312   N.am      1 RES1   0.0000
   206 C85      -2.7457   -3.9933    1.8465   C.3       1 RES1   0.0000
   207 C86      -3.3954   -5.3109    1.4101   C.3       1 RES1   0.0000
   208 C87      -4.9140   -5.1527    1.5635   C.3       1 RES1   0.0000
   209 C88      -5.7685   -6.3338    1.0857   C.3       1 RES1   0.0000
   210 C89      -6.1461   -6.3834   -0.4004   C.3       1 RES1   0.0000
   211 C90      -7.0352   -5.2280   -0.8896   C.3       1 RES1   0.0000
   212 C91      -6.3924   -3.9087   -1.3385   C.3       1 RES1   0.0000
   213 C92      -5.4689   -4.0289   -2.5529   C.3       1 RES1   0.0000
   214 C93      -4.0317   -4.4140   -2.1845   C.3       1 RES1   0.0000
   215 C94      -3.2901   -5.1704   -3.2839   C.3       1 RES1   0.0000
   216 C95      -2.0069   -5.8363   -2.7835   C.3       1 RES1   0.0000
   217 C96      -0.8832   -4.8779   -2.4003   C.3       1 RES1   0.0000
   218 C97      -0.7340   -5.1296    2.6966   C.3       1 RES1   0.0000
   219 C98      -1.3791   -5.2248    4.0887   C.3       1 RES1   0.0000
   220 C99      -0.6483   -6.2208    4.9940   C.3       1 RES1   0.0000
   221 C100      0.6415   -5.6974    5.6359   C.3       1 RES1   0.0000
   222 C101      0.4333   -4.9723    6.9726   C.3       1 RES1   0.0000
   223 C102      0.1253   -3.4773    6.8786   C.3       1 RES1   0.0000
   224 C103      1.3162   -2.6631    6.3777   C.3       1 RES1   0.0000
   225 C104      0.9645   -1.1897    6.1994   C.3       1 RES1   0.0000
   226 C105      2.1845   -0.2865    6.0292   C.3       1 RES1   0.0000
   227 C106      2.9798   -0.5360    4.7492   C.3       1 RES1   0.0000
   228 C107      4.1455    0.4401    4.5905   C.3       1 RES1   0.0000
   229 C108      3.6899    1.8920    4.4852   C.3       1 RES1   0.0000
   230 H109      5.3407   -7.2559   -0.9535   H         1 RES1   0.0000
   231 H110      6.7971   -6.3065   -1.2033   H         1 RES1   0.0000
   232 H111      5.2164   -5.5967   -1.5466   H         1 RES1   0.0000
   233 H112      6.3613   -6.3210    1.1879   H         1 RES1   0.0000
   234 H113      4.6604   -5.9385    0.9392   H         1 RES1   0.0000
   235 H114      5.6986   -3.9590    1.7216   H         1 RES1   0.0000
   236 H115      5.3395   -3.7079    0.0129   H         1 RES1   0.0000
   237 H116      8.0687   -4.7495    0.7405   H         1 RES1   0.0000
   238 H117      7.7251   -3.0810    1.1509   H         1 RES1   0.0000
   239 H118      7.4364   -4.2001   -1.6651   H         1 RES1   0.0000
   240 H119      8.8614   -3.3822   -1.0470   H         1 RES1   0.0000
   241 H120      7.6127   -1.3237   -0.6711   H         1 RES1   0.0000
   242 H121      6.0995   -2.1109   -1.1314   H         1 RES1   0.0000
   243 H122      6.9934   -2.5282   -3.3958   H         1 RES1   0.0000
   244 H123      8.4996   -1.7244   -2.9775   H         1 RES1   0.0000
   245 H124      7.4149    0.4136   -2.7426   H         1 RES1   0.0000
   246 H125      5.8304   -0.3378   -2.6583   H         1 RES1   0.0000
   247 H126      6.2701   -1.1374   -5.0928   H         1 RES1   0.0000
   248 H127      7.6318   -0.0243   -5.0790   H         1 RES1   0.0000
   249 H128      5.8019    1.1890   -6.0370   H         1 RES1   0.0000
   250 H129      5.9747    1.7954   -4.4004   H         1 RES1   0.0000
   251 H130      4.2104   -0.1180   -3.8176   H         1 RES1   0.0000
   252 H131      3.8879   -0.0946   -5.5167   H         1 RES1   0.0000
   253 H132      3.2867    2.3108   -5.4281   H         1 RES1   0.0000
   254 H133      3.8663    2.4174   -3.7852   H         1 RES1   0.0000
   255 H134      0.4331    2.7644   -4.6436   H         1 RES1   0.0000
   256 H135      0.1112    1.0464   -4.7339   H         1 RES1   0.0000
   257 H136      1.6556    2.7977   -6.7105   H         1 RES1   0.0000
   258 H137      0.1779    1.9036   -6.9317   H         1 RES1   0.0000
   259 H138      1.8503   -0.1671   -6.3034   H         1 RES1   0.0000
   260 H139      3.0263    0.9525   -7.0114   H         1 RES1   0.0000
   261 H140      1.7455    1.0027   -9.1100   H         1 RES1   0.0000
   262 H141      0.6768   -0.2499   -8.4812   H         1 RES1   0.0000
   263 H142      3.7034   -0.5092   -8.7193   H         1 RES1   0.0000
   264 H143      2.5317   -1.1581   -9.8616   H         1 RES1   0.0000
   265 H144      1.5646   -2.5901   -8.0733   H         1 RES1   0.0000
   266 H145      2.7706   -1.9738   -6.9346   H         1 RES1   0.0000
   267 H146      4.5800   -2.9284   -8.3575   H         1 RES1   0.0000
   268 H147      3.3712   -3.5205   -9.4838   H         1 RES1   0.0000
   269 H148      4.0215   -5.3393   -8.0743   H         1 RES1   0.0000
   270 H149      2.3690   -4.9090   -7.6662   H         1 RES1   0.0000
   271 H150      4.3735   -3.4784   -6.0184   H         1 RES1   0.0000
   272 H151      4.4887   -5.2176   -5.8522   H         1 RES1   0.0000
   273 H152      2.1419   -5.4032   -5.2451   H         1 RES1   0.0000
   274 H153      1.8920   -3.6735   -5.4634   H         1 RES1   0.0000
   275 H154      3.9070   -4.8301   -3.4989   H         1 RES1   0.0000
   276 H155      2.2313   -4.5135   -3.0529   H         1 RES1   0.0000
   277 H156      4.1131   -2.3748   -4.1299   H         1 RES1   0.0000
   278 H157      3.8359   -2.6628   -2.4214   H         1 RES1   0.0000
   279 H158      2.5011   -2.1150   -3.4451   H         1 RES1   0.0000
   280 H159      2.8543    1.7780   -1.0441   H         1 RES1   0.0000
   281 H160      3.7662    0.7391   -2.1927   H         1 RES1   0.0000
   282 H161      3.2586    0.0939    0.8028   H         1 RES1   0.0000
   283 H162      4.2841   -0.7092   -0.4245   H         1 RES1   0.0000
   284 H163      3.5020   -2.3236    1.2826   H         1 RES1   0.0000
   285 H164      2.8476   -2.7297   -0.3312   H         1 RES1   0.0000
   286 H165      1.3163   -3.2627    2.4958   H         1 RES1   0.0000
   287 H166      1.2898   -3.9543    0.8561   H         1 RES1   0.0000
   288 H167     -3.0135   -3.1990    1.1462   H         1 RES1   0.0000
   289 H168     -3.1468   -3.7327    2.8299   H         1 RES1   0.0000
   290 H169     -3.0767   -6.1421    2.0383   H         1 RES1   0.0000
   291 H170     -3.1118   -5.5431    0.3848   H         1 RES1   0.0000
   292 H171     -5.2385   -4.2487    1.0527   H         1 RES1   0.0000
   293 H172     -5.1196   -5.0125    2.6271   H         1 RES1   0.0000
   294 H173     -6.7055   -6.2960    1.6445   H         1 RES1   0.0000
   295 H174     -5.2727   -7.2689    1.3578   H         1 RES1   0.0000
   296 H175     -6.7328   -7.2973   -0.5275   H         1 RES1   0.0000
   297 H176     -5.2679   -6.4986   -1.0321   H         1 RES1   0.0000
   298 H177     -7.7593   -5.0068   -0.1016   H         1 RES1   0.0000
   299 H178     -7.6005   -5.5912   -1.7498   H         1 RES1   0.0000
   300 H179     -5.8498   -3.4190   -0.5282   H         1 RES1   0.0000
   301 H180     -7.2227   -3.2497   -1.6061   H         1 RES1   0.0000
   302 H181     -5.4888   -3.0673   -3.0670   H         1 RES1   0.0000
   303 H182     -5.8840   -4.7574   -3.2473   H         1 RES1   0.0000
   304 H183     -4.0634   -5.0540   -1.3087   H         1 RES1   0.0000
   305 H184     -3.4672   -3.5249   -1.9045   H         1 RES1   0.0000
   306 H185     -3.0558   -4.5118   -4.1228   H         1 RES1   0.0000
   307 H186     -3.9461   -5.9568   -3.6583   H         1 RES1   0.0000
   308 H187     -1.6332   -6.4956   -3.5671   H         1 RES1   0.0000
   309 H188     -2.2466   -6.4617   -1.9216   H         1 RES1   0.0000
   310 H189     -0.6329   -4.2225   -3.2302   H         1 RES1   0.0000
   311 H190      0.0045   -5.4496   -2.1361   H         1 RES1   0.0000
   312 H191     -1.1436   -4.2538   -1.5461   H         1 RES1   0.0000
   313 H192      0.3406   -5.0129    2.8110   H         1 RES1   0.0000
   314 H193     -0.9090   -6.0553    2.1379   H         1 RES1   0.0000
   315 H194     -2.4154   -5.5484    3.9985   H         1 RES1   0.0000
   316 H195     -1.3749   -4.2361    4.5470   H         1 RES1   0.0000
   317 H196     -0.4342   -7.1156    4.4071   H         1 RES1   0.0000
   318 H197     -1.3304   -6.5187    5.7900   H         1 RES1   0.0000
   319 H198      1.1772   -5.0528    4.9366   H         1 RES1   0.0000
   320 H199      1.2851   -6.5555    5.8245   H         1 RES1   0.0000
   321 H200      1.3348   -5.0865    7.5765   H         1 RES1   0.0000
   322 H201     -0.3731   -5.4703    7.5125   H         1 RES1   0.0000
   323 H202     -0.1430   -3.1278    7.8769   H         1 RES1   0.0000
   324 H203     -0.7435   -3.3036    6.2408   H         1 RES1   0.0000
   325 H204      1.6723   -3.0679    5.4276   H         1 RES1   0.0000
   326 H205      2.1246   -2.7573    7.1027   H         1 RES1   0.0000
   327 H206      0.4164   -0.8504    7.0795   H         1 RES1   0.0000
   328 H207      0.2970   -1.0779    5.3370   H         1 RES1   0.0000
   329 H208      2.8519   -0.4300    6.8786   H         1 RES1   0.0000
   330 H209      1.8496    0.7514    6.0560   H         1 RES1   0.0000
   331 H210      2.3248   -0.4502    3.8701   H         1 RES1   0.0000
   332 H211      3.3751   -1.5528    4.7629   H         1 RES1   0.0000
   333 H212      4.7096    0.1745    3.6926   H         1 RES1   0.0000
   334 H213      4.8160    0.3355    5.4426   H         1 RES1   0.0000
   335 H214      2.8542    1.9732    3.7882   H         1 RES1   0.0000
   336 H215      4.5079    2.5126    4.1296   H         1 RES1   0.0000
   337 H216      3.3796    2.2783    5.4520   H         1 RES1   0.0000
   338 O9        0.0221   -0.0168    2.4955   O.3       1 RES1   0.0000
   339 H217     -0.6622   -0.3518    3.0883   H         1 RES1   0.0000
   340 H218      0.7550    0.2533    3.0691   H         1 RES1   0.0000
@<TRIPOS>BOND
     1     1    28    1
     2     1    30    1
     3     1    33    1
     4     1    36    1
     5     1   196    1
     6     1   198    1
     7     1   201    1
     8     1   204    1
     9     1   338    1
    10     2     3    1
    11     2    62    1
    12     2    63    1
    13     2    64    1
    14     3     4    1
    15     3    65    1
    16     3    66    1
    17     4     5    1
    18     4    67    1
    19     4    68    1
    20     5     6    1
    21     5    69    1
    22     5    70    1
    23     6     7    1
    24     6    71    1
    25     6    72    1
    26     7     8    1
    27     7    73    1
    28     7    74    1
    29     8     9    1
    30     8    75    1
    31     8    76    1
    32     9    10    1
    33     9    77    1
    34     9    78    1
    35    10    11    1
    36    10    79    1
    37    10    80    1
    38    11    12    1
    39    11    81    1
    40    11    82    1
    41    12    13    1
    42    12    83    1
    43    12    84    1
    44    13    14    1
    45    13    85    1
    46    13    86    1
    47    14    15    1
    48    14    27    1
    49    15    16    1
    50    15    87    1
    51    15    88    1
    52    16    17    1
    53    16    89    1
    54    16    90    1
    55    17    18    1
    56    17    91    1
    57    17    92    1
    58    18    19    1
    59    18    93    1
    60    18    94    1
    61    19    20    1
    62    19    95    1
    63    19    96    1
    64    20    21    1
    65    20    97    1
    66    20    98    1
    67    21    22    1
    68    21    99    1
    69    21   100    1
    70    22    23    1
    71    22   101    1
    72    22   102    1
    73    23    24    1
    74    23   103    1
    75    23   104    1
    76    24    25    1
    77    24   105    1
    78    24   106    1
    79    25    26    1
    80    25   107    1
    81    25   108    1
    82    26   109    1
    83    26   110    1
    84    26   111    1
    85    27    28    2
    86    27    29    1
    87    29    30    1
    88    29   112    1
    89    29   113    1
    90    30    31    1
    91    31    32    1
    92    31   114    1
    93    31   115    1
    94    32    33    1
    95    32   116    1
    96    32   117    1
    97    33    34    1
    98    34    35    1
    99    34   118    1
   100    34   119    1
   101    35    36    2
   102    35    37    1
   103    37    38    1
   104    37    50    1
   105    38    39    1
   106    38   120    1
   107    38   121    1
   108    39    40    1
   109    39   122    1
   110    39   123    1
   111    40    41    1
   112    40   124    1
   113    40   125    1
   114    41    42    1
   115    41   126    1
   116    41   127    1
   117    42    43    1
   118    42   128    1
   119    42   129    1
   120    43    44    1
   121    43   130    1
   122    43   131    1
   123    44    45    1
   124    44   132    1
   125    44   133    1
   126    45    46    1
   127    45   134    1
   128    45   135    1
   129    46    47    1
   130    46   136    1
   131    46   137    1
   132    47    48    1
   133    47   138    1
   134    47   139    1
   135    48    49    1
   136    48   140    1
   137    48   141    1
   138    49   142    1
   139    49   143    1
   140    49   144    1
   141    50    51    1
   142    50   145    1
   143    50   146    1
   144    51    52    1
   145    51   147    1
   146    51   148    1
   147    52    53    1
   148    52   149    1
   149    52   150    1
   150    53    54    1
   151    53   151    1
   152    53   152    1
   153    54    55    1
   154    54   153    1
   155    54   154    1
   156    55    56    1
   157    55   155    1
   158    55   156    1
   159    56    57    1
   160    56   157    1
   161    56   158    1
   162    57    58    1
   163    57   159    1
   164    57   160    1
   165    58    59    1
   166    58   161    1
   167    58   162    1
   168    59    60    1
   169    59   163    1
   170    59   164    1
   171    60    61    1
   172    60   165    1
   173    60   166    1
   174    61   167    1
   175    61   168    1
   176    61   169    1
   177   170   171    1
   178   170   230    1
   179   170   231    1
   180   170   232    1
   181   171   172    1
   182   171   233    1
   183   171   234    1
   184   172   173    1
   185   172   235    1
   186   172   236    1
   187   173   174    1
   188   173   237    1
   189   173   238    1
   190   174   175    1
   191   174   239    1
   192   174   240    1
   193   175   176    1
   194   175   241    1
   195   175   242    1
   196   176   177    1
   197   176   243    1
   198   176   244    1
   199   177   178    1
   200   177   245    1
   201   177   246    1
   202   178   179    1
   203   178   247    1
   204   178   248    1
   205   179   180    1
   206   179   249    1
   207   179   250    1
   208   180   181    1
   209   180   251    1
   210   180   252    1
   211   181   182    1
   212   181   253    1
   213   181   254    1
   214   182   183    1
   215   182   195    1
   216   183   184    1
   217   183   255    1
   218   183   256    1
   219   184   185    1
   220   184   257    1
   221   184   258    1
   222   185   186    1
   223   185   259    1
   224   185   260    1
   225   186   187    1
   226   186   261    1
   227   186   262    1
   228   187   188    1
   229   187   263    1
   230   187   264    1
   231   188   189    1
   232   188   265    1
   233   188   266    1
   234   189   190    1
   235   189   267    1
   236   189   268    1
   237   190   191    1
   238   190   269    1
   239   190   270    1
   240   191   192    1
   241   191   271    1
   242   191   272    1
   243   192   193    1
   244   192   273    1
   245   192   274    1
   246   193   194    1
   247   193   275    1
   248   193   276    1
   249   194   277    1
   250   194   278    1
   251   194   279    1
   252   195   196    2
   253   195   197    1
   254   197   198    1
   255   197   280    1
   256   197   281    1
   257   198   199    1
   258   199   200    1
   259   199   282    1
   260   199   283    1
   261   200   201    1
   262   200   284    1
   263   200   285    1
   264   201   202    1
   265   202   203    1
   266   202   286    1
   267   202   287    1
   268   203   204    2
   269   203   205    1
   270   205   206    1
   271   205   218    1
   272   206   207    1
   273   206   288    1
   274   206   289    1
   275   207   208    1
   276   207   290    1
   277   207   291    1
   278   208   209    1
   279   208   292    1
   280   208   293    1
   281   209   210    1
   282   209   294    1
   283   209   295    1
   284   210   211    1
   285   210   296    1
   286   210   297    1
   287   211   212    1
   288   211   298    1
   289   211   299    1
   290   212   213    1
   291   212   300    1
   292   212   301    1
   293   213   214    1
   294   213   302    1
   295   213   303    1
   296   214   215    1
   297   214   304    1
   298   214   305    1
   299   215   216    1
   300   215   306    1
   301   215   307    1
   302   216   217    1
   303   216   308    1
   304   216   309    1
   305   217   310    1
   306   217   311    1
   307   217   312    1
   308   218   219    1
   309   218   313    1
   310   218   314    1
   311   219   220    1
   312   219   315    1
   313   219   316    1
   314   220   221    1
   315   220   317    1
   316   220   318    1
   317   221   222    1
   318   221   319    1
   319   221   320    1
   320   222   223    1
   321   222   321    1
   322   222   322    1
   323   223   224    1
   324   223   323    1
   325   223   324    1
   326   224   225    1
   327   224   325    1
   328   224   326    1
   329   225   226    1
   330   225   327    1
   331   225   328    1
   332   226   227    1
   333   226   329    1
   334   226   330    1
   335   227   228    1
   336   227   331    1
   337   227   332    1
   338   228   229    1
   339   228   333    1
   340   228   334    1
   341   229   335    1
   342   229   336    1
   343   229   337    1
   344   338   339    1
   345   338   340    1
@<TRIPOS>SUBSTRUCTURE
     1 RES1      340 GROUP             0 ****  ****    0  
