@<TRIPOS>MOLECULE
am_c3_9H2O_c0_0_nunpairedes_0_charge_3 Charge: 3 Unpaired_Electrons: 0 XTB_Unpaired_Electrons: 0 XTB_Charge: 3
   340   345     1     0     0
SMALL
NoCharges
****
Generated from Architector

@<TRIPOS>ATOM
     1 La1       0.0077    0.1168    0.1164   La        1 RES1   0.0000
     2 C1        2.3045    5.0665    3.2253   C.3       1 RES1   0.0000
     3 C2        1.0303    4.2340    3.2547   C.3       1 RES1   0.0000
     4 C3        0.9433    3.4249    4.5442   C.3       1 RES1   0.0000
     5 C4       -0.2722    2.5018    4.6148   C.3       1 RES1   0.0000
     6 C5       -1.6140    3.2401    4.7671   C.3       1 RES1   0.0000
     7 C6       -2.4710    2.6368    5.8887   C.3       1 RES1   0.0000
     8 C7       -1.8648    2.8524    7.2741   C.3       1 RES1   0.0000
     9 C8       -2.3735    3.3830    3.4290   C.3       1 RES1   0.0000
    10 N1       -3.1073    2.2211    2.9167   N.am      1 RES1   0.0000
    11 C9       -4.4911    2.0388    3.3548   C.3       1 RES1   0.0000
    12 C10      -5.5992    2.5210    2.3917   C.3       1 RES1   0.0000
    13 C11      -5.5804    4.0437    2.1897   C.3       1 RES1   0.0000
    14 C12      -4.7059    4.4780    1.0182   C.3       1 RES1   0.0000
    15 C13      -6.9634    2.0399    2.9260   C.3       1 RES1   0.0000
    16 C14      -7.4756    0.7489    2.2815   C.3       1 RES1   0.0000
    17 C15      -6.8504   -0.5220    2.8541   C.3       1 RES1   0.0000
    18 C16      -7.5958   -1.7699    2.3965   C.3       1 RES1   0.0000
    19 C17      -2.5111    1.4158    2.0517   C.2       1 RES1   0.0000
    20 O1       -1.3209    1.5422    1.6792   O.2       1 RES1   0.0000
    21 C18      -3.2577    0.2209    1.4505   C.3       1 RES1   0.0000
    22 O2       -2.7948   -0.0131    0.1249   O.3       1 RES1   0.0000
    23 C19      -3.5102    0.7746   -0.8234   C.3       1 RES1   0.0000
    24 C20      -2.5505    1.4612   -1.7844   C.2       1 RES1   0.0000
    25 O3       -1.3337    1.1979   -1.7121   O.2       1 RES1   0.0000
    26 N2       -3.0716    2.3394   -2.6345   N.am      1 RES1   0.0000
    27 C21      -2.1430    3.1845   -3.3926   C.3       1 RES1   0.0000
    28 C22      -1.5129    2.5779   -4.6709   C.3       1 RES1   0.0000
    29 C23      -1.9769    3.3740   -5.9027   C.3       1 RES1   0.0000
    30 C24      -1.3663    2.9063   -7.2193   C.3       1 RES1   0.0000
    31 C25       0.0209    2.5699   -4.5461   C.3       1 RES1   0.0000
    32 C26       0.7110    1.3469   -5.1417   C.3       1 RES1   0.0000
    33 C27       0.3476    0.0620   -4.4001   C.3       1 RES1   0.0000
    34 C28       1.4841   -0.9384   -4.4849   C.3       1 RES1   0.0000
    35 C29      -4.4841    2.7207   -2.6250   C.3       1 RES1   0.0000
    36 C30      -5.5515    1.7686   -3.2439   C.3       1 RES1   0.0000
    37 C31      -6.6263    1.3504   -2.2244   C.3       1 RES1   0.0000
    38 C32      -7.4178    2.5175   -1.6423   C.3       1 RES1   0.0000
    39 C33      -4.9686    0.5585   -3.9921   C.3       1 RES1   0.0000
    40 C34      -4.8767    0.8446   -5.4896   C.3       1 RES1   0.0000
    41 C35      -4.2385   -0.2878   -6.2881   C.3       1 RES1   0.0000
    42 C36      -4.1783    0.0817   -7.7643   C.3       1 RES1   0.0000
    43 H1        2.3806    5.6316    2.3006   H         1 RES1   0.0000
    44 H2        3.1839    4.4333    3.3222   H         1 RES1   0.0000
    45 H3        2.3079    5.7681    4.0550   H         1 RES1   0.0000
    46 H4        0.9920    3.5532    2.3973   H         1 RES1   0.0000
    47 H5        0.1741    4.9055    3.1896   H         1 RES1   0.0000
    48 H6        0.9317    4.1082    5.3971   H         1 RES1   0.0000
    49 H7        1.8472    2.8133    4.6363   H         1 RES1   0.0000
    50 H8       -0.1240    1.8654    5.4840   H         1 RES1   0.0000
    51 H9       -0.2792    1.8660    3.7279   H         1 RES1   0.0000
    52 H10      -1.3879    4.2691    5.0662   H         1 RES1   0.0000
    53 H11      -2.6067    1.5688    5.7131   H         1 RES1   0.0000
    54 H12      -3.4552    3.1113    5.8959   H         1 RES1   0.0000
    55 H13      -0.8751    2.4088    7.3594   H         1 RES1   0.0000
    56 H14      -2.5005    2.3969    8.0316   H         1 RES1   0.0000
    57 H15      -1.7847    3.9147    7.4942   H         1 RES1   0.0000
    58 H16      -1.6460    3.6471    2.6613   H         1 RES1   0.0000
    59 H17      -3.1000    4.1890    3.5279   H         1 RES1   0.0000
    60 H18      -4.6484    0.9824    3.5766   H         1 RES1   0.0000
    61 H19      -4.6047    2.5865    4.2893   H         1 RES1   0.0000
    62 H20      -5.4510    2.0668    1.4056   H         1 RES1   0.0000
    63 H21      -5.2645    4.5440    3.1046   H         1 RES1   0.0000
    64 H22      -6.5923    4.3937    1.9866   H         1 RES1   0.0000
    65 H23      -3.7284    3.9980    1.0296   H         1 RES1   0.0000
    66 H24      -4.5603    5.5532    1.0460   H         1 RES1   0.0000
    67 H25      -5.1994    4.2446    0.0746   H         1 RES1   0.0000
    68 H26      -7.7090    2.8106    2.7400   H         1 RES1   0.0000
    69 H27      -6.9189    1.9048    4.0067   H         1 RES1   0.0000
    70 H28      -7.3194    0.7848    1.1991   H         1 RES1   0.0000
    71 H29      -8.5530    0.6887    2.4479   H         1 RES1   0.0000
    72 H30      -6.8740   -0.4660    3.9450   H         1 RES1   0.0000
    73 H31      -5.8023   -0.6018    2.5481   H         1 RES1   0.0000
    74 H32      -8.6271   -1.7322    2.7352   H         1 RES1   0.0000
    75 H33      -7.1359   -2.6645    2.8094   H         1 RES1   0.0000
    76 H34      -7.5976   -1.8413    1.3097   H         1 RES1   0.0000
    77 H35      -4.3440    0.3037    1.4563   H         1 RES1   0.0000
    78 H36      -2.9477   -0.6489    2.0329   H         1 RES1   0.0000
    79 H37      -4.0845    1.5523   -0.3069   H         1 RES1   0.0000
    80 H38      -4.1971    0.1242   -1.3823   H         1 RES1   0.0000
    81 H39      -1.3488    3.4559   -2.6908   H         1 RES1   0.0000
    82 H40      -2.6793    4.0966   -3.6538   H         1 RES1   0.0000
    83 H41      -1.8593    1.5482   -4.7756   H         1 RES1   0.0000
    84 H42      -1.7369    4.4298   -5.7632   H         1 RES1   0.0000
    85 H43      -3.0637    3.2970   -5.9762   H         1 RES1   0.0000
    86 H44      -0.3055    3.1297   -7.2673   H         1 RES1   0.0000
    87 H45      -1.8407    3.4266   -8.0465   H         1 RES1   0.0000
    88 H46      -1.5042    1.8366   -7.3579   H         1 RES1   0.0000
    89 H47       0.2832    2.5920   -3.4844   H         1 RES1   0.0000
    90 H48       0.4238    3.4728   -5.0070   H         1 RES1   0.0000
    91 H49       1.7904    1.5004   -5.0658   H         1 RES1   0.0000
    92 H50       0.4892    1.2357   -6.2013   H         1 RES1   0.0000
    93 H51      -0.5546   -0.3767   -4.8277   H         1 RES1   0.0000
    94 H52       0.1431    0.2782   -3.3447   H         1 RES1   0.0000
    95 H53       1.7554   -1.1210   -5.5207   H         1 RES1   0.0000
    96 H54       1.1913   -1.8724   -4.0230   H         1 RES1   0.0000
    97 H55       2.3575   -0.5674   -3.9574   H         1 RES1   0.0000
    98 H56      -4.5339    3.6744   -3.1487   H         1 RES1   0.0000
    99 H57      -4.7772    2.9250   -1.5905   H         1 RES1   0.0000
   100 H58      -6.0835    2.3653   -3.9915   H         1 RES1   0.0000
   101 H59      -6.1939    0.7600   -1.4136   H         1 RES1   0.0000
   102 H60      -7.3356    0.7038   -2.7423   H         1 RES1   0.0000
   103 H61      -6.7962    3.1945   -1.0597   H         1 RES1   0.0000
   104 H62      -8.2013    2.1406   -0.9904   H         1 RES1   0.0000
   105 H63      -7.8886    3.0902   -2.4359   H         1 RES1   0.0000
   106 H64      -5.6121   -0.3117   -3.8468   H         1 RES1   0.0000
   107 H65      -3.9779    0.2938   -3.6153   H         1 RES1   0.0000
   108 H66      -4.2998    1.7583   -5.6404   H         1 RES1   0.0000
   109 H67      -5.8822    1.0201   -5.8787   H         1 RES1   0.0000
   110 H68      -4.8267   -1.2001   -6.1625   H         1 RES1   0.0000
   111 H69      -3.2289   -0.4865   -5.9115   H         1 RES1   0.0000
   112 H70      -5.1774    0.2734   -8.1454   H         1 RES1   0.0000
   113 H71      -3.7411   -0.7205   -8.3498   H         1 RES1   0.0000
   114 H72      -3.5845    0.9814   -7.9073   H         1 RES1   0.0000
   115 C37      -2.1467    7.2592    2.6560   C.3       1 RES1   0.0000
   116 C38      -1.4551    6.5940    1.4728   C.3       1 RES1   0.0000
   117 C39      -2.0612    7.0014    0.1330   C.3       1 RES1   0.0000
   118 C40      -1.4804    6.2297   -1.0595   C.3       1 RES1   0.0000
   119 C41      -0.0028    6.5909   -1.3075   C.3       1 RES1   0.0000
   120 C42       0.2368    7.1564   -2.7193   C.3       1 RES1   0.0000
   121 C43      -0.2594    6.2880   -3.8758   C.3       1 RES1   0.0000
   122 C44       1.0014    5.5380   -0.7462   C.3       1 RES1   0.0000
   123 N3        1.5703    4.4131   -1.5091   N.am      1 RES1   0.0000
   124 C45       2.4381    4.7326   -2.6435   C.3       1 RES1   0.0000
   125 C46       3.9298    5.0590   -2.4305   C.3       1 RES1   0.0000
   126 C47       4.1950    6.3114   -1.5780   C.3       1 RES1   0.0000
   127 C48       4.5216    5.9596   -0.1249   C.3       1 RES1   0.0000
   128 C49       4.5231    5.2121   -3.8402   C.3       1 RES1   0.0000
   129 C50       4.6164    3.8878   -4.6143   C.3       1 RES1   0.0000
   130 C51       3.7657    3.8675   -5.8857   C.3       1 RES1   0.0000
   131 C52       4.0479    2.6119   -6.7031   C.3       1 RES1   0.0000
   132 C53       1.4470    3.1686   -1.0578   C.2       1 RES1   0.0000
   133 O4        0.6324    2.7897   -0.1951   O.2       1 RES1   0.0000
   134 C54       2.3822    2.0718   -1.6079   C.3       1 RES1   0.0000
   135 O5        2.3829    0.9762   -0.6951   O.3       1 RES1   0.0000
   136 C55       3.4078    1.0730    0.2883   C.3       1 RES1   0.0000
   137 C56       3.0454    0.2072    1.4982   C.2       1 RES1   0.0000
   138 O6        1.8409   -0.0899    1.6708   O.2       1 RES1   0.0000
   139 N4        3.9935   -0.0991    2.3718   N.am      1 RES1   0.0000
   140 C57       3.6034   -0.5509    3.7073   C.3       1 RES1   0.0000
   141 C58       3.5600   -2.0720    3.9398   C.3       1 RES1   0.0000
   142 C59       4.2858   -2.3542    5.2646   C.3       1 RES1   0.0000
   143 C60       4.3424   -3.8226    5.6628   C.3       1 RES1   0.0000
   144 C61       2.1057   -2.5610    3.9470   C.3       1 RES1   0.0000
   145 C62       1.8937   -3.9871    3.4416   C.3       1 RES1   0.0000
   146 C63       1.9276   -4.0885    1.9200   C.3       1 RES1   0.0000
   147 C64       1.7854   -5.5446    1.5049   C.3       1 RES1   0.0000
   148 C65       5.4201    0.1738    2.2108   C.3       1 RES1   0.0000
   149 C66       6.3502   -1.0543    2.3103   C.3       1 RES1   0.0000
   150 C67       7.7805   -0.6227    1.9553   C.3       1 RES1   0.0000
   151 C68       8.3477    0.5044    2.8089   C.3       1 RES1   0.0000
   152 C69       5.9540   -2.2380    1.4126   C.3       1 RES1   0.0000
   153 C70       6.4401   -3.5651    2.0109   C.3       1 RES1   0.0000
   154 C71       5.9521   -4.7909    1.2374   C.3       1 RES1   0.0000
   155 C72       6.4478   -6.0947    1.8559   C.3       1 RES1   0.0000
   156 H73      -1.6856    6.9432    3.5888   H         1 RES1   0.0000
   157 H74      -3.2038    7.0037    2.6932   H         1 RES1   0.0000
   158 H75      -2.0673    8.3405    2.5869   H         1 RES1   0.0000
   159 H76      -1.5296    5.5091    1.5686   H         1 RES1   0.0000
   160 H77      -0.3968    6.8595    1.4959   H         1 RES1   0.0000
   161 H78      -1.9139    8.0718   -0.0242   H         1 RES1   0.0000
   162 H79      -3.1401    6.8373    0.1606   H         1 RES1   0.0000
   163 H80      -2.0758    6.4941   -1.9314   H         1 RES1   0.0000
   164 H81      -1.5970    5.1559   -0.8973   H         1 RES1   0.0000
   165 H82       0.1930    7.4457   -0.6545   H         1 RES1   0.0000
   166 H83       1.2978    7.3940   -2.8346   H         1 RES1   0.0000
   167 H84      -0.2791    8.1157   -2.7748   H         1 RES1   0.0000
   168 H85      -0.0630    5.2344   -3.6902   H         1 RES1   0.0000
   169 H86       0.2282    6.5803   -4.8062   H         1 RES1   0.0000
   170 H87      -1.3312    6.4134   -4.0178   H         1 RES1   0.0000
   171 H88       0.5310    5.0891    0.1292   H         1 RES1   0.0000
   172 H89       1.8712    6.1027   -0.4123   H         1 RES1   0.0000
   173 H90       2.0030    5.5942   -3.1330   H         1 RES1   0.0000
   174 H91       2.3764    3.8931   -3.3393   H         1 RES1   0.0000
   175 H92       4.4430    4.2262   -1.9462   H         1 RES1   0.0000
   176 H93       3.3519    7.0013   -1.6264   H         1 RES1   0.0000
   177 H94       5.0504    6.8516   -1.9874   H         1 RES1   0.0000
   178 H95       3.8313    5.2169    0.2733   H         1 RES1   0.0000
   179 H96       4.4712    6.8448    0.5043   H         1 RES1   0.0000
   180 H97       5.5304    5.5570   -0.0511   H         1 RES1   0.0000
   181 H98       5.5186    5.6398   -3.7521   H         1 RES1   0.0000
   182 H99       3.9268    5.9272   -4.4093   H         1 RES1   0.0000
   183 H100      4.3098    3.0509   -3.9756   H         1 RES1   0.0000
   184 H101      5.6550    3.7012   -4.9009   H         1 RES1   0.0000
   185 H102      3.9982    4.7449   -6.4927   H         1 RES1   0.0000
   186 H103      2.7015    3.9186   -5.6281   H         1 RES1   0.0000
   187 H104      5.0640    2.6448   -7.0873   H         1 RES1   0.0000
   188 H105      3.3669    2.5342   -7.5459   H         1 RES1   0.0000
   189 H106      3.9465    1.7176   -6.0873   H         1 RES1   0.0000
   190 H107      3.4046    2.4232   -1.7683   H         1 RES1   0.0000
   191 H108      1.9916    1.6719   -2.5493   H         1 RES1   0.0000
   192 H109      3.4833    2.1058    0.6726   H         1 RES1   0.0000
   193 H110      4.3597    0.7691   -0.1639   H         1 RES1   0.0000
   194 H111      2.6196   -0.1284    3.9171   H         1 RES1   0.0000
   195 H112      4.3200   -0.1034    4.4008   H         1 RES1   0.0000
   196 H113      4.0926   -2.5780    3.1386   H         1 RES1   0.0000
   197 H114      3.7968   -1.7857    6.0588   H         1 RES1   0.0000
   198 H115      5.3097   -1.9810    5.1819   H         1 RES1   0.0000
   199 H116      3.3642   -4.1864    5.9643   H         1 RES1   0.0000
   200 H117      5.0166   -3.9484    6.5059   H         1 RES1   0.0000
   201 H118      4.7109   -4.4352    4.8408   H         1 RES1   0.0000
   202 H119      1.5019   -1.9059    3.3114   H         1 RES1   0.0000
   203 H120      1.7388   -2.4837    4.9703   H         1 RES1   0.0000
   204 H121      0.9171   -4.3410    3.7859   H         1 RES1   0.0000
   205 H122      2.6415   -4.6616    3.8545   H         1 RES1   0.0000
   206 H123      2.8690   -3.6861    1.5380   H         1 RES1   0.0000
   207 H124      1.1252   -3.4719    1.4965   H         1 RES1   0.0000
   208 H125      2.6274   -6.1229    1.8735   H         1 RES1   0.0000
   209 H126      1.7504   -5.6563    0.4265   H         1 RES1   0.0000
   210 H127      0.8816   -5.9733    1.9283   H         1 RES1   0.0000
   211 H128      5.7057    0.8669    3.0079   H         1 RES1   0.0000
   212 H129      5.6167    0.6720    1.2642   H         1 RES1   0.0000
   213 H130      6.3441   -1.3969    3.3469   H         1 RES1   0.0000
   214 H131      7.8104   -0.3176    0.9055   H         1 RES1   0.0000
   215 H132      8.4281   -1.4949    2.0538   H         1 RES1   0.0000
   216 H133      7.8724    1.4587    2.5929   H         1 RES1   0.0000
   217 H134      9.4068    0.6144    2.5945   H         1 RES1   0.0000
   218 H135      8.2352    0.2868    3.8676   H         1 RES1   0.0000
   219 H136      6.3959   -2.1167    0.4212   H         1 RES1   0.0000
   220 H137      4.8705   -2.2766    1.2705   H         1 RES1   0.0000
   221 H138      6.0936   -3.6468    3.0443   H         1 RES1   0.0000
   222 H139      7.5315   -3.5719    2.0353   H         1 RES1   0.0000
   223 H140      6.2961   -4.7301    0.2019   H         1 RES1   0.0000
   224 H141      4.8582   -4.7980    1.2283   H         1 RES1   0.0000
   225 H142      7.5335   -6.1379    1.8460   H         1 RES1   0.0000
   226 H143      6.0676   -6.9457    1.2961   H         1 RES1   0.0000
   227 H144      6.1139   -6.1871    2.8875   H         1 RES1   0.0000
   228 C73       6.6178    2.2024   -1.4129   C.3       1 RES1   0.0000
   229 C74       6.7581    1.1839   -2.5389   C.3       1 RES1   0.0000
   230 C75       6.3098   -0.2449   -2.1810   C.3       1 RES1   0.0000
   231 C76       4.9190   -0.6817   -2.6766   C.3       1 RES1   0.0000
   232 C77       4.8122   -2.2263   -2.6904   C.3       1 RES1   0.0000
   233 C78       4.6853   -2.7645   -4.1187   C.3       1 RES1   0.0000
   234 C79       5.8353   -2.3511   -5.0359   C.3       1 RES1   0.0000
   235 C80       3.7567   -2.7875   -1.6981   C.3       1 RES1   0.0000
   236 N5        2.4416   -3.3001   -2.1398   N.am      1 RES1   0.0000
   237 C81       2.4517   -4.7427   -2.4934   C.3       1 RES1   0.0000
   238 C82       1.7684   -5.4104   -3.7328   C.3       1 RES1   0.0000
   239 C83       0.3772   -6.0214   -3.5111   C.3       1 RES1   0.0000
   240 C84       0.2896   -6.9778   -2.3282   C.3       1 RES1   0.0000
   241 C85       1.8203   -4.5683   -5.0134   C.3       1 RES1   0.0000
   242 C86       1.3300   -5.2547   -6.3035   C.3       1 RES1   0.0000
   243 C87      -0.1456   -5.0327   -6.6585   C.3       1 RES1   0.0000
   244 C88      -0.5548   -3.5612   -6.6620   C.3       1 RES1   0.0000
   245 C89       1.3840   -2.6138   -1.7026   C.2       1 RES1   0.0000
   246 O7        1.4702   -1.4550   -1.2380   O.2       1 RES1   0.0000
   247 C90      -0.0012   -3.2438   -1.7220   C.3       1 RES1   0.0000
   248 O8       -0.8786   -2.3874   -0.9843   O.3       1 RES1   0.0000
   249 C91      -1.9750   -3.0401   -0.3472   C.3       1 RES1   0.0000
   250 C92      -1.8816   -2.7699    1.1685   C.2       1 RES1   0.0000
   251 O9       -1.0635   -1.9068    1.5476   O.2       1 RES1   0.0000
   252 N6       -2.6812   -3.4437    1.9985   N.am      1 RES1   0.0000
   253 C93      -3.8689   -4.1699    1.5460   C.3       1 RES1   0.0000
   254 C94      -4.0249   -5.7154    1.5844   C.3       1 RES1   0.0000
   255 C95      -3.1897   -6.4593    0.5334   C.3       1 RES1   0.0000
   256 C96      -1.6872   -6.5502    0.7582   C.3       1 RES1   0.0000
   257 C97      -4.1116   -6.4058    2.9621   C.3       1 RES1   0.0000
   258 C98      -2.8470   -6.8395    3.7096   C.3       1 RES1   0.0000
   259 C99      -3.1395   -7.1143    5.1885   C.3       1 RES1   0.0000
   260 C100     -1.8517   -7.2922    5.9853   C.3       1 RES1   0.0000
   261 C101     -2.5734   -3.2303    3.4488   C.3       1 RES1   0.0000
   262 C102     -3.6575   -2.3072    4.0551   C.3       1 RES1   0.0000
   263 C103     -4.7350   -3.0222    4.9008   C.3       1 RES1   0.0000
   264 C104     -4.3375   -3.5923    6.2584   C.3       1 RES1   0.0000
   265 C105     -3.0543   -1.1141    4.8147   C.3       1 RES1   0.0000
   266 C106     -2.0671   -1.4355    5.9479   C.3       1 RES1   0.0000
   267 C107     -0.6427   -1.0019    5.6111   C.3       1 RES1   0.0000
   268 C108      0.2339   -0.9084    6.8529   C.3       1 RES1   0.0000
   269 H145      7.0718    3.1422   -1.7137   H         1 RES1   0.0000
   270 H146      7.1311    1.8595   -0.5173   H         1 RES1   0.0000
   271 H147      5.5761    2.3933   -1.1611   H         1 RES1   0.0000
   272 H148      7.8150    1.1533   -2.8067   H         1 RES1   0.0000
   273 H149      6.2225    1.5300   -3.4221   H         1 RES1   0.0000
   274 H150      6.3647   -0.3858   -1.0978   H         1 RES1   0.0000
   275 H151      7.0336   -0.9299   -2.6243   H         1 RES1   0.0000
   276 H152      4.7817   -0.2909   -3.6838   H         1 RES1   0.0000
   277 H153      4.1247   -0.2593   -2.0627   H         1 RES1   0.0000
   278 H154      5.7647   -2.6029   -2.3003   H         1 RES1   0.0000
   279 H155      3.7436   -2.4241   -4.5462   H         1 RES1   0.0000
   280 H156      4.6772   -3.8547   -4.0760   H         1 RES1   0.0000
   281 H157      5.8725   -1.2776   -5.2018   H         1 RES1   0.0000
   282 H158      5.7130   -2.8276   -6.0052   H         1 RES1   0.0000
   283 H159      6.7884   -2.6683   -4.6201   H         1 RES1   0.0000
   284 H160      3.5369   -2.0047   -0.9702   H         1 RES1   0.0000
   285 H161      4.2180   -3.6182   -1.1578   H         1 RES1   0.0000
   286 H162      2.1141   -5.2934   -1.6125   H         1 RES1   0.0000
   287 H163      3.5106   -4.9620   -2.6143   H         1 RES1   0.0000
   288 H164      2.4135   -6.2800   -3.9082   H         1 RES1   0.0000
   289 H165      0.1614   -6.6149   -4.3981   H         1 RES1   0.0000
   290 H166     -0.4075   -5.2645   -3.4485   H         1 RES1   0.0000
   291 H167      1.0642   -7.7381   -2.3915   H         1 RES1   0.0000
   292 H168     -0.6760   -7.4779   -2.3405   H         1 RES1   0.0000
   293 H169      0.3965   -6.4698   -1.3736   H         1 RES1   0.0000
   294 H170      2.8605   -4.2934   -5.1745   H         1 RES1   0.0000
   295 H171      1.2509   -3.6522   -4.8795   H         1 RES1   0.0000
   296 H172      1.5364   -6.3251   -6.2601   H         1 RES1   0.0000
   297 H173      1.9212   -4.8600   -7.1341   H         1 RES1   0.0000
   298 H174     -0.7990   -5.5823   -5.9802   H         1 RES1   0.0000
   299 H175     -0.3032   -5.4445   -7.6564   H         1 RES1   0.0000
   300 H176     -0.6900   -3.1817   -5.6479   H         1 RES1   0.0000
   301 H177     -1.4978   -3.4373   -7.1884   H         1 RES1   0.0000
   302 H178      0.1994   -2.9562   -7.1608   H         1 RES1   0.0000
   303 H179      0.0380   -4.2436   -1.2749   H         1 RES1   0.0000
   304 H180     -0.3610   -3.3199   -2.7562   H         1 RES1   0.0000
   305 H181     -1.9786   -4.1113   -0.5636   H         1 RES1   0.0000
   306 H182     -2.8969   -2.5912   -0.7380   H         1 RES1   0.0000
   307 H183     -4.0534   -3.8898    0.5074   H         1 RES1   0.0000
   308 H184     -4.6922   -3.7637    2.1392   H         1 RES1   0.0000
   309 H185     -5.0559   -5.8025    1.2092   H         1 RES1   0.0000
   310 H186     -3.3852   -5.9875   -0.4360   H         1 RES1   0.0000
   311 H187     -3.5836   -7.4752    0.4631   H         1 RES1   0.0000
   312 H188     -1.2444   -5.5718    0.9378   H         1 RES1   0.0000
   313 H189     -1.2310   -7.0072   -0.1162   H         1 RES1   0.0000
   314 H190     -1.4618   -7.1861    1.6054   H         1 RES1   0.0000
   315 H191     -4.7136   -7.3062    2.8158   H         1 RES1   0.0000
   316 H192     -4.6985   -5.7566    3.6154   H         1 RES1   0.0000
   317 H193     -2.0621   -6.0835    3.6383   H         1 RES1   0.0000
   318 H194     -2.4619   -7.7645    3.2778   H         1 RES1   0.0000
   319 H195     -3.7496   -8.0132    5.2778   H         1 RES1   0.0000
   320 H196     -3.7174   -6.2937    5.6171   H         1 RES1   0.0000
   321 H197     -1.2483   -8.0938    5.5658   H         1 RES1   0.0000
   322 H198     -2.0744   -7.5397    7.0200   H         1 RES1   0.0000
   323 H199     -1.2597   -6.3772    5.9731   H         1 RES1   0.0000
   324 H200     -1.5893   -2.7949    3.6220   H         1 RES1   0.0000
   325 H201     -2.6189   -4.2092    3.9194   H         1 RES1   0.0000
   326 H202     -4.2167   -1.8855    3.2086   H         1 RES1   0.0000
   327 H203     -5.1662   -3.8293    4.3040   H         1 RES1   0.0000
   328 H204     -5.5375   -2.2982    5.0731   H         1 RES1   0.0000
   329 H205     -3.4516   -4.2197    6.1967   H         1 RES1   0.0000
   330 H206     -5.1594   -4.2001    6.6300   H         1 RES1   0.0000
   331 H207     -4.1595   -2.8069    6.9852   H         1 RES1   0.0000
   332 H208     -3.8935   -0.5426    5.2169   H         1 RES1   0.0000
   333 H209     -2.5430   -0.4626    4.1010   H         1 RES1   0.0000
   334 H210     -2.0548   -2.4979    6.1681   H         1 RES1   0.0000
   335 H211     -2.3843   -0.9194    6.8542   H         1 RES1   0.0000
   336 H212     -0.6626   -0.0307    5.1196   H         1 RES1   0.0000
   337 H213     -0.2101   -1.7061    4.8998   H         1 RES1   0.0000
   338 H214      0.2744   -1.8614    7.3709   H         1 RES1   0.0000
   339 H215     -0.1629   -0.1704    7.5442   H         1 RES1   0.0000
   340 H216      1.2465   -0.6111    6.5882   H         1 RES1   0.0000
@<TRIPOS>BOND
     1     1    20    1
     2     1    22    1
     3     1    25    1
     4     1   133    1
     5     1   135    1
     6     1   138    1
     7     1   246    1
     8     1   248    1
     9     1   251    1
    10     2     3    1
    11     2    43    1
    12     2    44    1
    13     2    45    1
    14     3     4    1
    15     3    46    1
    16     3    47    1
    17     4     5    1
    18     4    48    1
    19     4    49    1
    20     5     6    1
    21     5    50    1
    22     5    51    1
    23     6     7    1
    24     6     9    1
    25     6    52    1
    26     7     8    1
    27     7    53    1
    28     7    54    1
    29     8    55    1
    30     8    56    1
    31     8    57    1
    32     9    10    1
    33     9    58    1
    34     9    59    1
    35    10    11    1
    36    10    19    1
    37    11    12    1
    38    11    60    1
    39    11    61    1
    40    12    13    1
    41    12    15    1
    42    12    62    1
    43    13    14    1
    44    13    63    1
    45    13    64    1
    46    14    65    1
    47    14    66    1
    48    14    67    1
    49    15    16    1
    50    15    68    1
    51    15    69    1
    52    16    17    1
    53    16    70    1
    54    16    71    1
    55    17    18    1
    56    17    72    1
    57    17    73    1
    58    18    74    1
    59    18    75    1
    60    18    76    1
    61    19    20    2
    62    19    21    1
    63    21    22    1
    64    21    77    1
    65    21    78    1
    66    22    23    1
    67    23    24    1
    68    23    79    1
    69    23    80    1
    70    24    25    2
    71    24    26    1
    72    26    27    1
    73    26    35    1
    74    27    28    1
    75    27    81    1
    76    27    82    1
    77    28    29    1
    78    28    31    1
    79    28    83    1
    80    29    30    1
    81    29    84    1
    82    29    85    1
    83    30    86    1
    84    30    87    1
    85    30    88    1
    86    31    32    1
    87    31    89    1
    88    31    90    1
    89    32    33    1
    90    32    91    1
    91    32    92    1
    92    33    34    1
    93    33    93    1
    94    33    94    1
    95    34    95    1
    96    34    96    1
    97    34    97    1
    98    35    36    1
    99    35    98    1
   100    35    99    1
   101    36    37    1
   102    36    39    1
   103    36   100    1
   104    37    38    1
   105    37   101    1
   106    37   102    1
   107    38   103    1
   108    38   104    1
   109    38   105    1
   110    39    40    1
   111    39   106    1
   112    39   107    1
   113    40    41    1
   114    40   108    1
   115    40   109    1
   116    41    42    1
   117    41   110    1
   118    41   111    1
   119    42   112    1
   120    42   113    1
   121    42   114    1
   122   115   116    1
   123   115   156    1
   124   115   157    1
   125   115   158    1
   126   116   117    1
   127   116   159    1
   128   116   160    1
   129   117   118    1
   130   117   161    1
   131   117   162    1
   132   118   119    1
   133   118   163    1
   134   118   164    1
   135   119   120    1
   136   119   122    1
   137   119   165    1
   138   120   121    1
   139   120   166    1
   140   120   167    1
   141   121   168    1
   142   121   169    1
   143   121   170    1
   144   122   123    1
   145   122   171    1
   146   122   172    1
   147   123   124    1
   148   123   132    1
   149   124   125    1
   150   124   173    1
   151   124   174    1
   152   125   126    1
   153   125   128    1
   154   125   175    1
   155   126   127    1
   156   126   176    1
   157   126   177    1
   158   127   178    1
   159   127   179    1
   160   127   180    1
   161   128   129    1
   162   128   181    1
   163   128   182    1
   164   129   130    1
   165   129   183    1
   166   129   184    1
   167   130   131    1
   168   130   185    1
   169   130   186    1
   170   131   187    1
   171   131   188    1
   172   131   189    1
   173   132   133    2
   174   132   134    1
   175   134   135    1
   176   134   190    1
   177   134   191    1
   178   135   136    1
   179   136   137    1
   180   136   192    1
   181   136   193    1
   182   137   138    2
   183   137   139    1
   184   139   140    1
   185   139   148    1
   186   140   141    1
   187   140   194    1
   188   140   195    1
   189   141   142    1
   190   141   144    1
   191   141   196    1
   192   142   143    1
   193   142   197    1
   194   142   198    1
   195   143   199    1
   196   143   200    1
   197   143   201    1
   198   144   145    1
   199   144   202    1
   200   144   203    1
   201   145   146    1
   202   145   204    1
   203   145   205    1
   204   146   147    1
   205   146   206    1
   206   146   207    1
   207   147   208    1
   208   147   209    1
   209   147   210    1
   210   148   149    1
   211   148   211    1
   212   148   212    1
   213   149   150    1
   214   149   152    1
   215   149   213    1
   216   150   151    1
   217   150   214    1
   218   150   215    1
   219   151   216    1
   220   151   217    1
   221   151   218    1
   222   152   153    1
   223   152   219    1
   224   152   220    1
   225   153   154    1
   226   153   221    1
   227   153   222    1
   228   154   155    1
   229   154   223    1
   230   154   224    1
   231   155   225    1
   232   155   226    1
   233   155   227    1
   234   228   229    1
   235   228   269    1
   236   228   270    1
   237   228   271    1
   238   229   230    1
   239   229   272    1
   240   229   273    1
   241   230   231    1
   242   230   274    1
   243   230   275    1
   244   231   232    1
   245   231   276    1
   246   231   277    1
   247   232   233    1
   248   232   235    1
   249   232   278    1
   250   233   234    1
   251   233   279    1
   252   233   280    1
   253   234   281    1
   254   234   282    1
   255   234   283    1
   256   235   236    1
   257   235   284    1
   258   235   285    1
   259   236   237    1
   260   236   245    1
   261   237   238    1
   262   237   286    1
   263   237   287    1
   264   238   239    1
   265   238   241    1
   266   238   288    1
   267   239   240    1
   268   239   289    1
   269   239   290    1
   270   240   291    1
   271   240   292    1
   272   240   293    1
   273   241   242    1
   274   241   294    1
   275   241   295    1
   276   242   243    1
   277   242   296    1
   278   242   297    1
   279   243   244    1
   280   243   298    1
   281   243   299    1
   282   244   300    1
   283   244   301    1
   284   244   302    1
   285   245   246    2
   286   245   247    1
   287   247   248    1
   288   247   303    1
   289   247   304    1
   290   248   249    1
   291   249   250    1
   292   249   305    1
   293   249   306    1
   294   250   251    2
   295   250   252    1
   296   252   253    1
   297   252   261    1
   298   253   254    1
   299   253   307    1
   300   253   308    1
   301   254   255    1
   302   254   257    1
   303   254   309    1
   304   255   256    1
   305   255   310    1
   306   255   311    1
   307   256   312    1
   308   256   313    1
   309   256   314    1
   310   257   258    1
   311   257   315    1
   312   257   316    1
   313   258   259    1
   314   258   317    1
   315   258   318    1
   316   259   260    1
   317   259   319    1
   318   259   320    1
   319   260   321    1
   320   260   322    1
   321   260   323    1
   322   261   262    1
   323   261   324    1
   324   261   325    1
   325   262   263    1
   326   262   265    1
   327   262   326    1
   328   263   264    1
   329   263   327    1
   330   263   328    1
   331   264   329    1
   332   264   330    1
   333   264   331    1
   334   265   266    1
   335   265   332    1
   336   265   333    1
   337   266   267    1
   338   266   334    1
   339   266   335    1
   340   267   268    1
   341   267   336    1
   342   267   337    1
   343   268   338    1
   344   268   339    1
   345   268   340    1
@<TRIPOS>SUBSTRUCTURE
     1 RES1      340 GROUP             0 ****  ****    0  
