@<TRIPOS>MOLECULE
am_c3_9H2O_c0_0_nunpairedes_0_charge_3 Charge: 3 Unpaired_Electrons: 0 XTB_Unpaired_Electrons: 0 XTB_Charge: 3
   358   363     1     0     0
SMALL
NoCharges
****
Generated from Architector

@<TRIPOS>ATOM
     1 La1      -0.1248   -0.0349   -0.1126   La        1 RES1   0.0000
     2 C1        4.1610    3.7524    2.9482   C.3       1 RES1   0.0000
     3 C2        3.3761    2.4451    2.9686   C.3       1 RES1   0.0000
     4 C3        2.3703    2.3453    4.1174   C.3       1 RES1   0.0000
     5 C4        1.1203    3.1690    3.8128   C.3       1 RES1   0.0000
     6 C5       -0.0380    3.0203    4.7949   C.3       1 RES1   0.0000
     7 C6       -0.6156    1.6143    4.9029   C.3       1 RES1   0.0000
     8 C7       -1.3435    1.1191    3.6544   C.3       1 RES1   0.0000
     9 C8       -1.7765   -0.3598    3.6639   C.3       1 RES1   0.0000
    10 N1       -2.9186   -0.5607    2.7768   N.am      1 RES1   0.0000
    11 C9       -4.2289   -0.7006    3.3850   C.3       1 RES1   0.0000
    12 C10      -4.6283   -2.1706    3.6036   C.3       1 RES1   0.0000
    13 C11      -3.8732   -2.9736    4.6638   C.3       1 RES1   0.0000
    14 C12      -4.5428   -4.3484    4.8136   C.3       1 RES1   0.0000
    15 C13      -3.6774   -5.4221    5.4928   C.3       1 RES1   0.0000
    16 C14      -3.0678   -6.4114    4.4998   C.3       1 RES1   0.0000
    17 C15      -2.0352   -5.7815    3.5687   C.3       1 RES1   0.0000
    18 C16      -1.3647   -6.8396    2.6983   C.3       1 RES1   0.0000
    19 C17      -2.6255   -0.7967    1.5050   C.2       1 RES1   0.0000
    20 O1       -1.4763   -1.1571    1.1782   O.2       1 RES1   0.0000
    21 C18      -3.6294   -0.5685    0.3723   C.3       1 RES1   0.0000
    22 C19      -4.4045   -1.8490    0.0860   C.3       1 RES1   0.0000
    23 O2       -2.7744   -0.1697   -0.7070   O.3       1 RES1   0.0000
    24 C20      -3.3781    0.5377   -1.7897   C.3       1 RES1   0.0000
    25 C21      -3.4384   -0.3230   -3.0503   C.3       1 RES1   0.0000
    26 C22      -2.4540    1.7247   -2.1255   C.2       1 RES1   0.0000
    27 O3       -1.2425    1.5881   -1.8675   O.2       1 RES1   0.0000
    28 N2       -2.9304    2.8057   -2.7486   N.am      1 RES1   0.0000
    29 C23      -1.9896    3.8502   -3.1450   C.3       1 RES1   0.0000
    30 C24      -1.9859    5.0574   -2.1943   C.3       1 RES1   0.0000
    31 C25      -2.9018    6.2346   -2.5522   C.3       1 RES1   0.0000
    32 C26      -2.5534    6.9341   -3.8665   C.3       1 RES1   0.0000
    33 C27      -1.1553    7.5480   -3.8798   C.3       1 RES1   0.0000
    34 C28      -0.9596    8.4297   -5.1112   C.3       1 RES1   0.0000
    35 C29       0.4469    9.0183   -5.2273   C.3       1 RES1   0.0000
    36 C30       1.5155    7.9839   -5.5685   C.3       1 RES1   0.0000
    37 C31      -4.3463    3.1062   -2.9428   C.3       1 RES1   0.0000
    38 C32      -4.7122    3.6789   -4.3127   C.3       1 RES1   0.0000
    39 C33      -4.4072    2.7504   -5.4957   C.3       1 RES1   0.0000
    40 C34      -5.6647    2.1150   -6.0963   C.3       1 RES1   0.0000
    41 C35      -6.4182    1.2292   -5.1040   C.3       1 RES1   0.0000
    42 C36      -7.7499    0.6851   -5.6359   C.3       1 RES1   0.0000
    43 C37      -8.9850    1.4511   -5.1588   C.3       1 RES1   0.0000
    44 C38      -9.0946    2.8781   -5.6806   C.3       1 RES1   0.0000
    45 H1        4.7701    3.8344    2.0505   H         1 RES1   0.0000
    46 H2        4.8344    3.8007    3.7976   H         1 RES1   0.0000
    47 H3        3.5098    4.6208    2.9886   H         1 RES1   0.0000
    48 H4        4.0840    1.6203    3.0374   H         1 RES1   0.0000
    49 H5        2.8191    2.3175    2.0395   H         1 RES1   0.0000
    50 H6        2.8289    2.6876    5.0445   H         1 RES1   0.0000
    51 H7        2.0933    1.2968    4.2280   H         1 RES1   0.0000
    52 H8        0.7684    2.8809    2.8181   H         1 RES1   0.0000
    53 H9        1.3997    4.2263    3.8042   H         1 RES1   0.0000
    54 H10      -0.8323    3.7089    4.5105   H         1 RES1   0.0000
    55 H11       0.3167    3.2985    5.7872   H         1 RES1   0.0000
    56 H12      -1.3074    1.6080    5.7402   H         1 RES1   0.0000
    57 H13       0.2178    0.9683    5.1349   H         1 RES1   0.0000
    58 H14      -0.7009    1.2573    2.7864   H         1 RES1   0.0000
    59 H15      -2.2324    1.7387    3.5385   H         1 RES1   0.0000
    60 H16      -2.0671   -0.6701    4.6577   H         1 RES1   0.0000
    61 H17      -0.9637   -0.9922    3.3177   H         1 RES1   0.0000
    62 H18      -4.9880   -0.2437    2.7483   H         1 RES1   0.0000
    63 H19      -4.2190   -0.1657    4.3341   H         1 RES1   0.0000
    64 H20      -4.5154   -2.7030    2.6596   H         1 RES1   0.0000
    65 H21      -5.6907   -2.1734    3.8567   H         1 RES1   0.0000
    66 H22      -3.9021   -2.4560    5.6220   H         1 RES1   0.0000
    67 H23      -2.8279   -3.0940    4.3736   H         1 RES1   0.0000
    68 H24      -4.8394   -4.7156    3.8268   H         1 RES1   0.0000
    69 H25      -5.4570   -4.2050    5.3904   H         1 RES1   0.0000
    70 H26      -4.3048   -5.9881    6.1818   H         1 RES1   0.0000
    71 H27      -2.8868   -4.9552    6.0859   H         1 RES1   0.0000
    72 H28      -3.8688   -6.8517    3.9023   H         1 RES1   0.0000
    73 H29      -2.5930   -7.2205    5.0563   H         1 RES1   0.0000
    74 H30      -1.2752   -5.2686    4.1648   H         1 RES1   0.0000
    75 H31      -2.5155   -5.0391    2.9256   H         1 RES1   0.0000
    76 H32      -0.8299   -7.5555    3.3191   H         1 RES1   0.0000
    77 H33      -0.6525   -6.3925    2.0020   H         1 RES1   0.0000
    78 H34      -2.1115   -7.3861    2.1248   H         1 RES1   0.0000
    79 H35      -4.3137    0.2491    0.6325   H         1 RES1   0.0000
    80 H36      -3.7204   -2.6879    0.1197   H         1 RES1   0.0000
    81 H37      -4.8595   -1.8241   -0.8966   H         1 RES1   0.0000
    82 H38      -5.1878   -1.9948    0.8207   H         1 RES1   0.0000
    83 H39      -4.3743    0.8442   -1.4719   H         1 RES1   0.0000
    84 H40      -2.4236   -0.5805   -3.3378   H         1 RES1   0.0000
    85 H41      -3.9167    0.2187   -3.8594   H         1 RES1   0.0000
    86 H42      -3.9937   -1.2377   -2.8685   H         1 RES1   0.0000
    87 H43      -2.2167    4.1664   -4.1609   H         1 RES1   0.0000
    88 H44      -1.0043    3.3802   -3.1580   H         1 RES1   0.0000
    89 H45      -0.9699    5.4519   -2.1509   H         1 RES1   0.0000
    90 H46      -2.2523    4.7033   -1.1972   H         1 RES1   0.0000
    91 H47      -2.8153    6.9705   -1.7481   H         1 RES1   0.0000
    92 H48      -3.9451    5.9196   -2.5769   H         1 RES1   0.0000
    93 H49      -3.2821    7.7306   -4.0267   H         1 RES1   0.0000
    94 H50      -2.6436    6.2451   -4.7092   H         1 RES1   0.0000
    95 H51      -0.4039    6.7563   -3.8783   H         1 RES1   0.0000
    96 H52      -1.0112    8.1545   -2.9833   H         1 RES1   0.0000
    97 H53      -1.6785    9.2494   -5.0676   H         1 RES1   0.0000
    98 H54      -1.1787    7.8488   -6.0095   H         1 RES1   0.0000
    99 H55       0.7072    9.5221   -4.2935   H         1 RES1   0.0000
   100 H56       0.4325    9.7717   -6.0163   H         1 RES1   0.0000
   101 H57       1.6837    7.2947   -4.7421   H         1 RES1   0.0000
   102 H58       2.4563    8.4823   -5.7863   H         1 RES1   0.0000
   103 H59       1.2220    7.4128   -6.4471   H         1 RES1   0.0000
   104 H60      -4.6493    3.8377   -2.1860   H         1 RES1   0.0000
   105 H61      -4.9220    2.1993   -2.7924   H         1 RES1   0.0000
   106 H62      -4.2320    4.6428   -4.4512   H         1 RES1   0.0000
   107 H63      -5.7834    3.8770   -4.2852   H         1 RES1   0.0000
   108 H64      -3.7204    1.9636   -5.1772   H         1 RES1   0.0000
   109 H65      -3.9059    3.3146   -6.2837   H         1 RES1   0.0000
   110 H66      -5.3741    1.5025   -6.9541   H         1 RES1   0.0000
   111 H67      -6.3165    2.9085   -6.4642   H         1 RES1   0.0000
   112 H68      -6.6209    1.7752   -4.1809   H         1 RES1   0.0000
   113 H69      -5.7749    0.3803   -4.8563   H         1 RES1   0.0000
   114 H70      -7.8600   -0.3460   -5.2989   H         1 RES1   0.0000
   115 H71      -7.7348    0.6711   -6.7245   H         1 RES1   0.0000
   116 H72      -8.9985    1.4755   -4.0648   H         1 RES1   0.0000
   117 H73      -9.8671    0.8940   -5.4797   H         1 RES1   0.0000
   118 H74      -8.3403    3.5219   -5.2317   H         1 RES1   0.0000
   119 H75     -10.0729    3.2853   -5.4360   H         1 RES1   0.0000
   120 H76      -8.9840    2.8999   -6.7615   H         1 RES1   0.0000
   121 C39      -5.4299    1.5382    6.4126   C.3       1 RES1   0.0000
   122 C40      -3.9500    1.9079    6.4739   C.3       1 RES1   0.0000
   123 C41      -3.1374    1.1554    7.5431   C.3       1 RES1   0.0000
   124 C42      -2.8326   -0.2971    7.1541   C.3       1 RES1   0.0000
   125 C43      -1.6403   -0.9744    7.8616   C.3       1 RES1   0.0000
   126 C44      -0.2715   -0.9083    7.1556   C.3       1 RES1   0.0000
   127 C45      -0.0364   -1.9447    6.0265   C.3       1 RES1   0.0000
   128 C46       1.0776   -1.4340    5.0809   C.3       1 RES1   0.0000
   129 N3        1.5346   -2.3181    3.9959   N.am      1 RES1   0.0000
   130 C47       2.3276   -3.4392    4.4886   C.3       1 RES1   0.0000
   131 C48       3.8480   -3.1829    4.5830   C.3       1 RES1   0.0000
   132 C49       4.3497   -1.9830    5.3915   C.3       1 RES1   0.0000
   133 C50       5.8822   -2.0395    5.4711   C.3       1 RES1   0.0000
   134 C51       6.5534   -0.7786    6.0470   C.3       1 RES1   0.0000
   135 C52       7.3455    0.0067    4.9995   C.3       1 RES1   0.0000
   136 C53       6.4542    0.6507    3.9433   C.3       1 RES1   0.0000
   137 C54       7.2507    1.5487    3.0036   C.3       1 RES1   0.0000
   138 C55       1.4211   -1.9412    2.7080   C.2       1 RES1   0.0000
   139 O4        1.0576   -0.8028    2.3509   O.2       1 RES1   0.0000
   140 C56       1.6450   -2.9761    1.5706   C.3       1 RES1   0.0000
   141 C57       3.1033   -3.3589    1.3473   C.3       1 RES1   0.0000
   142 O5        1.1162   -2.3755    0.3665   O.3       1 RES1   0.0000
   143 C58       1.1107   -3.2403   -0.7824   C.3       1 RES1   0.0000
   144 C59       2.1990   -2.8286   -1.7823   C.3       1 RES1   0.0000
   145 C60      -0.2146   -3.0240   -1.5318   C.2       1 RES1   0.0000
   146 O6       -0.6920   -1.8690   -1.5244   O.2       1 RES1   0.0000
   147 N4       -0.7604   -4.0104   -2.2334   N.am      1 RES1   0.0000
   148 C61      -2.0372   -3.7520   -2.8928   C.3       1 RES1   0.0000
   149 C62      -3.2309   -4.1157   -2.0073   C.3       1 RES1   0.0000
   150 C63      -3.7976   -5.5269   -2.1696   C.3       1 RES1   0.0000
   151 C64      -4.4381   -5.7651   -3.5358   C.3       1 RES1   0.0000
   152 C65      -5.6891   -4.9224   -3.7777   C.3       1 RES1   0.0000
   153 C66      -6.4200   -5.4084   -5.0274   C.3       1 RES1   0.0000
   154 C67      -7.6847   -4.6145   -5.3556   C.3       1 RES1   0.0000
   155 C68      -7.4077   -3.2098   -5.8784   C.3       1 RES1   0.0000
   156 C69      -0.2109   -5.3611   -2.3177   C.3       1 RES1   0.0000
   157 C70      -0.4836   -6.0469   -3.6583   C.3       1 RES1   0.0000
   158 C71      -0.0357   -5.2070   -4.8682   C.3       1 RES1   0.0000
   159 C72       1.1732   -5.7926   -5.5990   C.3       1 RES1   0.0000
   160 C73       2.4392   -5.7429   -4.7446   C.3       1 RES1   0.0000
   161 C74       3.6412   -6.4378   -5.3932   C.3       1 RES1   0.0000
   162 C75       3.8967   -7.8529   -4.8713   C.3       1 RES1   0.0000
   163 C76       2.8288   -8.8697   -5.2614   C.3       1 RES1   0.0000
   164 H77      -5.9049    2.0610    5.5834   H         1 RES1   0.0000
   165 H78      -5.9302    1.8377    7.3285   H         1 RES1   0.0000
   166 H79      -5.5723    0.4688    6.2620   H         1 RES1   0.0000
   167 H80      -3.8609    2.9797    6.6711   H         1 RES1   0.0000
   168 H81      -3.5082    1.7194    5.4891   H         1 RES1   0.0000
   169 H82      -3.6702    1.1881    8.4899   H         1 RES1   0.0000
   170 H83      -2.1945    1.6818    7.6919   H         1 RES1   0.0000
   171 H84      -2.6440   -0.2795    6.0858   H         1 RES1   0.0000
   172 H85      -3.7252   -0.9060    7.3112   H         1 RES1   0.0000
   173 H86      -1.8761   -2.0263    8.0066   H         1 RES1   0.0000
   174 H87      -1.5280   -0.5223    8.8469   H         1 RES1   0.0000
   175 H88       0.5008   -1.0629    7.9169   H         1 RES1   0.0000
   176 H89      -0.1178    0.0983    6.7731   H         1 RES1   0.0000
   177 H90      -0.9642   -2.1281    5.4811   H         1 RES1   0.0000
   178 H91       0.2378   -2.8952    6.4904   H         1 RES1   0.0000
   179 H92       1.9366   -1.1680    5.7003   H         1 RES1   0.0000
   180 H93       0.7181   -0.5482    4.5740   H         1 RES1   0.0000
   181 H94       2.1650   -4.3294    3.8769   H         1 RES1   0.0000
   182 H95       1.9652   -3.6603    5.4912   H         1 RES1   0.0000
   183 H96       4.2696   -3.0673    3.5870   H         1 RES1   0.0000
   184 H97       4.2741   -4.0925    5.0139   H         1 RES1   0.0000
   185 H98       3.9487   -1.9926    6.4051   H         1 RES1   0.0000
   186 H99       4.0433   -1.0586    4.8983   H         1 RES1   0.0000
   187 H100      6.2844   -2.2212    4.4723   H         1 RES1   0.0000
   188 H101      6.1544   -2.9007    6.0817   H         1 RES1   0.0000
   189 H102      7.2463   -1.0768    6.8351   H         1 RES1   0.0000
   190 H103      5.8045   -0.1248    6.5018   H         1 RES1   0.0000
   191 H104      8.0643   -0.6588    4.5162   H         1 RES1   0.0000
   192 H105      7.9128    0.7914    5.5015   H         1 RES1   0.0000
   193 H106      5.6878    1.2432    4.4484   H         1 RES1   0.0000
   194 H107      5.9544   -0.1264    3.3586   H         1 RES1   0.0000
   195 H108      7.6800    2.3842    3.5518   H         1 RES1   0.0000
   196 H109      6.6188    1.9497    2.2117   H         1 RES1   0.0000
   197 H110      8.0638    0.9917    2.5428   H         1 RES1   0.0000
   198 H111      1.0396   -3.8628    1.8186   H         1 RES1   0.0000
   199 H112      3.7122   -2.4632    1.2291   H         1 RES1   0.0000
   200 H113      3.1956   -3.9663    0.4538   H         1 RES1   0.0000
   201 H114      3.4778   -3.9675    2.1586   H         1 RES1   0.0000
   202 H115      1.2162   -4.2719   -0.4416   H         1 RES1   0.0000
   203 H116      2.1267   -1.7519   -1.9251   H         1 RES1   0.0000
   204 H117      2.0528   -3.3249   -2.7395   H         1 RES1   0.0000
   205 H118      3.1958   -3.0526   -1.4173   H         1 RES1   0.0000
   206 H119     -2.0955   -4.2992   -3.8257   H         1 RES1   0.0000
   207 H120     -2.0582   -2.6896   -3.1269   H         1 RES1   0.0000
   208 H121     -4.0367   -3.4163   -2.2232   H         1 RES1   0.0000
   209 H122     -2.9292   -3.9800   -0.9698   H         1 RES1   0.0000
   210 H123     -4.5678   -5.6656   -1.4056   H         1 RES1   0.0000
   211 H124     -3.0305   -6.2806   -1.9812   H         1 RES1   0.0000
   212 H125     -4.7160   -6.8172   -3.6035   H         1 RES1   0.0000
   213 H126     -3.7238   -5.5692   -4.3380   H         1 RES1   0.0000
   214 H127     -5.4194   -3.8709   -3.8967   H         1 RES1   0.0000
   215 H128     -6.3593   -5.0040   -2.9194   H         1 RES1   0.0000
   216 H129     -6.6959   -6.4543   -4.8760   H         1 RES1   0.0000
   217 H130     -5.7393   -5.3666   -5.8806   H         1 RES1   0.0000
   218 H131     -8.3163   -4.5579   -4.4659   H         1 RES1   0.0000
   219 H132     -8.2380   -5.1644   -6.1181   H         1 RES1   0.0000
   220 H133     -6.9468   -2.5860   -5.1152   H         1 RES1   0.0000
   221 H134     -8.3370   -2.7399   -6.1881   H         1 RES1   0.0000
   222 H135     -6.7454   -3.2484   -6.7392   H         1 RES1   0.0000
   223 H136     -0.6304   -5.9724   -1.5128   H         1 RES1   0.0000
   224 H137      0.8672   -5.3068   -2.1872   H         1 RES1   0.0000
   225 H138     -1.5349   -6.3117   -3.7384   H         1 RES1   0.0000
   226 H139      0.0579   -6.9921   -3.6482   H         1 RES1   0.0000
   227 H140      0.2299   -4.2013   -4.5324   H         1 RES1   0.0000
   228 H141     -0.8548   -5.1099   -5.5851   H         1 RES1   0.0000
   229 H142      1.3505   -5.2090   -6.5064   H         1 RES1   0.0000
   230 H143      0.9517   -6.8159   -5.9023   H         1 RES1   0.0000
   231 H144      2.2609   -6.2010   -3.7697   H         1 RES1   0.0000
   232 H145      2.6852   -4.6900   -4.5750   H         1 RES1   0.0000
   233 H146      4.5369   -5.8477   -5.1972   H         1 RES1   0.0000
   234 H147      3.5038   -6.4735   -6.4731   H         1 RES1   0.0000
   235 H148      3.9892   -7.8272   -3.7812   H         1 RES1   0.0000
   236 H149      4.8546   -8.1926   -5.2689   H         1 RES1   0.0000
   237 H150      1.8872   -8.6779   -4.7493   H         1 RES1   0.0000
   238 H151      3.1576   -9.8720   -4.9948   H         1 RES1   0.0000
   239 H152      2.6584   -8.8482   -6.3356   H         1 RES1   0.0000
   240 C77      -8.6902   -0.8418   -1.9348   C.3       1 RES1   0.0000
   241 C78      -7.4921   -0.7099   -1.0060   C.3       1 RES1   0.0000
   242 C79      -7.5398    0.4832   -0.0404   C.3       1 RES1   0.0000
   243 C80      -7.0052    1.7811   -0.6467   C.3       1 RES1   0.0000
   244 C81      -6.8352    2.9299    0.3529   C.3       1 RES1   0.0000
   245 C82      -5.6349    2.8096    1.3040   C.3       1 RES1   0.0000
   246 C83      -4.3505    3.4384    0.7465   C.3       1 RES1   0.0000
   247 C84      -3.2111    3.3463    1.7676   C.3       1 RES1   0.0000
   248 N5       -1.9551    3.9523    1.3108   N.am      1 RES1   0.0000
   249 C85      -1.9006    5.4028    1.4480   C.3       1 RES1   0.0000
   250 C86      -1.2408    5.9024    2.7486   C.3       1 RES1   0.0000
   251 C87      -2.1689    6.0146    3.9632   C.3       1 RES1   0.0000
   252 C88      -1.4267    6.6543    5.1414   C.3       1 RES1   0.0000
   253 C89      -2.2681    6.7875    6.4266   C.3       1 RES1   0.0000
   254 C90      -1.5730    6.2001    7.6618   C.3       1 RES1   0.0000
   255 C91      -1.7411    4.6870    7.7971   C.3       1 RES1   0.0000
   256 C92      -0.8425    4.1094    8.8863   C.3       1 RES1   0.0000
   257 C93      -1.0077    3.1443    0.8220   C.2       1 RES1   0.0000
   258 O7       -1.1896    1.9039    0.8295   O.2       1 RES1   0.0000
   259 C94       0.2682    3.6285    0.0978   C.3       1 RES1   0.0000
   260 C95       1.1374    4.7277    0.7046   C.3       1 RES1   0.0000
   261 O8        1.0663    2.4390   -0.0879   O.3       1 RES1   0.0000
   262 C96       2.0734    2.5571   -1.1045   C.3       1 RES1   0.0000
   263 C97       3.4464    2.2431   -0.5110   C.3       1 RES1   0.0000
   264 C98       1.8402    1.4824   -2.1719   C.2       1 RES1   0.0000
   265 O9        1.4223    0.3709   -1.7611   O.2       1 RES1   0.0000
   266 N6        2.1674    1.7004   -3.4357   N.am      1 RES1   0.0000
   267 C99       1.8614    0.6610   -4.4158   C.3       1 RES1   0.0000
   268 C100      0.6445    0.9859   -5.2918   C.3       1 RES1   0.0000
   269 C101      0.9360    1.7803   -6.5718   C.3       1 RES1   0.0000
   270 C102      1.8278    1.0546   -7.5820   C.3       1 RES1   0.0000
   271 C103      1.2262   -0.2369   -8.1280   C.3       1 RES1   0.0000
   272 C104      2.0919   -0.7943   -9.2561   C.3       1 RES1   0.0000
   273 C105      1.5951   -2.1273   -9.8158   C.3       1 RES1   0.0000
   274 C106      1.7271   -3.2882   -8.8348   C.3       1 RES1   0.0000
   275 C107      2.7870    2.9353   -3.9086   C.3       1 RES1   0.0000
   276 C108      3.9855    2.7128   -4.8343   C.3       1 RES1   0.0000
   277 C109      5.1242    1.8894   -4.2098   C.3       1 RES1   0.0000
   278 C110      6.3567    2.7147   -3.8217   C.3       1 RES1   0.0000
   279 C111      6.1358    3.5884   -2.5874   C.3       1 RES1   0.0000
   280 C112      7.3505    4.4313   -2.1788   C.3       1 RES1   0.0000
   281 C113      7.3343    5.8775   -2.6765   C.3       1 RES1   0.0000
   282 C114      7.5505    6.0287   -4.1782   C.3       1 RES1   0.0000
   283 H153     -8.5623   -1.7147   -2.5697   H         1 RES1   0.0000
   284 H154     -9.6053   -0.9700   -1.3673   H         1 RES1   0.0000
   285 H155     -8.7941    0.0262   -2.5762   H         1 RES1   0.0000
   286 H156     -7.4257   -1.6247   -0.4128   H         1 RES1   0.0000
   287 H157     -6.5900   -0.6333   -1.6208   H         1 RES1   0.0000
   288 H158     -8.5631    0.6301    0.3004   H         1 RES1   0.0000
   289 H159     -6.9427    0.2370    0.8414   H         1 RES1   0.0000
   290 H160     -6.0411    1.5721   -1.1152   H         1 RES1   0.0000
   291 H161     -7.6808    2.1179   -1.4326   H         1 RES1   0.0000
   292 H162     -6.7331    3.8614   -0.2057   H         1 RES1   0.0000
   293 H163     -7.7435    3.0079    0.9480   H         1 RES1   0.0000
   294 H164     -5.8791    3.3152    2.2395   H         1 RES1   0.0000
   295 H165     -5.4530    1.7601    1.5494   H         1 RES1   0.0000
   296 H166     -4.0378    2.9204   -0.1628   H         1 RES1   0.0000
   297 H167     -4.5513    4.4824    0.5016   H         1 RES1   0.0000
   298 H168     -3.5084    3.8277    2.7018   H         1 RES1   0.0000
   299 H169     -3.0231    2.2911    1.9489   H         1 RES1   0.0000
   300 H170     -1.3834    5.8306    0.5895   H         1 RES1   0.0000
   301 H171     -2.9280    5.7706    1.4228   H         1 RES1   0.0000
   302 H172     -0.3973    5.2590    2.9911   H         1 RES1   0.0000
   303 H173     -0.8391    6.8992    2.5536   H         1 RES1   0.0000
   304 H174     -3.0277    6.6364    3.7044   H         1 RES1   0.0000
   305 H175     -2.5453    5.0324    4.2615   H         1 RES1   0.0000
   306 H176     -0.5307    6.0694    5.3582   H         1 RES1   0.0000
   307 H177     -1.0990    7.6465    4.8268   H         1 RES1   0.0000
   308 H178     -2.4651    7.8444    6.6127   H         1 RES1   0.0000
   309 H179     -3.2376    6.3005    6.2993   H         1 RES1   0.0000
   310 H180     -0.5101    6.4463    7.6234   H         1 RES1   0.0000
   311 H181     -1.9848    6.6695    8.5547   H         1 RES1   0.0000
   312 H182     -2.7818    4.4649    8.0428   H         1 RES1   0.0000
   313 H183     -1.5124    4.2017    6.8461   H         1 RES1   0.0000
   314 H184     -0.9843    3.0345    8.9822   H         1 RES1   0.0000
   315 H185     -1.0650    4.5630    9.8484   H         1 RES1   0.0000
   316 H186      0.2064    4.2893    8.6592   H         1 RES1   0.0000
   317 H187     -0.0978    3.9529   -0.8874   H         1 RES1   0.0000
   318 H188      1.5345    4.4151    1.6611   H         1 RES1   0.0000
   319 H189      1.9895    4.9311    0.0582   H         1 RES1   0.0000
   320 H190      0.6024    5.6576    0.8332   H         1 RES1   0.0000
   321 H191      2.0221    3.5621   -1.5213   H         1 RES1   0.0000
   322 H192      3.3577    1.3375    0.0862   H         1 RES1   0.0000
   323 H193      4.1735    2.0669   -1.2977   H         1 RES1   0.0000
   324 H194      3.8020    3.0541    0.1159   H         1 RES1   0.0000
   325 H195      2.7300    0.4776   -5.0419   H         1 RES1   0.0000
   326 H196      1.6615   -0.2469   -3.8486   H         1 RES1   0.0000
   327 H197      0.1884    0.0391   -5.5833   H         1 RES1   0.0000
   328 H198     -0.0969    1.5177   -4.6902   H         1 RES1   0.0000
   329 H199     -0.0199    1.9922   -7.0576   H         1 RES1   0.0000
   330 H200      1.3840    2.7472   -6.3351   H         1 RES1   0.0000
   331 H201      2.0045    1.7326   -8.4182   H         1 RES1   0.0000
   332 H202      2.8051    0.8250   -7.1514   H         1 RES1   0.0000
   333 H203      1.1489   -0.9767   -7.3300   H         1 RES1   0.0000
   334 H204      0.2222   -0.0442   -8.5097   H         1 RES1   0.0000
   335 H205      2.1185   -0.0648  -10.0680   H         1 RES1   0.0000
   336 H206      3.1152   -0.9192   -8.8949   H         1 RES1   0.0000
   337 H207      0.5525   -2.0263  -10.1246   H         1 RES1   0.0000
   338 H208      2.1811   -2.3580  -10.7067   H         1 RES1   0.0000
   339 H209      1.0508   -3.1697   -7.9899   H         1 RES1   0.0000
   340 H210      1.4856   -4.2233   -9.3336   H         1 RES1   0.0000
   341 H211      2.7471   -3.3560   -8.4613   H         1 RES1   0.0000
   342 H212      2.0364    3.5281   -4.4395   H         1 RES1   0.0000
   343 H213      3.1392    3.5040   -3.0539   H         1 RES1   0.0000
   344 H214      3.6508    2.2471   -5.7569   H         1 RES1   0.0000
   345 H215      4.3613    3.6999   -5.1040   H         1 RES1   0.0000
   346 H216      4.7585    1.3660   -3.3234   H         1 RES1   0.0000
   347 H217      5.4460    1.1241   -4.9183   H         1 RES1   0.0000
   348 H218      7.1743    2.0247   -3.5980   H         1 RES1   0.0000
   349 H219      6.6616    3.3197   -4.6747   H         1 RES1   0.0000
   350 H220      5.2788    4.2515   -2.7281   H         1 RES1   0.0000
   351 H221      5.9122    2.9159   -1.7569   H         1 RES1   0.0000
   352 H222      7.3883    4.4658   -1.0888   H         1 RES1   0.0000
   353 H223      8.2641    3.9456   -2.5190   H         1 RES1   0.0000
   354 H224      6.3891    6.3522   -2.3949   H         1 RES1   0.0000
   355 H225      8.1308    6.4172   -2.1600   H         1 RES1   0.0000
   356 H226      6.6888    5.6774   -4.7432   H         1 RES1   0.0000
   357 H227      7.7115    7.0758   -4.4261   H         1 RES1   0.0000
   358 H228      8.4309    5.4716   -4.4909   H         1 RES1   0.0000
@<TRIPOS>BOND
     1     1    20    1
     2     1    23    1
     3     1    27    1
     4     1   139    1
     5     1   142    1
     6     1   146    1
     7     1   258    1
     8     1   261    1
     9     1   265    1
    10     2     3    1
    11     2    45    1
    12     2    46    1
    13     2    47    1
    14     3     4    1
    15     3    48    1
    16     3    49    1
    17     4     5    1
    18     4    50    1
    19     4    51    1
    20     5     6    1
    21     5    52    1
    22     5    53    1
    23     6     7    1
    24     6    54    1
    25     6    55    1
    26     7     8    1
    27     7    56    1
    28     7    57    1
    29     8     9    1
    30     8    58    1
    31     8    59    1
    32     9    10    1
    33     9    60    1
    34     9    61    1
    35    10    11    1
    36    10    19    1
    37    11    12    1
    38    11    62    1
    39    11    63    1
    40    12    13    1
    41    12    64    1
    42    12    65    1
    43    13    14    1
    44    13    66    1
    45    13    67    1
    46    14    15    1
    47    14    68    1
    48    14    69    1
    49    15    16    1
    50    15    70    1
    51    15    71    1
    52    16    17    1
    53    16    72    1
    54    16    73    1
    55    17    18    1
    56    17    74    1
    57    17    75    1
    58    18    76    1
    59    18    77    1
    60    18    78    1
    61    19    20    2
    62    19    21    1
    63    21    22    1
    64    21    23    1
    65    21    79    1
    66    22    80    1
    67    22    81    1
    68    22    82    1
    69    23    24    1
    70    24    25    1
    71    24    26    1
    72    24    83    1
    73    25    84    1
    74    25    85    1
    75    25    86    1
    76    26    27    2
    77    26    28    1
    78    28    29    1
    79    28    37    1
    80    29    30    1
    81    29    87    1
    82    29    88    1
    83    30    31    1
    84    30    89    1
    85    30    90    1
    86    31    32    1
    87    31    91    1
    88    31    92    1
    89    32    33    1
    90    32    93    1
    91    32    94    1
    92    33    34    1
    93    33    95    1
    94    33    96    1
    95    34    35    1
    96    34    97    1
    97    34    98    1
    98    35    36    1
    99    35    99    1
   100    35   100    1
   101    36   101    1
   102    36   102    1
   103    36   103    1
   104    37    38    1
   105    37   104    1
   106    37   105    1
   107    38    39    1
   108    38   106    1
   109    38   107    1
   110    39    40    1
   111    39   108    1
   112    39   109    1
   113    40    41    1
   114    40   110    1
   115    40   111    1
   116    41    42    1
   117    41   112    1
   118    41   113    1
   119    42    43    1
   120    42   114    1
   121    42   115    1
   122    43    44    1
   123    43   116    1
   124    43   117    1
   125    44   118    1
   126    44   119    1
   127    44   120    1
   128   121   122    1
   129   121   164    1
   130   121   165    1
   131   121   166    1
   132   122   123    1
   133   122   167    1
   134   122   168    1
   135   123   124    1
   136   123   169    1
   137   123   170    1
   138   124   125    1
   139   124   171    1
   140   124   172    1
   141   125   126    1
   142   125   173    1
   143   125   174    1
   144   126   127    1
   145   126   175    1
   146   126   176    1
   147   127   128    1
   148   127   177    1
   149   127   178    1
   150   128   129    1
   151   128   179    1
   152   128   180    1
   153   129   130    1
   154   129   138    1
   155   130   131    1
   156   130   181    1
   157   130   182    1
   158   131   132    1
   159   131   183    1
   160   131   184    1
   161   132   133    1
   162   132   185    1
   163   132   186    1
   164   133   134    1
   165   133   187    1
   166   133   188    1
   167   134   135    1
   168   134   189    1
   169   134   190    1
   170   135   136    1
   171   135   191    1
   172   135   192    1
   173   136   137    1
   174   136   193    1
   175   136   194    1
   176   137   195    1
   177   137   196    1
   178   137   197    1
   179   138   139    2
   180   138   140    1
   181   140   141    1
   182   140   142    1
   183   140   198    1
   184   141   199    1
   185   141   200    1
   186   141   201    1
   187   142   143    1
   188   143   144    1
   189   143   145    1
   190   143   202    1
   191   144   203    1
   192   144   204    1
   193   144   205    1
   194   145   146    2
   195   145   147    1
   196   147   148    1
   197   147   156    1
   198   148   149    1
   199   148   206    1
   200   148   207    1
   201   149   150    1
   202   149   208    1
   203   149   209    1
   204   150   151    1
   205   150   210    1
   206   150   211    1
   207   151   152    1
   208   151   212    1
   209   151   213    1
   210   152   153    1
   211   152   214    1
   212   152   215    1
   213   153   154    1
   214   153   216    1
   215   153   217    1
   216   154   155    1
   217   154   218    1
   218   154   219    1
   219   155   220    1
   220   155   221    1
   221   155   222    1
   222   156   157    1
   223   156   223    1
   224   156   224    1
   225   157   158    1
   226   157   225    1
   227   157   226    1
   228   158   159    1
   229   158   227    1
   230   158   228    1
   231   159   160    1
   232   159   229    1
   233   159   230    1
   234   160   161    1
   235   160   231    1
   236   160   232    1
   237   161   162    1
   238   161   233    1
   239   161   234    1
   240   162   163    1
   241   162   235    1
   242   162   236    1
   243   163   237    1
   244   163   238    1
   245   163   239    1
   246   240   241    1
   247   240   283    1
   248   240   284    1
   249   240   285    1
   250   241   242    1
   251   241   286    1
   252   241   287    1
   253   242   243    1
   254   242   288    1
   255   242   289    1
   256   243   244    1
   257   243   290    1
   258   243   291    1
   259   244   245    1
   260   244   292    1
   261   244   293    1
   262   245   246    1
   263   245   294    1
   264   245   295    1
   265   246   247    1
   266   246   296    1
   267   246   297    1
   268   247   248    1
   269   247   298    1
   270   247   299    1
   271   248   249    1
   272   248   257    1
   273   249   250    1
   274   249   300    1
   275   249   301    1
   276   250   251    1
   277   250   302    1
   278   250   303    1
   279   251   252    1
   280   251   304    1
   281   251   305    1
   282   252   253    1
   283   252   306    1
   284   252   307    1
   285   253   254    1
   286   253   308    1
   287   253   309    1
   288   254   255    1
   289   254   310    1
   290   254   311    1
   291   255   256    1
   292   255   312    1
   293   255   313    1
   294   256   314    1
   295   256   315    1
   296   256   316    1
   297   257   258    2
   298   257   259    1
   299   259   260    1
   300   259   261    1
   301   259   317    1
   302   260   318    1
   303   260   319    1
   304   260   320    1
   305   261   262    1
   306   262   263    1
   307   262   264    1
   308   262   321    1
   309   263   322    1
   310   263   323    1
   311   263   324    1
   312   264   265    2
   313   264   266    1
   314   266   267    1
   315   266   275    1
   316   267   268    1
   317   267   325    1
   318   267   326    1
   319   268   269    1
   320   268   327    1
   321   268   328    1
   322   269   270    1
   323   269   329    1
   324   269   330    1
   325   270   271    1
   326   270   331    1
   327   270   332    1
   328   271   272    1
   329   271   333    1
   330   271   334    1
   331   272   273    1
   332   272   335    1
   333   272   336    1
   334   273   274    1
   335   273   337    1
   336   273   338    1
   337   274   339    1
   338   274   340    1
   339   274   341    1
   340   275   276    1
   341   275   342    1
   342   275   343    1
   343   276   277    1
   344   276   344    1
   345   276   345    1
   346   277   278    1
   347   277   346    1
   348   277   347    1
   349   278   279    1
   350   278   348    1
   351   278   349    1
   352   279   280    1
   353   279   350    1
   354   279   351    1
   355   280   281    1
   356   280   352    1
   357   280   353    1
   358   281   282    1
   359   281   354    1
   360   281   355    1
   361   282   356    1
   362   282   357    1
   363   282   358    1
@<TRIPOS>SUBSTRUCTURE
     1 RES1      358 GROUP             0 ****  ****    0  
