@<TRIPOS>MOLECULE
am_c3_9H2O_c0_0_nunpairedes_0_charge_3 Charge: 3 Unpaired_Electrons: 0 XTB_Unpaired_Electrons: 0 XTB_Charge: 3
    98   108     1     0     0
SMALL
NoCharges
****
Generated from Architector

@<TRIPOS>ATOM
     1 La1      -1.3428    2.0849    0.0465   La        1 RES1   0.0000
     2 C1       -3.1806   -2.5468   -7.7967   C.3       1 RES1   0.0000
     3 C2       -3.6980   -3.1932   -6.5296   C.3       1 RES1   0.0000
     4 C3       -2.7494   -3.0717   -5.3400   C.3       1 RES1   0.0000
     5 C4       -2.4130   -1.6502   -4.8750   C.3       1 RES1   0.0000
     6 C5       -3.6765   -0.8038   -4.6739   C.3       1 RES1   0.0000
     7 C6       -3.4973    0.4312   -3.8727   C.ar      1 RES1   0.0000
     8 N1       -2.6900    0.5362   -2.8623   N.ar      1 RES1   0.0000
     9 N2       -2.7825    1.4562   -1.9152   N.ar      1 RES1   0.0000
    10 C7       -4.0227    2.0450   -1.8822   C.ar      1 RES1   0.0000
    11 C8       -4.6452    2.3083   -0.5839   C.ar      1 RES1   0.0000
    12 C9       -5.9645    2.7372   -0.4397   C.ar      1 RES1   0.0000
    13 C10      -6.5171    2.7284    0.8311   C.ar      1 RES1   0.0000
    14 C11      -5.7571    2.2854    1.9130   C.ar      1 RES1   0.0000
    15 C12      -4.4132    1.9832    1.7082   C.ar      1 RES1   0.0000
    16 C13      -3.4356    1.6863    2.7861   C.ar      1 RES1   0.0000
    17 C14      -3.6806    1.0706    4.0123   C.ar      1 RES1   0.0000
    18 C15      -2.6057    0.8202    4.8572   C.ar      1 RES1   0.0000
    19 C16      -1.3340    1.2862    4.5358   C.ar      1 RES1   0.0000
    20 C17      -1.1771    1.9591    3.3277   C.ar      1 RES1   0.0000
    21 C18       0.0218    2.6344    2.8122   C.ar      1 RES1   0.0000
    22 N3       -0.1756    3.4305    1.6972   N.ar      1 RES1   0.0000
    23 N4        0.6050    4.4752    1.6647   N.ar      1 RES1   0.0000
    24 C19       1.7026    4.6204    2.3365   C.ar      1 RES1   0.0000
    25 C20       2.2976    5.9482    2.5842   C.3       1 RES1   0.0000
    26 C21       1.4444    7.1436    2.1297   C.3       1 RES1   0.0000
    27 C22       0.3839    7.6218    3.1356   C.3       1 RES1   0.0000
    28 C23      -0.4681    6.5115    3.7548   C.3       1 RES1   0.0000
    29 C24      -1.4966    7.0757    4.7329   C.3       1 RES1   0.0000
    30 C25       2.2034    3.2940    2.7196   C.ar      1 RES1   0.0000
    31 C26       3.4119    2.6500    2.1367   C.3       1 RES1   0.0000
    32 C27       2.9708    2.0168    0.7797   C.3       1 RES1   0.0000
    33 C28       2.9959    3.0659   -0.3459   C.3       1 RES1   0.0000
    34 C29       1.9127    2.9733   -1.4358   C.3       1 RES1   0.0000
    35 C30       2.2366    2.0792   -2.6329   C.3       1 RES1   0.0000
    36 N5        1.2587    2.5254    3.2032   N.ar      1 RES1   0.0000
    37 N6       -2.1975    2.0623    2.4600   N.ar      1 RES1   0.0000
    38 N7       -3.8811    2.0024    0.4781   N.ar      1 RES1   0.0000
    39 N8       -4.6222    2.2496   -3.0285   N.ar      1 RES1   0.0000
    40 C31      -4.2303    1.6666   -4.1262   C.ar      1 RES1   0.0000
    41 C32      -4.4430    2.2290   -5.4701   C.3       1 RES1   0.0000
    42 C33      -5.9522    2.1665   -5.8055   C.3       1 RES1   0.0000
    43 C34      -6.6596    3.4040   -5.2524   C.3       1 RES1   0.0000
    44 C35      -8.1261    3.1359   -4.9160   C.3       1 RES1   0.0000
    45 C36      -8.2659    2.2103   -3.7138   C.3       1 RES1   0.0000
    46 H1       -3.9097   -2.6329   -8.5950   H         1 RES1   0.0000
    47 H2       -2.2593   -3.0337   -8.1081   H         1 RES1   0.0000
    48 H3       -2.9534   -1.4907   -7.6638   H         1 RES1   0.0000
    49 H4       -3.8659   -4.2634   -6.7082   H         1 RES1   0.0000
    50 H5       -4.6850   -2.7886   -6.2820   H         1 RES1   0.0000
    51 H6       -1.8071   -3.5581   -5.5996   H         1 RES1   0.0000
    52 H7       -3.1902   -3.6167   -4.5037   H         1 RES1   0.0000
    53 H8       -1.7405   -1.1620   -5.5818   H         1 RES1   0.0000
    54 H9       -1.9027   -1.7168   -3.9157   H         1 RES1   0.0000
    55 H10      -4.3937   -1.4326   -4.1225   H         1 RES1   0.0000
    56 H11      -4.1321   -0.5458   -5.6324   H         1 RES1   0.0000
    57 H12      -6.5161    3.0663   -1.3078   H         1 RES1   0.0000
    58 H13      -7.5432    3.0409    0.9643   H         1 RES1   0.0000
    59 H14      -6.1794    2.2090    2.9000   H         1 RES1   0.0000
    60 H15      -4.6638    0.7363    4.2849   H         1 RES1   0.0000
    61 H16      -2.7507    0.2612    5.7687   H         1 RES1   0.0000
    62 H17      -0.5018    1.1436    5.2064   H         1 RES1   0.0000
    63 H18       3.2829    5.9763    2.1064   H         1 RES1   0.0000
    64 H19       2.4935    6.0434    3.6570   H         1 RES1   0.0000
    65 H20       0.9735    6.9030    1.1787   H         1 RES1   0.0000
    66 H21       2.1253    7.9763    1.9506   H         1 RES1   0.0000
    67 H22      -0.2682    8.3306    2.6136   H         1 RES1   0.0000
    68 H23       0.8781    8.1683    3.9451   H         1 RES1   0.0000
    69 H24       0.1839    5.8170    4.3017   H         1 RES1   0.0000
    70 H25      -0.9869    5.9527    2.9623   H         1 RES1   0.0000
    71 H26      -1.0076    7.7013    5.4783   H         1 RES1   0.0000
    72 H27      -1.9940    6.2638    5.2593   H         1 RES1   0.0000
    73 H28      -2.2498    7.6691    4.2153   H         1 RES1   0.0000
    74 H29       3.7636    1.8685    2.8122   H         1 RES1   0.0000
    75 H30       4.2171    3.3651    1.9661   H         1 RES1   0.0000
    76 H31       1.9581    1.5850    0.8816   H         1 RES1   0.0000
    77 H32       3.6479    1.1914    0.5537   H         1 RES1   0.0000
    78 H33       3.9724    3.0290   -0.8385   H         1 RES1   0.0000
    79 H34       2.9068    4.0567    0.1094   H         1 RES1   0.0000
    80 H35       1.7552    3.9860   -1.8216   H         1 RES1   0.0000
    81 H36       0.9144    2.6286   -0.9714   H         1 RES1   0.0000
    82 H37       3.1950    2.3730   -3.0593   H         1 RES1   0.0000
    83 H38       1.4878    2.2211   -3.4123   H         1 RES1   0.0000
    84 H39       2.2792    1.0224   -2.3744   H         1 RES1   0.0000
    85 H40      -3.8416    1.6878   -6.1982   H         1 RES1   0.0000
    86 H41      -4.1579    3.2838   -5.4864   H         1 RES1   0.0000
    87 H42      -6.4001    1.2661   -5.3827   H         1 RES1   0.0000
    88 H43      -6.0551    2.1203   -6.8879   H         1 RES1   0.0000
    89 H44      -6.5790    4.2232   -5.9713   H         1 RES1   0.0000
    90 H45      -6.1503    3.7156   -4.3324   H         1 RES1   0.0000
    91 H46      -8.6480    2.7144   -5.7777   H         1 RES1   0.0000
    92 H47      -8.6007    4.0928   -4.6898   H         1 RES1   0.0000
    93 H48      -8.2030    1.1646   -4.0059   H         1 RES1   0.0000
    94 H49      -9.2157    2.3713   -3.2158   H         1 RES1   0.0000
    95 H50      -7.4715    2.4151   -2.9986   H         1 RES1   0.0000
    96 O1        0.0975   -0.1484    0.7525   O.3       1 RES1   0.0000
    97 H51       0.5507   -0.7429    0.1309   H         1 RES1   0.0000
    98 H52       0.2379   -0.5724    1.6171   H         1 RES1   0.0000
@<TRIPOS>BOND
     1     1     8    1
     2     1     9    1
     3     1    22    1
     4     1    23    1
     5     1    36    1
     6     1    37    1
     7     1    38    1
     8     1    39    1
     9     1    96    1
    10     2     3    1
    11     2    46    1
    12     2    47    1
    13     2    48    1
    14     3     4    1
    15     3    49    1
    16     3    50    1
    17     4     5    1
    18     4    51    1
    19     4    52    1
    20     5     6    1
    21     5    53    1
    22     5    54    1
    23     6     7    1
    24     6    55    1
    25     6    56    1
    26     7     8    1
    27     7    40    2
    28     8     9    2
    29     9    10    1
    30    10    11    1
    31    10    39    2
    32    11    12    1
    33    11    38    2
    34    12    13    2
    35    12    57    1
    36    13    14    1
    37    13    58    1
    38    14    15    2
    39    14    59    1
    40    15    16    1
    41    15    38    1
    42    16    17    1
    43    16    37    2
    44    17    18    2
    45    17    60    1
    46    18    19    1
    47    18    61    1
    48    19    20    2
    49    19    62    1
    50    20    21    1
    51    20    37    1
    52    21    22    1
    53    21    36    2
    54    22    23    2
    55    23    24    1
    56    24    25    1
    57    24    30    2
    58    25    26    1
    59    25    63    1
    60    25    64    1
    61    26    27    1
    62    26    65    1
    63    26    66    1
    64    27    28    1
    65    27    67    1
    66    27    68    1
    67    28    29    1
    68    28    69    1
    69    28    70    1
    70    29    71    1
    71    29    72    1
    72    29    73    1
    73    30    31    1
    74    30    36    1
    75    31    32    1
    76    31    74    1
    77    31    75    1
    78    32    33    1
    79    32    76    1
    80    32    77    1
    81    33    34    1
    82    33    78    1
    83    33    79    1
    84    34    35    1
    85    34    80    1
    86    34    81    1
    87    35    82    1
    88    35    83    1
    89    35    84    1
    90    39    40    1
    91    40    41    1
    92    41    42    1
    93    41    85    1
    94    41    86    1
    95    42    43    1
    96    42    87    1
    97    42    88    1
    98    43    44    1
    99    43    89    1
   100    43    90    1
   101    44    45    1
   102    44    91    1
   103    44    92    1
   104    45    93    1
   105    45    94    1
   106    45    95    1
   107    96    97    1
   108    96    98    1
@<TRIPOS>SUBSTRUCTURE
     1 RES1       98 GROUP             0 ****  ****    0  
