@<TRIPOS>MOLECULE
am_c3_9H2O_c0_0_nunpairedes_0_charge_3 Charge: 3 Unpaired_Electrons: 0 XTB_Unpaired_Electrons: 0 XTB_Charge: 3
   272   275     1     0     0
SMALL
NoCharges
****
Generated from Architector

@<TRIPOS>ATOM
     1 La1       0.0262   -0.0676   -0.1639   La        1 RES1   0.0000
     2 C1       -3.8865    0.2796    1.6629   C.3       1 RES1   0.0000
     3 C2       -3.2606    1.6271    2.0056   C.3       1 RES1   0.0000
     4 C3       -2.3578    2.1365    0.8713   C.3       1 RES1   0.0000
     5 C4       -3.2322    2.8790   -0.1441   C.3       1 RES1   0.0000
     6 C5       -2.8750    2.8373   -1.6325   C.3       1 RES1   0.0000
     7 C6       -2.1838    4.0991   -2.1518   C.3       1 RES1   0.0000
     8 C7       -2.0553    4.0701   -3.6750   C.3       1 RES1   0.0000
     9 C8       -1.1477    2.9468   -4.1779   C.3       1 RES1   0.0000
    10 N1        0.1912    3.1089   -3.6306   N.am      1 RES1   0.0000
    11 C9        0.9751    4.1726   -4.2267   C.3       1 RES1   0.0000
    12 C10       0.5401    2.4408   -2.5333   C.2       1 RES1   0.0000
    13 O1       -0.1810    1.5428   -2.0525   O.2       1 RES1   0.0000
    14 C11       1.8669    2.7731   -1.8672   C.3       1 RES1   0.0000
    15 C12       1.5816    3.2076   -0.4349   C.2       1 RES1   0.0000
    16 O2        0.9619    2.4094    0.2931   O.2       1 RES1   0.0000
    17 N2        2.0149    4.3892    0.0034   N.am      1 RES1   0.0000
    18 C13       2.6278    5.4485   -0.7682   C.3       1 RES1   0.0000
    19 C14       1.9010    4.7224    1.4201   C.3       1 RES1   0.0000
    20 C15       3.2379    4.5663    2.1465   C.3       1 RES1   0.0000
    21 C16       3.3090    5.1457    3.5615   C.3       1 RES1   0.0000
    22 C17       2.6011    4.3035    4.6224   C.3       1 RES1   0.0000
    23 C18       1.0857    4.4812    4.7370   C.3       1 RES1   0.0000
    24 C19       0.6441    5.8543    5.2651   C.3       1 RES1   0.0000
    25 C20       0.3037    6.9141    4.2130   C.3       1 RES1   0.0000
    26 C21      -0.9049    6.5684    3.3511   C.3       1 RES1   0.0000
    27 H1       -3.0963   -0.4375    1.4276   H         1 RES1   0.0000
    28 H2       -4.5283    0.3664    0.7895   H         1 RES1   0.0000
    29 H3       -4.4913   -0.0849    2.4945   H         1 RES1   0.0000
    30 H4       -2.6958    1.5432    2.9343   H         1 RES1   0.0000
    31 H5       -4.0638    2.3503    2.1735   H         1 RES1   0.0000
    32 H6       -1.8194    1.2575    0.4119   H         1 RES1   0.0000
    33 H7       -1.6090    2.8231    1.2621   H         1 RES1   0.0000
    34 H8       -3.3111    3.9160    0.1800   H         1 RES1   0.0000
    35 H9       -4.2229    2.4513   -0.0448   H         1 RES1   0.0000
    36 H10      -3.7993    2.7083   -2.2073   H         1 RES1   0.0000
    37 H11      -2.2553    1.9586   -1.8170   H         1 RES1   0.0000
    38 H12      -1.2067    4.2260   -1.6707   H         1 RES1   0.0000
    39 H13      -2.7897    4.9681   -1.8863   H         1 RES1   0.0000
    40 H14      -1.6748    5.0278   -4.0274   H         1 RES1   0.0000
    41 H15      -3.0464    3.9400   -4.1105   H         1 RES1   0.0000
    42 H16      -1.0913    2.9839   -5.2672   H         1 RES1   0.0000
    43 H17      -1.5446    1.9785   -3.8746   H         1 RES1   0.0000
    44 H18       0.4912    4.4801   -5.1503   H         1 RES1   0.0000
    45 H19       1.9758    3.8331   -4.4902   H         1 RES1   0.0000
    46 H20       1.0411    5.0379   -3.5655   H         1 RES1   0.0000
    47 H21       2.4748    3.4636   -2.4350   H         1 RES1   0.0000
    48 H22       2.4007    1.8197   -1.7775   H         1 RES1   0.0000
    49 H23       2.5471    5.2971   -1.8360   H         1 RES1   0.0000
    50 H24       3.6803    5.5538   -0.5064   H         1 RES1   0.0000
    51 H25       2.1286    6.3851   -0.5188   H         1 RES1   0.0000
    52 H26       1.1520    4.0621    1.8480   H         1 RES1   0.0000
    53 H27       1.5596    5.7527    1.5095   H         1 RES1   0.0000
    54 H28       4.0092    5.0533    1.5520   H         1 RES1   0.0000
    55 H29       3.4828    3.5088    2.1991   H         1 RES1   0.0000
    56 H30       2.9397    6.1680    3.5786   H         1 RES1   0.0000
    57 H31       4.3664    5.1878    3.8305   H         1 RES1   0.0000
    58 H32       3.0278    4.5415    5.5976   H         1 RES1   0.0000
    59 H33       2.8237    3.2493    4.4296   H         1 RES1   0.0000
    60 H34       0.7330    3.7269    5.4446   H         1 RES1   0.0000
    61 H35       0.5993    4.2817    3.7824   H         1 RES1   0.0000
    62 H36       1.4306    6.2467    5.9118   H         1 RES1   0.0000
    63 H37      -0.2452    5.7243    5.8842   H         1 RES1   0.0000
    64 H38       1.1600    7.1164    3.5690   H         1 RES1   0.0000
    65 H39       0.0844    7.8412    4.7440   H         1 RES1   0.0000
    66 H40      -0.7585    5.6443    2.7963   H         1 RES1   0.0000
    67 H41      -1.0905    7.3610    2.6311   H         1 RES1   0.0000
    68 H42      -1.7925    6.4573    3.9662   H         1 RES1   0.0000
    69 C22      -2.8816    4.3041    6.3478   C.3       1 RES1   0.0000
    70 C23      -2.1608    3.4680    7.3993   C.3       1 RES1   0.0000
    71 C24      -2.3141    1.9607    7.1804   C.3       1 RES1   0.0000
    72 C25      -1.6102    1.4779    5.9119   C.3       1 RES1   0.0000
    73 C26      -1.6878   -0.0370    5.6970   C.3       1 RES1   0.0000
    74 C27      -3.0876   -0.4999    5.3065   C.3       1 RES1   0.0000
    75 C28      -3.1976   -2.0009    5.0482   C.3       1 RES1   0.0000
    76 C29      -2.5881   -2.4933    3.7315   C.3       1 RES1   0.0000
    77 N3       -1.1327   -2.5981    3.7113   N.am      1 RES1   0.0000
    78 C30      -0.5591   -3.4514    4.7353   C.3       1 RES1   0.0000
    79 C31      -0.4230   -2.0514    2.7229   C.2       1 RES1   0.0000
    80 O3       -0.9473   -1.4866    1.7437   O.2       1 RES1   0.0000
    81 C32       1.0908   -2.2048    2.8072   C.3       1 RES1   0.0000
    82 C33       1.8483   -0.9100    2.5311   C.2       1 RES1   0.0000
    83 O4        1.5316   -0.1710    1.5931   O.2       1 RES1   0.0000
    84 N4        2.9164   -0.6289    3.2874   N.am      1 RES1   0.0000
    85 C34       3.4255   -1.4347    4.3813   C.3       1 RES1   0.0000
    86 C35       3.6540    0.5709    2.8989   C.3       1 RES1   0.0000
    87 C36       4.5424    0.3263    1.6685   C.3       1 RES1   0.0000
    88 C37       4.7818    1.6186    0.8901   C.3       1 RES1   0.0000
    89 C38       5.7940    1.5213   -0.2503   C.3       1 RES1   0.0000
    90 C39       5.4319    0.5536   -1.3736   C.3       1 RES1   0.0000
    91 C40       6.4583    0.6522   -2.5042   C.3       1 RES1   0.0000
    92 C41       6.1820   -0.2818   -3.6822   C.3       1 RES1   0.0000
    93 C42       6.3620   -1.7503   -3.3181   C.3       1 RES1   0.0000
    94 H43      -2.8678    5.3523    6.6324   H         1 RES1   0.0000
    95 H44      -3.9191    3.9919    6.2618   H         1 RES1   0.0000
    96 H45      -2.4114    4.2146    5.3709   H         1 RES1   0.0000
    97 H46      -2.5680    3.7187    8.3800   H         1 RES1   0.0000
    98 H47      -1.1001    3.7306    7.4114   H         1 RES1   0.0000
    99 H48      -3.3776    1.7233    7.1309   H         1 RES1   0.0000
   100 H49      -1.8943    1.4386    8.0417   H         1 RES1   0.0000
   101 H50      -0.5601    1.7812    5.9752   H         1 RES1   0.0000
   102 H51      -2.0622    1.9846    5.0563   H         1 RES1   0.0000
   103 H52      -1.3831   -0.5427    6.6132   H         1 RES1   0.0000
   104 H53      -0.9820   -0.3209    4.9111   H         1 RES1   0.0000
   105 H54      -3.4098    0.0532    4.4266   H         1 RES1   0.0000
   106 H55      -3.7738   -0.2502    6.1143   H         1 RES1   0.0000
   107 H56      -4.2579   -2.2553    5.0096   H         1 RES1   0.0000
   108 H57      -2.7791   -2.5330    5.9007   H         1 RES1   0.0000
   109 H58      -2.8749   -1.8169    2.9302   H         1 RES1   0.0000
   110 H59      -2.9974   -3.4837    3.5148   H         1 RES1   0.0000
   111 H60      -1.3682   -3.9603    5.2485   H         1 RES1   0.0000
   112 H61      -0.0019   -2.8803    5.4776   H         1 RES1   0.0000
   113 H62       0.0795   -4.2213    4.3056   H         1 RES1   0.0000
   114 H63       1.3779   -2.8714    1.9867   H         1 RES1   0.0000
   115 H64       1.3991   -2.6336    3.7500   H         1 RES1   0.0000
   116 H65       2.7096   -1.4985    5.2022   H         1 RES1   0.0000
   117 H66       4.3231   -0.9626    4.7707   H         1 RES1   0.0000
   118 H67       3.7025   -2.4389    4.0582   H         1 RES1   0.0000
   119 H68       4.2588    0.9107    3.7390   H         1 RES1   0.0000
   120 H69       2.9102    1.3360    2.6590   H         1 RES1   0.0000
   121 H70       4.0375   -0.3850    1.0154   H         1 RES1   0.0000
   122 H71       5.4954   -0.0942    1.9898   H         1 RES1   0.0000
   123 H72       5.1512    2.3758    1.5825   H         1 RES1   0.0000
   124 H73       3.8219    1.9555    0.4937   H         1 RES1   0.0000
   125 H74       6.7654    1.2371    0.1537   H         1 RES1   0.0000
   126 H75       5.9111    2.5205   -0.6763   H         1 RES1   0.0000
   127 H76       4.4327    0.7814   -1.7583   H         1 RES1   0.0000
   128 H77       5.4133   -0.4656   -0.9893   H         1 RES1   0.0000
   129 H78       7.4484    0.4286   -2.1039   H         1 RES1   0.0000
   130 H79       6.4818    1.6809   -2.8703   H         1 RES1   0.0000
   131 H80       6.8715   -0.0347   -4.4916   H         1 RES1   0.0000
   132 H81       5.1668   -0.1094   -4.0469   H         1 RES1   0.0000
   133 H82       7.3295   -1.8992   -2.8491   H         1 RES1   0.0000
   134 H83       6.3269   -2.3773   -4.2055   H         1 RES1   0.0000
   135 H84       5.5928   -2.0768   -2.6211   H         1 RES1   0.0000
   136 C43       9.1823    0.4182    2.2621   C.3       1 RES1   0.0000
   137 C44       9.8347   -0.7584    1.5443   C.3       1 RES1   0.0000
   138 C45       8.9218   -1.9840    1.4497   C.3       1 RES1   0.0000
   139 C46       7.7795   -1.7886    0.4558   C.3       1 RES1   0.0000
   140 C47       6.8329   -2.9834    0.3469   C.3       1 RES1   0.0000
   141 C48       6.1516   -3.3199    1.6681   C.3       1 RES1   0.0000
   142 C49       5.0409   -4.3568    1.5205   C.3       1 RES1   0.0000
   143 C50       3.7362   -3.8356    0.9132   C.3       1 RES1   0.0000
   144 N5        3.6357   -3.6523   -0.5389   N.am      1 RES1   0.0000
   145 C51       4.1130   -4.7166   -1.4001   C.3       1 RES1   0.0000
   146 C52       2.8005   -2.6861   -0.9735   C.2       1 RES1   0.0000
   147 O5        2.2299   -1.9261   -0.1852   O.2       1 RES1   0.0000
   148 C53       2.5651   -2.6069   -2.4785   C.3       1 RES1   0.0000
   149 C54       2.2695   -1.1963   -2.9825   C.2       1 RES1   0.0000
   150 O6        1.7494   -0.3332   -2.2610   O.2       1 RES1   0.0000
   151 N6        2.5991   -0.9456   -4.2586   N.am      1 RES1   0.0000
   152 C55       3.1886   -1.8967   -5.1846   C.3       1 RES1   0.0000
   153 C56       2.3281    0.3661   -4.8336   C.3       1 RES1   0.0000
   154 C57       1.2810    0.3356   -5.9490   C.3       1 RES1   0.0000
   155 C58      -0.0304   -0.3059   -5.5006   C.3       1 RES1   0.0000
   156 C59      -1.1456   -0.0212   -6.5023   C.3       1 RES1   0.0000
   157 C60      -2.4914   -0.5781   -6.0532   C.3       1 RES1   0.0000
   158 C61      -3.6003   -0.1732   -7.0221   C.3       1 RES1   0.0000
   159 C62      -4.9743   -0.6895   -6.5960   C.3       1 RES1   0.0000
   160 C63      -5.1662   -2.1759   -6.8761   C.3       1 RES1   0.0000
   161 H85       9.9056    1.2147    2.4070   H         1 RES1   0.0000
   162 H86       8.8136    0.1120    3.2386   H         1 RES1   0.0000
   163 H87       8.3516    0.8286    1.6924   H         1 RES1   0.0000
   164 H88      10.7370   -1.0372    2.0915   H         1 RES1   0.0000
   165 H89      10.1387   -0.4470    0.5427   H         1 RES1   0.0000
   166 H90       8.5195   -2.1908    2.4432   H         1 RES1   0.0000
   167 H91       9.5152   -2.8466    1.1424   H         1 RES1   0.0000
   168 H92       8.2093   -1.5867   -0.5281   H         1 RES1   0.0000
   169 H93       7.1971   -0.9156    0.7494   H         1 RES1   0.0000
   170 H94       7.3821   -3.8554   -0.0075   H         1 RES1   0.0000
   171 H95       6.0675   -2.7458   -0.3935   H         1 RES1   0.0000
   172 H96       5.7518   -2.4042    2.1077   H         1 RES1   0.0000
   173 H97       6.8932   -3.7207    2.3585   H         1 RES1   0.0000
   174 H98       4.7896   -4.7220    2.5193   H         1 RES1   0.0000
   175 H99       5.4256   -5.2186    0.9796   H         1 RES1   0.0000
   176 H100      3.5341   -2.8577    1.3537   H         1 RES1   0.0000
   177 H101      2.9386   -4.5262    1.2135   H         1 RES1   0.0000
   178 H102      4.6877   -5.4209   -0.8113   H         1 RES1   0.0000
   179 H103      4.7779   -4.3437   -2.1781   H         1 RES1   0.0000
   180 H104      3.2846   -5.2654   -1.8518   H         1 RES1   0.0000
   181 H105      1.6695   -3.1991   -2.6941   H         1 RES1   0.0000
   182 H106      3.3889   -3.0428   -3.0320   H         1 RES1   0.0000
   183 H107      4.1173   -2.3160   -4.8032   H         1 RES1   0.0000
   184 H108      3.4385   -1.3721   -6.1031   H         1 RES1   0.0000
   185 H109      2.4998   -2.7040   -5.4355   H         1 RES1   0.0000
   186 H110      3.2663    0.7788   -5.2201   H         1 RES1   0.0000
   187 H111      1.9654    1.0041   -4.0288   H         1 RES1   0.0000
   188 H112      1.6568   -0.1874   -6.8283   H         1 RES1   0.0000
   189 H113      1.0981    1.3680   -6.2547   H         1 RES1   0.0000
   190 H114     -0.3046    0.0793   -4.5141   H         1 RES1   0.0000
   191 H115      0.1009   -1.3880   -5.4086   H         1 RES1   0.0000
   192 H116     -0.8853   -0.4619   -7.4656   H         1 RES1   0.0000
   193 H117     -1.2384    1.0562   -6.6538   H         1 RES1   0.0000
   194 H118     -2.7296   -0.2108   -5.0483   H         1 RES1   0.0000
   195 H119     -2.4242   -1.6670   -6.0074   H         1 RES1   0.0000
   196 H120     -3.3615   -0.5518   -8.0169   H         1 RES1   0.0000
   197 H121     -3.6281    0.9172   -7.0814   H         1 RES1   0.0000
   198 H122     -5.7443   -0.1382   -7.1366   H         1 RES1   0.0000
   199 H123     -5.1073   -0.4846   -5.5299   H         1 RES1   0.0000
   200 H124     -5.1548   -2.3616   -7.9459   H         1 RES1   0.0000
   201 H125     -6.1227   -2.5147   -6.4881   H         1 RES1   0.0000
   202 H126     -4.3819   -2.7798   -6.4253   H         1 RES1   0.0000
   203 C64      -4.8959    6.1719    0.4128   C.3       1 RES1   0.0000
   204 C65      -5.8597    5.1314    0.9726   C.3       1 RES1   0.0000
   205 C66      -6.9840    4.7976   -0.0181   C.3       1 RES1   0.0000
   206 C67      -6.6586    3.6369   -0.9716   C.3       1 RES1   0.0000
   207 C68      -6.9195    2.2909   -0.2917   C.3       1 RES1   0.0000
   208 C69      -6.9797    1.0647   -1.2082   C.3       1 RES1   0.0000
   209 C70      -5.6395    0.5679   -1.7947   C.3       1 RES1   0.0000
   210 C71      -5.5381   -0.9414   -1.5683   C.3       1 RES1   0.0000
   211 N7       -4.4708   -1.6458   -2.2785   N.am      1 RES1   0.0000
   212 C72      -4.9355   -2.5247   -3.3382   C.3       1 RES1   0.0000
   213 C73      -3.1916   -1.6156   -1.8895   C.2       1 RES1   0.0000
   214 O7       -2.6968   -0.7915   -1.1111   O.2       1 RES1   0.0000
   215 C74      -2.3013   -2.7253   -2.4810   C.3       1 RES1   0.0000
   216 C75      -1.1667   -3.0728   -1.5409   C.2       1 RES1   0.0000
   217 O8       -0.2578   -2.2490   -1.3497   O.2       1 RES1   0.0000
   218 N8       -1.1023   -4.3070   -1.0159   N.am      1 RES1   0.0000
   219 C76       0.1765   -4.7406   -0.4829   C.3       1 RES1   0.0000
   220 C77      -2.2539   -5.0899   -0.6077   C.3       1 RES1   0.0000
   221 C78      -2.4274   -4.9920    0.9100   C.3       1 RES1   0.0000
   222 C79      -3.5428   -5.8914    1.4416   C.3       1 RES1   0.0000
   223 C80      -4.9548   -5.3785    1.1574   C.3       1 RES1   0.0000
   224 C81      -6.0221   -6.2053    1.8834   C.3       1 RES1   0.0000
   225 C82      -6.1831   -7.6108    1.3048   C.3       1 RES1   0.0000
   226 C83      -7.1525   -8.4775    2.1105   C.3       1 RES1   0.0000
   227 C84      -6.5743   -8.9125    3.4510   C.3       1 RES1   0.0000
   228 H127     -4.1175    6.4138    1.1328   H         1 RES1   0.0000
   229 H128     -5.4290    7.0891    0.1805   H         1 RES1   0.0000
   230 H129     -4.4211    5.8186   -0.5000   H         1 RES1   0.0000
   231 H130     -6.2953    5.5259    1.8929   H         1 RES1   0.0000
   232 H131     -5.3071    4.2245    1.2309   H         1 RES1   0.0000
   233 H132     -7.2213    5.6993   -0.5890   H         1 RES1   0.0000
   234 H133     -7.8798    4.5227    0.5422   H         1 RES1   0.0000
   235 H134     -7.2953    3.7127   -1.8538   H         1 RES1   0.0000
   236 H135     -5.6266    3.7078   -1.3141   H         1 RES1   0.0000
   237 H136     -7.8949    2.3703    0.1910   H         1 RES1   0.0000
   238 H137     -6.1902    2.1222    0.5033   H         1 RES1   0.0000
   239 H138     -7.6775    1.2805   -2.0181   H         1 RES1   0.0000
   240 H139     -7.4092    0.2575   -0.6075   H         1 RES1   0.0000
   241 H140     -4.7950    1.0437   -1.3048   H         1 RES1   0.0000
   242 H141     -5.5730    0.7942   -2.8596   H         1 RES1   0.0000
   243 H142     -6.4763   -1.3908   -1.8967   H         1 RES1   0.0000
   244 H143     -5.4077   -1.1141   -0.4968   H         1 RES1   0.0000
   245 H144     -5.1449   -3.5279   -2.9586   H         1 RES1   0.0000
   246 H145     -4.2077   -2.5842   -4.1422   H         1 RES1   0.0000
   247 H146     -5.8643   -2.1321   -3.7472   H         1 RES1   0.0000
   248 H147     -1.8302   -2.3293   -3.3874   H         1 RES1   0.0000
   249 H148     -2.8659   -3.6083   -2.7576   H         1 RES1   0.0000
   250 H149      0.9293   -4.6698   -1.2650   H         1 RES1   0.0000
   251 H150      0.1172   -5.7785   -0.1702   H         1 RES1   0.0000
   252 H151      0.4911   -4.1125    0.3493   H         1 RES1   0.0000
   253 H152     -2.1261   -6.1309   -0.9075   H         1 RES1   0.0000
   254 H153     -3.1514   -4.7056   -1.0821   H         1 RES1   0.0000
   255 H154     -2.6310   -3.9488    1.1546   H         1 RES1   0.0000
   256 H155     -1.4994   -5.2796    1.4044   H         1 RES1   0.0000
   257 H156     -3.4295   -5.9957    2.5239   H         1 RES1   0.0000
   258 H157     -3.4318   -6.8845    1.0084   H         1 RES1   0.0000
   259 H158     -5.1580   -5.4083    0.0844   H         1 RES1   0.0000
   260 H159     -5.0354   -4.3395    1.4894   H         1 RES1   0.0000
   261 H160     -6.9847   -5.6910    1.8191   H         1 RES1   0.0000
   262 H161     -5.7575   -6.2768    2.9397   H         1 RES1   0.0000
   263 H162     -5.2142   -8.1133    1.2811   H         1 RES1   0.0000
   264 H163     -6.5404   -7.5267    0.2752   H         1 RES1   0.0000
   265 H164     -7.3896   -9.3672    1.5245   H         1 RES1   0.0000
   266 H165     -8.0826   -7.9311    2.2738   H         1 RES1   0.0000
   267 H166     -5.6196   -9.4132    3.3095   H         1 RES1   0.0000
   268 H167     -7.2510   -9.6046    3.9406   H         1 RES1   0.0000
   269 H168     -6.4249   -8.0653    4.1147   H         1 RES1   0.0000
   270 O9       -0.0881    1.3488    2.7663   O.3       1 RES1   0.0000
   271 H169      0.2624    2.2441    2.8044   H         1 RES1   0.0000
   272 H170     -0.5723    1.2048    3.5867   H         1 RES1   0.0000
@<TRIPOS>BOND
     1     1    13    1
     2     1    16    1
     3     1    80    1
     4     1    83    1
     5     1   147    1
     6     1   150    1
     7     1   214    1
     8     1   217    1
     9     1   270    1
    10     2     3    1
    11     2    27    1
    12     2    28    1
    13     2    29    1
    14     3     4    1
    15     3    30    1
    16     3    31    1
    17     4     5    1
    18     4    32    1
    19     4    33    1
    20     5     6    1
    21     5    34    1
    22     5    35    1
    23     6     7    1
    24     6    36    1
    25     6    37    1
    26     7     8    1
    27     7    38    1
    28     7    39    1
    29     8     9    1
    30     8    40    1
    31     8    41    1
    32     9    10    1
    33     9    42    1
    34     9    43    1
    35    10    11    1
    36    10    12    1
    37    11    44    1
    38    11    45    1
    39    11    46    1
    40    12    13    2
    41    12    14    1
    42    14    15    1
    43    14    47    1
    44    14    48    1
    45    15    16    2
    46    15    17    1
    47    17    18    1
    48    17    19    1
    49    18    49    1
    50    18    50    1
    51    18    51    1
    52    19    20    1
    53    19    52    1
    54    19    53    1
    55    20    21    1
    56    20    54    1
    57    20    55    1
    58    21    22    1
    59    21    56    1
    60    21    57    1
    61    22    23    1
    62    22    58    1
    63    22    59    1
    64    23    24    1
    65    23    60    1
    66    23    61    1
    67    24    25    1
    68    24    62    1
    69    24    63    1
    70    25    26    1
    71    25    64    1
    72    25    65    1
    73    26    66    1
    74    26    67    1
    75    26    68    1
    76    69    70    1
    77    69    94    1
    78    69    95    1
    79    69    96    1
    80    70    71    1
    81    70    97    1
    82    70    98    1
    83    71    72    1
    84    71    99    1
    85    71   100    1
    86    72    73    1
    87    72   101    1
    88    72   102    1
    89    73    74    1
    90    73   103    1
    91    73   104    1
    92    74    75    1
    93    74   105    1
    94    74   106    1
    95    75    76    1
    96    75   107    1
    97    75   108    1
    98    76    77    1
    99    76   109    1
   100    76   110    1
   101    77    78    1
   102    77    79    1
   103    78   111    1
   104    78   112    1
   105    78   113    1
   106    79    80    2
   107    79    81    1
   108    81    82    1
   109    81   114    1
   110    81   115    1
   111    82    83    2
   112    82    84    1
   113    84    85    1
   114    84    86    1
   115    85   116    1
   116    85   117    1
   117    85   118    1
   118    86    87    1
   119    86   119    1
   120    86   120    1
   121    87    88    1
   122    87   121    1
   123    87   122    1
   124    88    89    1
   125    88   123    1
   126    88   124    1
   127    89    90    1
   128    89   125    1
   129    89   126    1
   130    90    91    1
   131    90   127    1
   132    90   128    1
   133    91    92    1
   134    91   129    1
   135    91   130    1
   136    92    93    1
   137    92   131    1
   138    92   132    1
   139    93   133    1
   140    93   134    1
   141    93   135    1
   142   136   137    1
   143   136   161    1
   144   136   162    1
   145   136   163    1
   146   137   138    1
   147   137   164    1
   148   137   165    1
   149   138   139    1
   150   138   166    1
   151   138   167    1
   152   139   140    1
   153   139   168    1
   154   139   169    1
   155   140   141    1
   156   140   170    1
   157   140   171    1
   158   141   142    1
   159   141   172    1
   160   141   173    1
   161   142   143    1
   162   142   174    1
   163   142   175    1
   164   143   144    1
   165   143   176    1
   166   143   177    1
   167   144   145    1
   168   144   146    1
   169   145   178    1
   170   145   179    1
   171   145   180    1
   172   146   147    2
   173   146   148    1
   174   148   149    1
   175   148   181    1
   176   148   182    1
   177   149   150    2
   178   149   151    1
   179   151   152    1
   180   151   153    1
   181   152   183    1
   182   152   184    1
   183   152   185    1
   184   153   154    1
   185   153   186    1
   186   153   187    1
   187   154   155    1
   188   154   188    1
   189   154   189    1
   190   155   156    1
   191   155   190    1
   192   155   191    1
   193   156   157    1
   194   156   192    1
   195   156   193    1
   196   157   158    1
   197   157   194    1
   198   157   195    1
   199   158   159    1
   200   158   196    1
   201   158   197    1
   202   159   160    1
   203   159   198    1
   204   159   199    1
   205   160   200    1
   206   160   201    1
   207   160   202    1
   208   203   204    1
   209   203   228    1
   210   203   229    1
   211   203   230    1
   212   204   205    1
   213   204   231    1
   214   204   232    1
   215   205   206    1
   216   205   233    1
   217   205   234    1
   218   206   207    1
   219   206   235    1
   220   206   236    1
   221   207   208    1
   222   207   237    1
   223   207   238    1
   224   208   209    1
   225   208   239    1
   226   208   240    1
   227   209   210    1
   228   209   241    1
   229   209   242    1
   230   210   211    1
   231   210   243    1
   232   210   244    1
   233   211   212    1
   234   211   213    1
   235   212   245    1
   236   212   246    1
   237   212   247    1
   238   213   214    2
   239   213   215    1
   240   215   216    1
   241   215   248    1
   242   215   249    1
   243   216   217    2
   244   216   218    1
   245   218   219    1
   246   218   220    1
   247   219   250    1
   248   219   251    1
   249   219   252    1
   250   220   221    1
   251   220   253    1
   252   220   254    1
   253   221   222    1
   254   221   255    1
   255   221   256    1
   256   222   223    1
   257   222   257    1
   258   222   258    1
   259   223   224    1
   260   223   259    1
   261   223   260    1
   262   224   225    1
   263   224   261    1
   264   224   262    1
   265   225   226    1
   266   225   263    1
   267   225   264    1
   268   226   227    1
   269   226   265    1
   270   226   266    1
   271   227   267    1
   272   227   268    1
   273   227   269    1
   274   270   271    1
   275   270   272    1
@<TRIPOS>SUBSTRUCTURE
     1 RES1      272 GROUP             0 ****  ****    0  
