@<TRIPOS>MOLECULE
am_c3_9H2O_c0_0_nunpairedes_0_charge_3 Charge: 3 Unpaired_Electrons: 0 XTB_Unpaired_Electrons: 0 XTB_Charge: 3
   439   444     1     0     0
SMALL
NoCharges
****
Generated from Architector

@<TRIPOS>ATOM
     1 La1      -0.1698   -0.0187   -0.1217   La        1 RES1   0.0000
     2 C1       -0.0912   -8.8289    2.6734   C.3       1 RES1   0.0000
     3 C2       -0.5736   -7.7046    3.5804   C.3       1 RES1   0.0000
     4 C3       -1.5901   -6.8018    2.8853   C.3       1 RES1   0.0000
     5 C4       -2.1329   -5.7276    3.8278   C.3       1 RES1   0.0000
     6 C5       -3.1529   -4.8076    3.1498   C.3       1 RES1   0.0000
     7 C6       -4.1617   -4.1665    4.1195   C.3       1 RES1   0.0000
     8 C7       -3.9458   -2.6887    4.4482   C.3       1 RES1   0.0000
     9 C8       -4.2742   -1.7349    3.2963   C.3       1 RES1   0.0000
    10 C9       -4.7488   -0.3522    3.7744   C.3       1 RES1   0.0000
    11 C10      -3.6886    0.6449    4.2455   C.3       1 RES1   0.0000
    12 N1       -2.5805    1.0448    3.3726   N.am      1 RES1   0.0000
    13 C11      -1.4693    1.6283    4.1329   C.3       1 RES1   0.0000
    14 C12      -1.7374    3.0469    4.6605   C.3       1 RES1   0.0000
    15 C13      -0.5966    3.5065    5.5786   C.3       1 RES1   0.0000
    16 C14      -0.9367    4.7388    6.4254   C.3       1 RES1   0.0000
    17 C15      -0.0318    4.8475    7.6658   C.3       1 RES1   0.0000
    18 C16       1.2647    5.6356    7.4746   C.3       1 RES1   0.0000
    19 C17       2.0891    5.7067    8.7689   C.3       1 RES1   0.0000
    20 C18       2.7348    4.3838    9.1894   C.3       1 RES1   0.0000
    21 C19       3.9847    4.5368   10.0602   C.3       1 RES1   0.0000
    22 C20       4.3239    3.1759   10.6638   C.3       1 RES1   0.0000
    23 C21      -2.4283    0.9345    2.0583   C.2       1 RES1   0.0000
    24 O1       -1.3328    1.1793    1.4996   O.2       1 RES1   0.0000
    25 C22      -3.6069    0.6693    1.1221   C.3       1 RES1   0.0000
    26 C23      -4.4552    1.9479    1.1095   C.3       1 RES1   0.0000
    27 O2       -3.0368    0.3482   -0.1509   O.3       1 RES1   0.0000
    28 C24      -3.8635   -0.4514   -1.0048   C.3       1 RES1   0.0000
    29 C25      -4.5641    0.4488   -2.0364   C.3       1 RES1   0.0000
    30 C26      -3.6415    0.9197   -3.1491   C.3       1 RES1   0.0000
    31 C27      -2.9542   -1.5962   -1.4883   C.2       1 RES1   0.0000
    32 O3       -1.7905   -1.6378   -1.0220   O.2       1 RES1   0.0000
    33 N2       -3.4395   -2.5660   -2.2561   N.am      1 RES1   0.0000
    34 C28      -2.6918   -3.8124   -2.3894   C.3       1 RES1   0.0000
    35 C29      -3.5235   -5.0330   -1.9785   C.3       1 RES1   0.0000
    36 C30      -3.9743   -4.9889   -0.5154   C.3       1 RES1   0.0000
    37 C31      -5.2496   -5.8054   -0.2411   C.3       1 RES1   0.0000
    38 C32      -6.0828   -5.1443    0.8531   C.3       1 RES1   0.0000
    39 C33      -7.3522   -5.8943    1.2477   C.3       1 RES1   0.0000
    40 C34      -7.9025   -5.3645    2.5726   C.3       1 RES1   0.0000
    41 C35      -8.2861   -3.8865    2.5030   C.3       1 RES1   0.0000
    42 C36      -8.6856   -3.3265    3.8663   C.3       1 RES1   0.0000
    43 C37      -8.9938   -1.8342    3.7901   C.3       1 RES1   0.0000
    44 C38      -4.6483   -2.5177   -3.0729   C.3       1 RES1   0.0000
    45 C39      -5.9647   -2.7989   -2.3412   C.3       1 RES1   0.0000
    46 C40      -7.0149   -3.3208   -3.3241   C.3       1 RES1   0.0000
    47 C41      -8.3876   -3.5188   -2.6799   C.3       1 RES1   0.0000
    48 C42      -9.0411   -2.1983   -2.2500   C.3       1 RES1   0.0000
    49 C43      -8.9410   -1.9288   -0.7459   C.3       1 RES1   0.0000
    50 C44      -9.3368   -0.4995   -0.3742   C.3       1 RES1   0.0000
    51 C45      -8.2800    0.5332   -0.7650   C.3       1 RES1   0.0000
    52 C46      -8.6822    1.9396   -0.3250   C.3       1 RES1   0.0000
    53 C47      -7.7759    3.0154   -0.9120   C.3       1 RES1   0.0000
    54 H1        0.6524   -9.4354    3.1843   H         1 RES1   0.0000
    55 H2        0.3514   -8.4264    1.7627   H         1 RES1   0.0000
    56 H3       -0.9224   -9.4733    2.3971   H         1 RES1   0.0000
    57 H4        0.2800   -7.1094    3.9175   H         1 RES1   0.0000
    58 H5       -1.0372   -8.1356    4.4681   H         1 RES1   0.0000
    59 H6       -2.4193   -7.4154    2.5332   H         1 RES1   0.0000
    60 H7       -1.1392   -6.3404    2.0013   H         1 RES1   0.0000
    61 H8       -1.2942   -5.1350    4.1951   H         1 RES1   0.0000
    62 H9       -2.5997   -6.2281    4.6813   H         1 RES1   0.0000
    63 H10      -3.6993   -5.4231    2.4358   H         1 RES1   0.0000
    64 H11      -2.6334   -4.0393    2.5670   H         1 RES1   0.0000
    65 H12      -4.1456   -4.7153    5.0619   H         1 RES1   0.0000
    66 H13      -5.1695   -4.2829    3.7163   H         1 RES1   0.0000
    67 H14      -2.9200   -2.5407    4.7759   H         1 RES1   0.0000
    68 H15      -4.6027   -2.4465    5.2850   H         1 RES1   0.0000
    69 H16      -5.1020   -2.1676    2.7279   H         1 RES1   0.0000
    70 H17      -3.4124   -1.6526    2.6276   H         1 RES1   0.0000
    71 H18      -5.3994   -0.5156    4.6401   H         1 RES1   0.0000
    72 H19      -5.3729    0.1238    3.0164   H         1 RES1   0.0000
    73 H20      -3.1994    0.2296    5.1318   H         1 RES1   0.0000
    74 H21      -4.2197    1.5520    4.5595   H         1 RES1   0.0000
    75 H22      -0.6017    1.6722    3.4729   H         1 RES1   0.0000
    76 H23      -1.2494    0.9785    4.9845   H         1 RES1   0.0000
    77 H24      -2.6562    3.0753    5.2474   H         1 RES1   0.0000
    78 H25      -1.8466    3.7331    3.8196   H         1 RES1   0.0000
    79 H26       0.3087    3.7090    5.0019   H         1 RES1   0.0000
    80 H27      -0.3606    2.6882    6.2627   H         1 RES1   0.0000
    81 H28      -1.9793    4.6703    6.7474   H         1 RES1   0.0000
    82 H29      -0.8560    5.6413    5.8181   H         1 RES1   0.0000
    83 H30       0.2191    3.8403    7.9991   H         1 RES1   0.0000
    84 H31      -0.5815    5.3366    8.4711   H         1 RES1   0.0000
    85 H32       1.0112    6.6591    7.1840   H         1 RES1   0.0000
    86 H33       1.8803    5.2098    6.6765   H         1 RES1   0.0000
    87 H34       1.4443    6.0417    9.5828   H         1 RES1   0.0000
    88 H35       2.8724    6.4573    8.6404   H         1 RES1   0.0000
    89 H36       3.0209    3.8167    8.3020   H         1 RES1   0.0000
    90 H37       2.0181    3.7723    9.7433   H         1 RES1   0.0000
    91 H38       3.7898    5.2502   10.8600   H         1 RES1   0.0000
    92 H39       4.8147    4.9370    9.4701   H         1 RES1   0.0000
    93 H40       3.6180    2.9703   11.4658   H         1 RES1   0.0000
    94 H41       5.3338    3.1341   11.0608   H         1 RES1   0.0000
    95 H42       4.2241    2.3956    9.9099   H         1 RES1   0.0000
    96 H43      -4.2282   -0.1654    1.4441   H         1 RES1   0.0000
    97 H44      -3.8697    2.7975    0.7637   H         1 RES1   0.0000
    98 H45      -4.8169    2.1607    2.1133   H         1 RES1   0.0000
    99 H46      -5.3247    1.8225    0.4680   H         1 RES1   0.0000
   100 H47      -4.6359   -0.9543   -0.4021   H         1 RES1   0.0000
   101 H48      -5.4461   -0.0398   -2.4460   H         1 RES1   0.0000
   102 H49      -4.9305    1.3196   -1.4924   H         1 RES1   0.0000
   103 H50      -3.3953    0.1137   -3.8344   H         1 RES1   0.0000
   104 H51      -2.7170    1.3101   -2.7356   H         1 RES1   0.0000
   105 H52      -4.1207    1.7143   -3.7113   H         1 RES1   0.0000
   106 H53      -1.8118   -3.7268   -1.7553   H         1 RES1   0.0000
   107 H54      -2.3829   -3.9223   -3.4335   H         1 RES1   0.0000
   108 H55      -2.9143   -5.9187   -2.1573   H         1 RES1   0.0000
   109 H56      -4.3950   -5.1135   -2.6273   H         1 RES1   0.0000
   110 H57      -4.1609   -3.9486   -0.2333   H         1 RES1   0.0000
   111 H58      -3.1702   -5.3389    0.1321   H         1 RES1   0.0000
   112 H59      -4.9931   -6.8190    0.0661   H         1 RES1   0.0000
   113 H60      -5.8556   -5.8839   -1.1453   H         1 RES1   0.0000
   114 H61      -6.3522   -4.1368    0.5279   H         1 RES1   0.0000
   115 H62      -5.4685   -5.0442    1.7452   H         1 RES1   0.0000
   116 H63      -7.1371   -6.9569    1.3568   H         1 RES1   0.0000
   117 H64      -8.1065   -5.7909    0.4684   H         1 RES1   0.0000
   118 H65      -7.1457   -5.5062    3.3495   H         1 RES1   0.0000
   119 H66      -8.7787   -5.9446    2.8658   H         1 RES1   0.0000
   120 H67      -9.1156   -3.7624    1.8040   H         1 RES1   0.0000
   121 H68      -7.4447   -3.2953    2.1270   H         1 RES1   0.0000
   122 H69      -7.8678   -3.4931    4.5741   H         1 RES1   0.0000
   123 H70      -9.5616   -3.8601    4.2395   H         1 RES1   0.0000
   124 H71      -8.1278   -1.2824    3.4208   H         1 RES1   0.0000
   125 H72      -9.2557   -1.4499    4.7731   H         1 RES1   0.0000
   126 H73      -9.8290   -1.6526    3.1163   H         1 RES1   0.0000
   127 H74      -4.5237   -3.2816   -3.8420   H         1 RES1   0.0000
   128 H75      -4.6931   -1.5697   -3.6062   H         1 RES1   0.0000
   129 H76      -6.3348   -1.8968   -1.8574   H         1 RES1   0.0000
   130 H77      -5.8057   -3.5538   -1.5769   H         1 RES1   0.0000
   131 H78      -6.6772   -4.2788   -3.7247   H         1 RES1   0.0000
   132 H79      -7.1068   -2.6243   -4.1606   H         1 RES1   0.0000
   133 H80      -8.2946   -4.1780   -1.8148   H         1 RES1   0.0000
   134 H81      -9.0288   -4.0229   -3.4043   H         1 RES1   0.0000
   135 H82     -10.0985   -2.2200   -2.5139   H         1 RES1   0.0000
   136 H83      -8.5845   -1.3808   -2.8125   H         1 RES1   0.0000
   137 H84      -7.9276   -2.1200   -0.3831   H         1 RES1   0.0000
   138 H85      -9.6009   -2.6277   -0.2291   H         1 RES1   0.0000
   139 H86      -9.5025   -0.4425    0.7037   H         1 RES1   0.0000
   140 H87     -10.2784   -0.2524   -0.8661   H         1 RES1   0.0000
   141 H88      -8.1455    0.5258   -1.8493   H         1 RES1   0.0000
   142 H89      -7.3207    0.2633   -0.3044   H         1 RES1   0.0000
   143 H90      -8.6702    1.9946    0.7665   H         1 RES1   0.0000
   144 H91      -9.7046    2.1302   -0.6539   H         1 RES1   0.0000
   145 H92      -6.7384    2.8754   -0.6097   H         1 RES1   0.0000
   146 H93      -8.0910    3.9983   -0.5747   H         1 RES1   0.0000
   147 H94      -7.8222    2.9982   -1.9988   H         1 RES1   0.0000
   148 C48      -1.9720    2.3758   10.3883   C.3       1 RES1   0.0000
   149 C49      -1.0171    1.1910   10.5310   C.3       1 RES1   0.0000
   150 C50      -0.2608    0.9704    9.2128   C.3       1 RES1   0.0000
   151 C51       1.0573    0.1969    9.3298   C.3       1 RES1   0.0000
   152 C52       2.0580    0.5230    8.2085   C.3       1 RES1   0.0000
   153 C53       1.5310    0.1108    6.8215   C.3       1 RES1   0.0000
   154 C54       1.8848    1.0458    5.6425   C.3       1 RES1   0.0000
   155 C55       2.6081    0.4113    4.4483   C.3       1 RES1   0.0000
   156 C56       2.4572    1.2538    3.1794   C.3       1 RES1   0.0000
   157 C57       3.4819    0.8416    2.1062   C.3       1 RES1   0.0000
   158 N3        3.5620    1.7507    0.9596   N.am      1 RES1   0.0000
   159 C58       4.8599    2.2430    0.5294   C.3       1 RES1   0.0000
   160 C59       5.2586    3.6025    1.1288   C.3       1 RES1   0.0000
   161 C60       6.3791    4.2723    0.3050   C.3       1 RES1   0.0000
   162 C61       7.6854    4.4832    1.0891   C.3       1 RES1   0.0000
   163 C62       8.9311    4.2587    0.2305   C.3       1 RES1   0.0000
   164 C63      10.2184    4.1534    1.0488   C.3       1 RES1   0.0000
   165 C64      11.4213    3.7475    0.1926   C.3       1 RES1   0.0000
   166 C65      11.2909    2.4176   -0.5613   C.3       1 RES1   0.0000
   167 C66      11.0936    1.1853    0.3338   C.3       1 RES1   0.0000
   168 C67       9.6373    0.8122    0.6014   C.3       1 RES1   0.0000
   169 C68       2.4334    1.9188    0.2879   C.2       1 RES1   0.0000
   170 O4        1.4135    1.3073    0.6619   O.2       1 RES1   0.0000
   171 C69       2.2803    2.8068   -0.9603   C.3       1 RES1   0.0000
   172 C70       2.9334    4.1930   -0.9926   C.3       1 RES1   0.0000
   173 O5        0.8625    2.9183   -1.0120   O.3       1 RES1   0.0000
   174 C71       0.3153    3.3017   -2.2541   C.3       1 RES1   0.0000
   175 C72      -0.9086    4.1877   -1.9521   C.3       1 RES1   0.0000
   176 C73      -1.8708    3.5702   -0.9453   C.3       1 RES1   0.0000
   177 C74      -0.0674    2.0436   -3.0207   C.2       1 RES1   0.0000
   178 O6       -0.3170    0.9998   -2.3679   O.2       1 RES1   0.0000
   179 N4       -0.1656    2.0865   -4.3481   N.am      1 RES1   0.0000
   180 C75       0.0063    3.2602   -5.2080   C.3       1 RES1   0.0000
   181 C76       1.3787    3.9447   -5.2992   C.3       1 RES1   0.0000
   182 C77       2.5894    3.0257   -5.4587   C.3       1 RES1   0.0000
   183 C78       3.8823    3.8560   -5.4283   C.3       1 RES1   0.0000
   184 C79       5.0510    3.2358   -6.1939   C.3       1 RES1   0.0000
   185 C80       5.5795    1.9417   -5.5826   C.3       1 RES1   0.0000
   186 C81       6.8317    1.4629   -6.3174   C.3       1 RES1   0.0000
   187 C82       7.3911    0.1467   -5.7728   C.3       1 RES1   0.0000
   188 C83       6.6291   -1.0879   -6.2630   C.3       1 RES1   0.0000
   189 C84       6.9978   -1.4583   -7.6960   C.3       1 RES1   0.0000
   190 C85      -0.8371    0.9656   -4.9981   C.3       1 RES1   0.0000
   191 C86      -0.0601    0.2323   -6.0863   C.3       1 RES1   0.0000
   192 C87      -0.9423   -0.9256   -6.5737   C.3       1 RES1   0.0000
   193 C88      -0.2825   -1.8539   -7.5957   C.3       1 RES1   0.0000
   194 C89       0.8642   -2.6936   -7.0168   C.3       1 RES1   0.0000
   195 C90       2.0916   -2.8142   -7.9201   C.3       1 RES1   0.0000
   196 C91       3.0043   -1.5857   -7.9153   C.3       1 RES1   0.0000
   197 C92       2.6071   -0.4742   -8.8848   C.3       1 RES1   0.0000
   198 C93       3.5699    0.7080   -8.7988   C.3       1 RES1   0.0000
   199 C94       3.2208    1.8101   -9.7917   C.3       1 RES1   0.0000
   200 H95      -2.5262    2.5494   11.3069   H         1 RES1   0.0000
   201 H96      -2.6850    2.2129    9.5800   H         1 RES1   0.0000
   202 H97      -1.4052    3.2778   10.1649   H         1 RES1   0.0000
   203 H98      -1.5736    0.2887   10.8042   H         1 RES1   0.0000
   204 H99      -0.3159    1.4029   11.3419   H         1 RES1   0.0000
   205 H100     -0.0290    1.9563    8.7985   H         1 RES1   0.0000
   206 H101     -0.9454    0.4601    8.5270   H         1 RES1   0.0000
   207 H102      0.8717   -0.8786    9.3223   H         1 RES1   0.0000
   208 H103      1.5212    0.4421   10.2864   H         1 RES1   0.0000
   209 H104      2.9879   -0.0080    8.4263   H         1 RES1   0.0000
   210 H105      2.2881    1.5918    8.2143   H         1 RES1   0.0000
   211 H106      0.4451    0.0848    6.9003   H         1 RES1   0.0000
   212 H107      1.8688   -0.9076    6.6155   H         1 RES1   0.0000
   213 H108      2.4991    1.8682    6.0153   H         1 RES1   0.0000
   214 H109      0.9691    1.4718    5.2403   H         1 RES1   0.0000
   215 H110      2.2400   -0.5952    4.2484   H         1 RES1   0.0000
   216 H111      3.6616    0.3503    4.6673   H         1 RES1   0.0000
   217 H112      2.5967    2.3100    3.4197   H         1 RES1   0.0000
   218 H113      1.4477    1.1160    2.7902   H         1 RES1   0.0000
   219 H114      3.2138   -0.1530    1.7225   H         1 RES1   0.0000
   220 H115      4.4850    0.7873    2.5290   H         1 RES1   0.0000
   221 H116      4.8327    2.2947   -0.5612   H         1 RES1   0.0000
   222 H117      5.6206    1.5023    0.8047   H         1 RES1   0.0000
   223 H118      5.5972    3.4434    2.1513   H         1 RES1   0.0000
   224 H119      4.3835    4.2471    1.1940   H         1 RES1   0.0000
   225 H120      6.0344    5.2376   -0.0611   H         1 RES1   0.0000
   226 H121      6.5914    3.6566   -0.5741   H         1 RES1   0.0000
   227 H122      7.7206    3.7869    1.9281   H         1 RES1   0.0000
   228 H123      7.7094    5.4879    1.5134   H         1 RES1   0.0000
   229 H124      9.0402    5.0694   -0.4914   H         1 RES1   0.0000
   230 H125      8.8020    3.3347   -0.3313   H         1 RES1   0.0000
   231 H126     10.1001    3.4468    1.8730   H         1 RES1   0.0000
   232 H127     10.4310    5.1259    1.4918   H         1 RES1   0.0000
   233 H128     12.3037    3.6874    0.8368   H         1 RES1   0.0000
   234 H129     11.5998    4.5299   -0.5498   H         1 RES1   0.0000
   235 H130     12.2200    2.2828   -1.1217   H         1 RES1   0.0000
   236 H131     10.4836    2.4675   -1.2980   H         1 RES1   0.0000
   237 H132     11.6054    1.3526    1.2836   H         1 RES1   0.0000
   238 H133     11.5629    0.3251   -0.1529   H         1 RES1   0.0000
   239 H134      9.1193    1.5552    1.1989   H         1 RES1   0.0000
   240 H135      9.5939   -0.1284    1.1447   H         1 RES1   0.0000
   241 H136      9.1038    0.6871   -0.3393   H         1 RES1   0.0000
   242 H137      2.6410    2.1987   -1.8115   H         1 RES1   0.0000
   243 H138      2.7193    4.7447   -0.0826   H         1 RES1   0.0000
   244 H139      2.5046    4.7701   -1.8088   H         1 RES1   0.0000
   245 H140      4.0025    4.1489   -1.1669   H         1 RES1   0.0000
   246 H141      1.0347    3.8866   -2.8275   H         1 RES1   0.0000
   247 H142     -0.5325    5.1268   -1.5439   H         1 RES1   0.0000
   248 H143     -1.4380    4.4177   -2.8742   H         1 RES1   0.0000
   249 H144     -1.3453    3.2751   -0.0370   H         1 RES1   0.0000
   250 H145     -2.3773    2.7014   -1.3591   H         1 RES1   0.0000
   251 H146     -2.6212    4.3128   -0.6837   H         1 RES1   0.0000
   252 H147     -0.7362    4.0148   -4.9329   H         1 RES1   0.0000
   253 H148     -0.2387    2.9121   -6.2099   H         1 RES1   0.0000
   254 H149      1.5502    4.6094   -4.4531   H         1 RES1   0.0000
   255 H150      1.3327    4.5963   -6.1741   H         1 RES1   0.0000
   256 H151      2.5232    2.4971   -6.4100   H         1 RES1   0.0000
   257 H152      2.5925    2.2765   -4.6626   H         1 RES1   0.0000
   258 H153      4.1830    4.0319   -4.3914   H         1 RES1   0.0000
   259 H154      3.6738    4.8274   -5.8801   H         1 RES1   0.0000
   260 H155      5.8663    3.9609   -6.2201   H         1 RES1   0.0000
   261 H156      4.7522    3.0518   -7.2260   H         1 RES1   0.0000
   262 H157      4.8073    1.1682   -5.6209   H         1 RES1   0.0000
   263 H158      5.8287    2.1208   -4.5326   H         1 RES1   0.0000
   264 H159      7.5990    2.2329   -6.2282   H         1 RES1   0.0000
   265 H160      6.6049    1.3562   -7.3779   H         1 RES1   0.0000
   266 H161      7.3751    0.1842   -4.6792   H         1 RES1   0.0000
   267 H162      8.4333    0.0478   -6.0829   H         1 RES1   0.0000
   268 H163      5.5511   -0.9118   -6.1950   H         1 RES1   0.0000
   269 H164      6.8714   -1.9374   -5.6185   H         1 RES1   0.0000
   270 H165      6.7931   -0.6362   -8.3773   H         1 RES1   0.0000
   271 H166      6.4329   -2.3292   -8.0250   H         1 RES1   0.0000
   272 H167      8.0581   -1.6922   -7.7633   H         1 RES1   0.0000
   273 H168     -1.7762    1.3479   -5.4131   H         1 RES1   0.0000
   274 H169     -1.0660    0.2493   -4.2076   H         1 RES1   0.0000
   275 H170      0.8826   -0.1292   -5.6719   H         1 RES1   0.0000
   276 H171      0.1693    0.8850   -6.9292   H         1 RES1   0.0000
   277 H172     -1.8394   -0.4948   -7.0305   H         1 RES1   0.0000
   278 H173     -1.2546   -1.5141   -5.7048   H         1 RES1   0.0000
   279 H174      0.0666   -1.2635   -8.4376   H         1 RES1   0.0000
   280 H175     -1.0546   -2.5160   -7.9885   H         1 RES1   0.0000
   281 H176      0.4862   -3.6962   -6.8102   H         1 RES1   0.0000
   282 H177      1.1822   -2.2667   -6.0642   H         1 RES1   0.0000
   283 H178      1.7760   -3.0302   -8.9392   H         1 RES1   0.0000
   284 H179      2.6730   -3.6688   -7.5692   H         1 RES1   0.0000
   285 H180      4.0109   -1.9051   -8.1876   H         1 RES1   0.0000
   286 H181      3.0527   -1.1751   -6.9014   H         1 RES1   0.0000
   287 H182      1.6033   -0.1101   -8.6670   H         1 RES1   0.0000
   288 H183      2.6075   -0.8652   -9.9042   H         1 RES1   0.0000
   289 H184      4.5832    0.3532   -8.9907   H         1 RES1   0.0000
   290 H185      3.5481    1.1116   -7.7819   H         1 RES1   0.0000
   291 H186      3.3002    1.4411  -10.8103   H         1 RES1   0.0000
   292 H187      3.8989    2.6538   -9.6863   H         1 RES1   0.0000
   293 H188      2.2036    2.1653   -9.6350   H         1 RES1   0.0000
   294 C95       4.9229    5.0673    4.6276   C.3       1 RES1   0.0000
   295 C96       4.6230    3.6500    5.1146   C.3       1 RES1   0.0000
   296 C97       5.7674    3.1131    5.9995   C.3       1 RES1   0.0000
   297 C98       6.2324    1.6968    5.6215   C.3       1 RES1   0.0000
   298 C99       5.4431    0.5347    6.2452   C.3       1 RES1   0.0000
   299 C100      5.5954   -0.7676    5.4260   C.3       1 RES1   0.0000
   300 C101      4.6405   -1.8869    5.8727   C.3       1 RES1   0.0000
   301 C102      4.0604   -2.7432    4.7344   C.3       1 RES1   0.0000
   302 C103      2.8157   -3.4832    5.2339   C.3       1 RES1   0.0000
   303 C104      1.8489   -3.9496    4.1312   C.3       1 RES1   0.0000
   304 N5        0.9105   -2.9257    3.6674   N.am      1 RES1   0.0000
   305 C105      0.0037   -2.3244    4.6692   C.3       1 RES1   0.0000
   306 C106     -0.3081   -3.1430    5.9374   C.3       1 RES1   0.0000
   307 C107     -1.1245   -2.2796    6.9087   C.3       1 RES1   0.0000
   308 C108     -1.9067   -3.0388    7.9839   C.3       1 RES1   0.0000
   309 C109     -2.7608   -2.0496    8.7996   C.3       1 RES1   0.0000
   310 C110     -4.2030   -2.4829    9.0717   C.3       1 RES1   0.0000
   311 C111     -5.1218   -1.2927    9.3588   C.3       1 RES1   0.0000
   312 C112     -4.7529   -0.4691   10.5960   C.3       1 RES1   0.0000
   313 C113     -6.0148    0.0993   11.2466   C.3       1 RES1   0.0000
   314 C114     -5.7624    1.2346   12.2341   C.3       1 RES1   0.0000
   315 C115      0.8145   -2.4718    2.4140   C.2       1 RES1   0.0000
   316 O7        0.1092   -1.4868    2.1068   O.2       1 RES1   0.0000
   317 C116      1.5224   -3.2236    1.2628   C.3       1 RES1   0.0000
   318 C117      0.9529   -4.6406    1.1304   C.3       1 RES1   0.0000
   319 O8        1.2437   -2.4660    0.0817   O.3       1 RES1   0.0000
   320 C118      1.9747   -2.8731   -1.0828   C.3       1 RES1   0.0000
   321 C119      1.0588   -3.5738   -2.1057   C.3       1 RES1   0.0000
   322 C120      0.4643   -2.6036   -3.1226   C.3       1 RES1   0.0000
   323 C121      2.6094   -1.5825   -1.6141   C.2       1 RES1   0.0000
   324 O9        2.1067   -0.4992   -1.2591   O.2       1 RES1   0.0000
   325 N6        3.7209   -1.6534   -2.3419   N.am      1 RES1   0.0000
   326 C122      4.5524   -0.4616   -2.4598   C.3       1 RES1   0.0000
   327 C123      5.9853   -0.7328   -1.9921   C.3       1 RES1   0.0000
   328 C124      6.0479   -1.1388   -0.5154   C.3       1 RES1   0.0000
   329 C125      7.1714   -2.1225   -0.1821   C.3       1 RES1   0.0000
   330 C126      6.9583   -2.7377    1.2008   C.3       1 RES1   0.0000
   331 C127      8.0120   -3.7927    1.5346   C.3       1 RES1   0.0000
   332 C128      7.6942   -4.5583    2.8207   C.3       1 RES1   0.0000
   333 C129      6.4901   -5.4895    2.6775   C.3       1 RES1   0.0000
   334 C130      6.2863   -6.3806    3.9011   C.3       1 RES1   0.0000
   335 C131      5.0744   -7.2928    3.7328   C.3       1 RES1   0.0000
   336 C132      4.1106   -2.7963   -3.1637   C.3       1 RES1   0.0000
   337 C133      4.8402   -3.9676   -2.4828   C.3       1 RES1   0.0000
   338 C134      5.8849   -4.5490   -3.4437   C.3       1 RES1   0.0000
   339 C135      6.6224   -5.7861   -2.9243   C.3       1 RES1   0.0000
   340 C136      5.7295   -7.0288   -2.8193   C.3       1 RES1   0.0000
   341 C137      5.2803   -7.3293   -1.3874   C.3       1 RES1   0.0000
   342 C138      4.1359   -8.3435   -1.3311   C.3       1 RES1   0.0000
   343 C139      2.7869   -7.7340   -1.7098   C.3       1 RES1   0.0000
   344 C140      1.6651   -8.7689   -1.6895   C.3       1 RES1   0.0000
   345 C141      0.3216   -8.1593   -2.0729   C.3       1 RES1   0.0000
   346 H189      5.0786    5.7298    5.4781   H         1 RES1   0.0000
   347 H190      5.8211    5.0895    4.0098   H         1 RES1   0.0000
   348 H191      4.1055    5.4891    4.0390   H         1 RES1   0.0000
   349 H192      4.4919    3.0006    4.2446   H         1 RES1   0.0000
   350 H193      3.6716    3.6614    5.6550   H         1 RES1   0.0000
   351 H194      5.4729    3.1595    7.0504   H         1 RES1   0.0000
   352 H195      6.6243    3.7855    5.8848   H         1 RES1   0.0000
   353 H196      6.1683    1.6249    4.5328   H         1 RES1   0.0000
   354 H197      7.2800    1.5727    5.8932   H         1 RES1   0.0000
   355 H198      4.3999    0.8408    6.3233   H         1 RES1   0.0000
   356 H199      5.7818    0.3654    7.2688   H         1 RES1   0.0000
   357 H200      6.6271   -1.1099    5.4975   H         1 RES1   0.0000
   358 H201      5.4158   -0.5613    4.3633   H         1 RES1   0.0000
   359 H202      3.8056   -1.4247    6.3962   H         1 RES1   0.0000
   360 H203      5.1385   -2.5373    6.5912   H         1 RES1   0.0000
   361 H204      4.8035   -3.4554    4.3748   H         1 RES1   0.0000
   362 H205      3.7765   -2.1091    3.8886   H         1 RES1   0.0000
   363 H206      2.3018   -2.8191    5.9235   H         1 RES1   0.0000
   364 H207      3.1082   -4.3659    5.8029   H         1 RES1   0.0000
   365 H208      1.2614   -4.8000    4.4959   H         1 RES1   0.0000
   366 H209      2.4428   -4.2909    3.2886   H         1 RES1   0.0000
   367 H210     -0.9316   -2.1443    4.1276   H         1 RES1   0.0000
   368 H211      0.3937   -1.3462    4.9664   H         1 RES1   0.0000
   369 H212      0.5857   -3.4863    6.4518   H         1 RES1   0.0000
   370 H213     -0.8887   -4.0315    5.6921   H         1 RES1   0.0000
   371 H214     -1.8462   -1.6995    6.3310   H         1 RES1   0.0000
   372 H215     -0.4663   -1.5804    7.4174   H         1 RES1   0.0000
   373 H216     -1.2262   -3.5684    8.6494   H         1 RES1   0.0000
   374 H217     -2.5509   -3.7825    7.5168   H         1 RES1   0.0000
   375 H218     -2.8106   -1.1083    8.2526   H         1 RES1   0.0000
   376 H219     -2.2606   -1.8317    9.7396   H         1 RES1   0.0000
   377 H220     -4.2385   -3.1872    9.9052   H         1 RES1   0.0000
   378 H221     -4.5916   -2.9992    8.1879   H         1 RES1   0.0000
   379 H222     -6.1295   -1.6853    9.4977   H         1 RES1   0.0000
   380 H223     -5.1392   -0.6415    8.4786   H         1 RES1   0.0000
   381 H224     -4.0873    0.3470   10.3210   H         1 RES1   0.0000
   382 H225     -4.2284   -1.0953   11.3188   H         1 RES1   0.0000
   383 H226     -6.5202   -0.7113   11.7729   H         1 RES1   0.0000
   384 H227     -6.6916    0.4520   10.4647   H         1 RES1   0.0000
   385 H228     -4.9803    0.9644   12.9416   H         1 RES1   0.0000
   386 H229     -6.6741    1.4431   12.7925   H         1 RES1   0.0000
   387 H230     -5.4666    2.1500   11.7227   H         1 RES1   0.0000
   388 H231      2.6123   -3.2559    1.4363   H         1 RES1   0.0000
   389 H232     -0.0993   -4.5899    0.8564   H         1 RES1   0.0000
   390 H233      1.0362   -5.1951    2.0572   H         1 RES1   0.0000
   391 H234      1.4872   -5.2082    0.3722   H         1 RES1   0.0000
   392 H235      2.7813   -3.5490   -0.7872   H         1 RES1   0.0000
   393 H236      1.6122   -4.3662   -2.6124   H         1 RES1   0.0000
   394 H237      0.2528   -4.0602   -1.5542   H         1 RES1   0.0000
   395 H238      1.2464   -2.1222   -3.7065   H         1 RES1   0.0000
   396 H239     -0.1053   -1.8257   -2.6096   H         1 RES1   0.0000
   397 H240     -0.1973   -3.1289   -3.8082   H         1 RES1   0.0000
   398 H241      4.0980    0.3053   -1.8302   H         1 RES1   0.0000
   399 H242      4.5597   -0.1157   -3.4953   H         1 RES1   0.0000
   400 H243      6.5648    0.1746   -2.1630   H         1 RES1   0.0000
   401 H244      6.4331   -1.5142   -2.6056   H         1 RES1   0.0000
   402 H245      5.0923   -1.5912   -0.2293   H         1 RES1   0.0000
   403 H246      6.1802   -0.2592    0.1137   H         1 RES1   0.0000
   404 H247      8.1352   -1.6155   -0.2115   H         1 RES1   0.0000
   405 H248      7.2070   -2.9280   -0.9181   H         1 RES1   0.0000
   406 H249      5.9671   -3.2013    1.2281   H         1 RES1   0.0000
   407 H250      6.9757   -1.9535    1.9626   H         1 RES1   0.0000
   408 H251      8.9825   -3.3039    1.6360   H         1 RES1   0.0000
   409 H252      8.0869   -4.5013    0.7058   H         1 RES1   0.0000
   410 H253      7.5180   -3.8476    3.6322   H         1 RES1   0.0000
   411 H254      8.5654   -5.1570    3.0886   H         1 RES1   0.0000
   412 H255      6.6314   -6.1271    1.8018   H         1 RES1   0.0000
   413 H256      5.5779   -4.9053    2.5169   H         1 RES1   0.0000
   414 H257      6.1587   -5.7601    4.7919   H         1 RES1   0.0000
   415 H258      7.1759   -6.9929    4.0532   H         1 RES1   0.0000
   416 H259      4.1581   -6.7071    3.6405   H         1 RES1   0.0000
   417 H260      4.9736   -7.9568    4.5883   H         1 RES1   0.0000
   418 H261      5.1835   -7.9027    2.8372   H         1 RES1   0.0000
   419 H262      4.7677   -2.3932   -3.9360   H         1 RES1   0.0000
   420 H263      3.2281   -3.1747   -3.6793   H         1 RES1   0.0000
   421 H264      4.1365   -4.7539   -2.2090   H         1 RES1   0.0000
   422 H265      5.3388   -3.6303   -1.5774   H         1 RES1   0.0000
   423 H266      6.6259   -3.7766   -3.6604   H         1 RES1   0.0000
   424 H267      5.3930   -4.8066   -4.3845   H         1 RES1   0.0000
   425 H268      7.0749   -5.5762   -1.9532   H         1 RES1   0.0000
   426 H269      7.4384   -5.9915   -3.6181   H         1 RES1   0.0000
   427 H270      6.2706   -7.8978   -3.1940   H         1 RES1   0.0000
   428 H271      4.8634   -6.8975   -3.4700   H         1 RES1   0.0000
   429 H272      4.9666   -6.4101   -0.8849   H         1 RES1   0.0000
   430 H273      6.1369   -7.7189   -0.8335   H         1 RES1   0.0000
   431 H274      4.0671   -8.7532   -0.3212   H         1 RES1   0.0000
   432 H275      4.3583   -9.1707   -2.0063   H         1 RES1   0.0000
   433 H276      2.8497   -7.2975   -2.7099   H         1 RES1   0.0000
   434 H277      2.5480   -6.9262   -1.0070   H         1 RES1   0.0000
   435 H278      1.6001   -9.2111   -0.6929   H         1 RES1   0.0000
   436 H279      1.9062   -9.5691   -2.3905   H         1 RES1   0.0000
   437 H280      0.0388   -7.3666   -1.3800   H         1 RES1   0.0000
   438 H281     -0.4548   -8.9182   -2.0551   H         1 RES1   0.0000
   439 H282      0.3672   -7.7410   -3.0769   H         1 RES1   0.0000
@<TRIPOS>BOND
     1     1    24    1
     2     1    27    1
     3     1    32    1
     4     1   170    1
     5     1   173    1
     6     1   178    1
     7     1   316    1
     8     1   319    1
     9     1   324    1
    10     2     3    1
    11     2    54    1
    12     2    55    1
    13     2    56    1
    14     3     4    1
    15     3    57    1
    16     3    58    1
    17     4     5    1
    18     4    59    1
    19     4    60    1
    20     5     6    1
    21     5    61    1
    22     5    62    1
    23     6     7    1
    24     6    63    1
    25     6    64    1
    26     7     8    1
    27     7    65    1
    28     7    66    1
    29     8     9    1
    30     8    67    1
    31     8    68    1
    32     9    10    1
    33     9    69    1
    34     9    70    1
    35    10    11    1
    36    10    71    1
    37    10    72    1
    38    11    12    1
    39    11    73    1
    40    11    74    1
    41    12    13    1
    42    12    23    1
    43    13    14    1
    44    13    75    1
    45    13    76    1
    46    14    15    1
    47    14    77    1
    48    14    78    1
    49    15    16    1
    50    15    79    1
    51    15    80    1
    52    16    17    1
    53    16    81    1
    54    16    82    1
    55    17    18    1
    56    17    83    1
    57    17    84    1
    58    18    19    1
    59    18    85    1
    60    18    86    1
    61    19    20    1
    62    19    87    1
    63    19    88    1
    64    20    21    1
    65    20    89    1
    66    20    90    1
    67    21    22    1
    68    21    91    1
    69    21    92    1
    70    22    93    1
    71    22    94    1
    72    22    95    1
    73    23    24    2
    74    23    25    1
    75    25    26    1
    76    25    27    1
    77    25    96    1
    78    26    97    1
    79    26    98    1
    80    26    99    1
    81    27    28    1
    82    28    29    1
    83    28    31    1
    84    28   100    1
    85    29    30    1
    86    29   101    1
    87    29   102    1
    88    30   103    1
    89    30   104    1
    90    30   105    1
    91    31    32    2
    92    31    33    1
    93    33    34    1
    94    33    44    1
    95    34    35    1
    96    34   106    1
    97    34   107    1
    98    35    36    1
    99    35   108    1
   100    35   109    1
   101    36    37    1
   102    36   110    1
   103    36   111    1
   104    37    38    1
   105    37   112    1
   106    37   113    1
   107    38    39    1
   108    38   114    1
   109    38   115    1
   110    39    40    1
   111    39   116    1
   112    39   117    1
   113    40    41    1
   114    40   118    1
   115    40   119    1
   116    41    42    1
   117    41   120    1
   118    41   121    1
   119    42    43    1
   120    42   122    1
   121    42   123    1
   122    43   124    1
   123    43   125    1
   124    43   126    1
   125    44    45    1
   126    44   127    1
   127    44   128    1
   128    45    46    1
   129    45   129    1
   130    45   130    1
   131    46    47    1
   132    46   131    1
   133    46   132    1
   134    47    48    1
   135    47   133    1
   136    47   134    1
   137    48    49    1
   138    48   135    1
   139    48   136    1
   140    49    50    1
   141    49   137    1
   142    49   138    1
   143    50    51    1
   144    50   139    1
   145    50   140    1
   146    51    52    1
   147    51   141    1
   148    51   142    1
   149    52    53    1
   150    52   143    1
   151    52   144    1
   152    53   145    1
   153    53   146    1
   154    53   147    1
   155   148   149    1
   156   148   200    1
   157   148   201    1
   158   148   202    1
   159   149   150    1
   160   149   203    1
   161   149   204    1
   162   150   151    1
   163   150   205    1
   164   150   206    1
   165   151   152    1
   166   151   207    1
   167   151   208    1
   168   152   153    1
   169   152   209    1
   170   152   210    1
   171   153   154    1
   172   153   211    1
   173   153   212    1
   174   154   155    1
   175   154   213    1
   176   154   214    1
   177   155   156    1
   178   155   215    1
   179   155   216    1
   180   156   157    1
   181   156   217    1
   182   156   218    1
   183   157   158    1
   184   157   219    1
   185   157   220    1
   186   158   159    1
   187   158   169    1
   188   159   160    1
   189   159   221    1
   190   159   222    1
   191   160   161    1
   192   160   223    1
   193   160   224    1
   194   161   162    1
   195   161   225    1
   196   161   226    1
   197   162   163    1
   198   162   227    1
   199   162   228    1
   200   163   164    1
   201   163   229    1
   202   163   230    1
   203   164   165    1
   204   164   231    1
   205   164   232    1
   206   165   166    1
   207   165   233    1
   208   165   234    1
   209   166   167    1
   210   166   235    1
   211   166   236    1
   212   167   168    1
   213   167   237    1
   214   167   238    1
   215   168   239    1
   216   168   240    1
   217   168   241    1
   218   169   170    2
   219   169   171    1
   220   171   172    1
   221   171   173    1
   222   171   242    1
   223   172   243    1
   224   172   244    1
   225   172   245    1
   226   173   174    1
   227   174   175    1
   228   174   177    1
   229   174   246    1
   230   175   176    1
   231   175   247    1
   232   175   248    1
   233   176   249    1
   234   176   250    1
   235   176   251    1
   236   177   178    2
   237   177   179    1
   238   179   180    1
   239   179   190    1
   240   180   181    1
   241   180   252    1
   242   180   253    1
   243   181   182    1
   244   181   254    1
   245   181   255    1
   246   182   183    1
   247   182   256    1
   248   182   257    1
   249   183   184    1
   250   183   258    1
   251   183   259    1
   252   184   185    1
   253   184   260    1
   254   184   261    1
   255   185   186    1
   256   185   262    1
   257   185   263    1
   258   186   187    1
   259   186   264    1
   260   186   265    1
   261   187   188    1
   262   187   266    1
   263   187   267    1
   264   188   189    1
   265   188   268    1
   266   188   269    1
   267   189   270    1
   268   189   271    1
   269   189   272    1
   270   190   191    1
   271   190   273    1
   272   190   274    1
   273   191   192    1
   274   191   275    1
   275   191   276    1
   276   192   193    1
   277   192   277    1
   278   192   278    1
   279   193   194    1
   280   193   279    1
   281   193   280    1
   282   194   195    1
   283   194   281    1
   284   194   282    1
   285   195   196    1
   286   195   283    1
   287   195   284    1
   288   196   197    1
   289   196   285    1
   290   196   286    1
   291   197   198    1
   292   197   287    1
   293   197   288    1
   294   198   199    1
   295   198   289    1
   296   198   290    1
   297   199   291    1
   298   199   292    1
   299   199   293    1
   300   294   295    1
   301   294   346    1
   302   294   347    1
   303   294   348    1
   304   295   296    1
   305   295   349    1
   306   295   350    1
   307   296   297    1
   308   296   351    1
   309   296   352    1
   310   297   298    1
   311   297   353    1
   312   297   354    1
   313   298   299    1
   314   298   355    1
   315   298   356    1
   316   299   300    1
   317   299   357    1
   318   299   358    1
   319   300   301    1
   320   300   359    1
   321   300   360    1
   322   301   302    1
   323   301   361    1
   324   301   362    1
   325   302   303    1
   326   302   363    1
   327   302   364    1
   328   303   304    1
   329   303   365    1
   330   303   366    1
   331   304   305    1
   332   304   315    1
   333   305   306    1
   334   305   367    1
   335   305   368    1
   336   306   307    1
   337   306   369    1
   338   306   370    1
   339   307   308    1
   340   307   371    1
   341   307   372    1
   342   308   309    1
   343   308   373    1
   344   308   374    1
   345   309   310    1
   346   309   375    1
   347   309   376    1
   348   310   311    1
   349   310   377    1
   350   310   378    1
   351   311   312    1
   352   311   379    1
   353   311   380    1
   354   312   313    1
   355   312   381    1
   356   312   382    1
   357   313   314    1
   358   313   383    1
   359   313   384    1
   360   314   385    1
   361   314   386    1
   362   314   387    1
   363   315   316    2
   364   315   317    1
   365   317   318    1
   366   317   319    1
   367   317   388    1
   368   318   389    1
   369   318   390    1
   370   318   391    1
   371   319   320    1
   372   320   321    1
   373   320   323    1
   374   320   392    1
   375   321   322    1
   376   321   393    1
   377   321   394    1
   378   322   395    1
   379   322   396    1
   380   322   397    1
   381   323   324    2
   382   323   325    1
   383   325   326    1
   384   325   336    1
   385   326   327    1
   386   326   398    1
   387   326   399    1
   388   327   328    1
   389   327   400    1
   390   327   401    1
   391   328   329    1
   392   328   402    1
   393   328   403    1
   394   329   330    1
   395   329   404    1
   396   329   405    1
   397   330   331    1
   398   330   406    1
   399   330   407    1
   400   331   332    1
   401   331   408    1
   402   331   409    1
   403   332   333    1
   404   332   410    1
   405   332   411    1
   406   333   334    1
   407   333   412    1
   408   333   413    1
   409   334   335    1
   410   334   414    1
   411   334   415    1
   412   335   416    1
   413   335   417    1
   414   335   418    1
   415   336   337    1
   416   336   419    1
   417   336   420    1
   418   337   338    1
   419   337   421    1
   420   337   422    1
   421   338   339    1
   422   338   423    1
   423   338   424    1
   424   339   340    1
   425   339   425    1
   426   339   426    1
   427   340   341    1
   428   340   427    1
   429   340   428    1
   430   341   342    1
   431   341   429    1
   432   341   430    1
   433   342   343    1
   434   342   431    1
   435   342   432    1
   436   343   344    1
   437   343   433    1
   438   343   434    1
   439   344   345    1
   440   344   435    1
   441   344   436    1
   442   345   437    1
   443   345   438    1
   444   345   439    1
@<TRIPOS>SUBSTRUCTURE
     1 RES1      439 GROUP             0 ****  ****    0  
