@<TRIPOS>MOLECULE
cn9_YICLED_0_nunpairedes_0_charge_3 Charge: 3 Unpaired_Electrons: 0 XTB_Unpaired_Electrons: 0 XTB_Charge: 3
   344   347     1     0     0
SMALL
NoCharges
****
Generated from Architector

@<TRIPOS>ATOM
     1 La1       0.3279    0.2863   -0.1644   La        1 RES1   0.0000
     2 C1        1.7921   -4.6124    5.8521   C.3       1 RES1   0.0000
     3 C2        1.1864   -3.5920    6.8081   C.3       1 RES1   0.0000
     4 C3       -0.0060   -2.8420    6.2161   C.3       1 RES1   0.0000
     5 C4       -1.1645   -3.7450    5.8040   C.3       1 RES1   0.0000
     6 C5       -2.4026   -2.9759    5.3375   C.3       1 RES1   0.0000
     7 C6       -2.2341   -2.2177    4.0182   C.3       1 RES1   0.0000
     8 C7       -3.5855   -1.7329    3.4887   C.3       1 RES1   0.0000
     9 C8       -3.4985   -0.7132    2.3544   C.3       1 RES1   0.0000
    10 N1       -3.0020    0.6054    2.7434   N.am      1 RES1   0.0000
    11 C9       -3.6534    1.1786    3.9011   C.3       1 RES1   0.0000
    12 C10      -2.0333    1.1566    2.0082   C.2       1 RES1   0.0000
    13 O1       -1.4324    0.4768    1.1502   O.2       1 RES1   0.0000
    14 C11      -1.7244    2.6322    2.1306   C.3       1 RES1   0.0000
    15 C12      -0.2309    2.8529    2.4065   C.3       1 RES1   0.0000
    16 C13       0.2161    4.3045    2.6306   C.3       1 RES1   0.0000
    17 C14       1.5619    4.3340    3.3639   C.3       1 RES1   0.0000
    18 C15       1.9189    5.7027    3.9737   C.3       1 RES1   0.0000
    19 C16       1.8164    5.7598    5.5058   C.3       1 RES1   0.0000
    20 C17       2.7171    4.7416    6.2037   C.3       1 RES1   0.0000
    21 C18      -2.0273    3.2349    0.7466   C.2       1 RES1   0.0000
    22 O2       -1.2792    2.9403   -0.1951   O.2       1 RES1   0.0000
    23 N2       -3.0862    4.0488    0.7271   N.am      1 RES1   0.0000
    24 C19      -4.0274    4.0810    1.8292   C.3       1 RES1   0.0000
    25 C20      -3.3242    5.0516   -0.3078   C.3       1 RES1   0.0000
    26 C21      -4.7668    5.0956   -0.8628   C.3       1 RES1   0.0000
    27 C22      -5.5110    6.4249   -0.6437   C.3       1 RES1   0.0000
    28 C23      -6.0770    6.6932    0.7583   C.3       1 RES1   0.0000
    29 C24      -7.3075    5.8179    1.0494   C.3       1 RES1   0.0000
    30 C25      -7.5204    5.4903    2.5280   C.3       1 RES1   0.0000
    31 C26      -8.8216    4.7048    2.7376   C.3       1 RES1   0.0000
    32 C27      -8.7381    3.7428    3.9197   C.3       1 RES1   0.0000
    33 H1        2.7645   -4.9391    6.2099   H         1 RES1   0.0000
    34 H2        1.9110   -4.1864    4.8572   H         1 RES1   0.0000
    35 H3        1.1628   -5.4927    5.7682   H         1 RES1   0.0000
    36 H4        1.9505   -2.8620    7.0896   H         1 RES1   0.0000
    37 H5        0.8775   -4.0965    7.7218   H         1 RES1   0.0000
    38 H6        0.3337   -2.2642    5.3528   H         1 RES1   0.0000
    39 H7       -0.3677   -2.1499    6.9790   H         1 RES1   0.0000
    40 H8       -1.4416   -4.3510    6.6676   H         1 RES1   0.0000
    41 H9       -0.8415   -4.4203    5.0106   H         1 RES1   0.0000
    42 H10      -2.7012   -2.2728    6.1159   H         1 RES1   0.0000
    43 H11      -3.2179   -3.6905    5.2225   H         1 RES1   0.0000
    44 H12      -1.7718   -2.8656    3.2774   H         1 RES1   0.0000
    45 H13      -1.5573   -1.3765    4.1498   H         1 RES1   0.0000
    46 H14      -4.1669   -1.3150    4.3084   H         1 RES1   0.0000
    47 H15      -4.1516   -2.5880    3.1165   H         1 RES1   0.0000
    48 H16      -4.5028   -0.5639    1.9393   H         1 RES1   0.0000
    49 H17      -2.8387   -1.0744    1.5649   H         1 RES1   0.0000
    50 H18      -4.7309    1.2524    3.7261   H         1 RES1   0.0000
    51 H19      -3.2553    2.1520    4.1630   H         1 RES1   0.0000
    52 H20      -3.4895    0.5194    4.7558   H         1 RES1   0.0000
    53 H21      -2.3007    3.1214    2.9041   H         1 RES1   0.0000
    54 H22       0.3129    2.4367    1.5529   H         1 RES1   0.0000
    55 H23       0.0247    2.2676    3.2849   H         1 RES1   0.0000
    56 H24      -0.5070    4.8547    3.2291   H         1 RES1   0.0000
    57 H25       0.3090    4.8011    1.6633   H         1 RES1   0.0000
    58 H26       2.3411    4.0141    2.6706   H         1 RES1   0.0000
    59 H27       1.5209    3.5897    4.1603   H         1 RES1   0.0000
    60 H28       1.2769    6.4778    3.5459   H         1 RES1   0.0000
    61 H29       2.9437    5.9629    3.7128   H         1 RES1   0.0000
    62 H30       0.7802    5.6287    5.8146   H         1 RES1   0.0000
    63 H31       2.1038    6.7643    5.8232   H         1 RES1   0.0000
    64 H32       2.6344    3.7662    5.7301   H         1 RES1   0.0000
    65 H33       2.4470    4.6280    7.2521   H         1 RES1   0.0000
    66 H34       3.7529    5.0546    6.1420   H         1 RES1   0.0000
    67 H35      -4.2558    3.0712    2.1656   H         1 RES1   0.0000
    68 H36      -4.9425    4.5371    1.4673   H         1 RES1   0.0000
    69 H37      -3.6636    4.6794    2.6680   H         1 RES1   0.0000
    70 H38      -2.6081    4.8399   -1.1023   H         1 RES1   0.0000
    71 H39      -3.0712    6.0334    0.1124   H         1 RES1   0.0000
    72 H40      -5.3605    4.2615   -0.4843   H         1 RES1   0.0000
    73 H41      -4.7137    4.9594   -1.9425   H         1 RES1   0.0000
    74 H42      -6.3596    6.4450   -1.3304   H         1 RES1   0.0000
    75 H43      -4.8436    7.2380   -0.9358   H         1 RES1   0.0000
    76 H44      -5.3062    6.5740    1.5241   H         1 RES1   0.0000
    77 H45      -6.3806    7.7410    0.8002   H         1 RES1   0.0000
    78 H46      -7.2282    4.8773    0.4977   H         1 RES1   0.0000
    79 H47      -8.1950    6.3280    0.6709   H         1 RES1   0.0000
    80 H48      -7.5483    6.4094    3.1137   H         1 RES1   0.0000
    81 H49      -6.6832    4.8894    2.8974   H         1 RES1   0.0000
    82 H50      -9.0429    4.1271    1.8366   H         1 RES1   0.0000
    83 H51      -9.6496    5.3994    2.8852   H         1 RES1   0.0000
    84 H52      -7.9660    2.9903    3.7440   H         1 RES1   0.0000
    85 H53      -9.6863    3.2247    4.0545   H         1 RES1   0.0000
    86 H54      -8.4956    4.2787    4.8363   H         1 RES1   0.0000
    87 C28      -4.0544    1.5992   -1.5284   C.3       1 RES1   0.0000
    88 C29      -3.4700    0.9950   -2.7967   C.3       1 RES1   0.0000
    89 C30      -3.6490    1.8877   -4.0269   C.3       1 RES1   0.0000
    90 C31      -2.9930    3.2709   -3.9366   C.3       1 RES1   0.0000
    91 C32      -1.4889    3.3103   -3.6350   C.3       1 RES1   0.0000
    92 C33      -0.6059    3.3394   -4.8849   C.3       1 RES1   0.0000
    93 C34      -0.8314    2.1883   -5.8635   C.3       1 RES1   0.0000
    94 C35      -0.5283    0.8080   -5.2805   C.3       1 RES1   0.0000
    95 N3        0.8958    0.6221   -5.0472   N.am      1 RES1   0.0000
    96 C36       1.7080    0.7493   -6.2424   C.3       1 RES1   0.0000
    97 C37       1.3636    0.4381   -3.8222   C.2       1 RES1   0.0000
    98 O3        0.6120    0.4014   -2.8211   O.2       1 RES1   0.0000
    99 C38       2.8722    0.2444   -3.6717   C.3       1 RES1   0.0000
   100 C39       3.2245   -1.2550   -3.4966   C.3       1 RES1   0.0000
   101 C40       3.2314   -2.0192   -4.8270   C.3       1 RES1   0.0000
   102 C41       3.6575   -3.4851   -4.6883   C.3       1 RES1   0.0000
   103 C42       2.6371   -4.3125   -3.9154   C.3       1 RES1   0.0000
   104 C43       3.0810   -5.7508   -3.6645   C.3       1 RES1   0.0000
   105 C44       1.9789   -6.5246   -2.9474   C.3       1 RES1   0.0000
   106 C45       3.2943    1.0276   -2.4456   C.2       1 RES1   0.0000
   107 O4        2.8486    0.7104   -1.3236   O.2       1 RES1   0.0000
   108 N4        4.1492    2.0339   -2.6131   N.am      1 RES1   0.0000
   109 C46       4.5493    2.5445   -3.9133   C.3       1 RES1   0.0000
   110 C47       4.6113    2.8098   -1.4690   C.3       1 RES1   0.0000
   111 C48       3.6862    3.9997   -1.1851   C.3       1 RES1   0.0000
   112 C49       4.0069    4.6773    0.1473   C.3       1 RES1   0.0000
   113 C50       5.3789    5.3499    0.1877   C.3       1 RES1   0.0000
   114 C51       5.5941    6.1309    1.4874   C.3       1 RES1   0.0000
   115 C52       5.7733    5.1756    2.6650   C.3       1 RES1   0.0000
   116 C53       6.0756    5.8151    4.0183   C.3       1 RES1   0.0000
   117 C54       6.2455    4.7218    5.0705   C.3       1 RES1   0.0000
   118 H55      -3.9359    0.9155   -0.6891   H         1 RES1   0.0000
   119 H56      -5.1076    1.8252   -1.6700   H         1 RES1   0.0000
   120 H57      -3.5241    2.5093   -1.2839   H         1 RES1   0.0000
   121 H58      -3.9645    0.0454   -3.0089   H         1 RES1   0.0000
   122 H59      -2.4110    0.7812   -2.6105   H         1 RES1   0.0000
   123 H60      -4.7201    2.0437   -4.1891   H         1 RES1   0.0000
   124 H61      -3.2813    1.3463   -4.8996   H         1 RES1   0.0000
   125 H62      -3.5166    3.8330   -3.1655   H         1 RES1   0.0000
   126 H63      -3.1801    3.7919   -4.8774   H         1 RES1   0.0000
   127 H64      -1.1947    2.4783   -2.9906   H         1 RES1   0.0000
   128 H65      -1.2736    4.2205   -3.0692   H         1 RES1   0.0000
   129 H66       0.4414    3.3472   -4.5658   H         1 RES1   0.0000
   130 H67      -0.7924    4.2683   -5.4282   H         1 RES1   0.0000
   131 H68      -0.2076    2.3522   -6.7439   H         1 RES1   0.0000
   132 H69      -1.8646    2.2001   -6.2050   H         1 RES1   0.0000
   133 H70      -0.8534    0.0425   -5.9900   H         1 RES1   0.0000
   134 H71      -1.0410    0.6546   -4.3334   H         1 RES1   0.0000
   135 H72       1.0724    0.5578   -7.1026   H         1 RES1   0.0000
   136 H73       2.5165    0.0277   -6.2746   H         1 RES1   0.0000
   137 H74       2.1150    1.7589   -6.3409   H         1 RES1   0.0000
   138 H75       3.4108    0.6234   -4.5300   H         1 RES1   0.0000
   139 H76       4.2248   -1.3186   -3.0639   H         1 RES1   0.0000
   140 H77       2.5264   -1.6955   -2.7804   H         1 RES1   0.0000
   141 H78       3.9377   -1.5343   -5.5071   H         1 RES1   0.0000
   142 H79       2.2381   -1.9995   -5.2820   H         1 RES1   0.0000
   143 H80       4.6344   -3.5540   -4.2071   H         1 RES1   0.0000
   144 H81       3.7616   -3.9128   -5.6873   H         1 RES1   0.0000
   145 H82       1.7015   -4.3220   -4.4813   H         1 RES1   0.0000
   146 H83       2.4449   -3.8498   -2.9434   H         1 RES1   0.0000
   147 H84       3.9871   -5.7550   -3.0541   H         1 RES1   0.0000
   148 H85       3.3229   -6.2340   -4.6131   H         1 RES1   0.0000
   149 H86       1.6797   -6.0137   -2.0295   H         1 RES1   0.0000
   150 H87       2.3167   -7.5239   -2.6901   H         1 RES1   0.0000
   151 H88       1.1031   -6.6139   -3.5864   H         1 RES1   0.0000
   152 H89       3.6742    2.8442   -4.4944   H         1 RES1   0.0000
   153 H90       5.1419    1.8206   -4.4743   H         1 RES1   0.0000
   154 H91       5.1741    3.4246   -3.7667   H         1 RES1   0.0000
   155 H92       5.6224    3.1554   -1.6874   H         1 RES1   0.0000
   156 H93       4.6661    2.1517   -0.5996   H         1 RES1   0.0000
   157 H94       2.6505    3.6486   -1.1590   H         1 RES1   0.0000
   158 H95       3.7604    4.7280   -1.9942   H         1 RES1   0.0000
   159 H96       3.9481    3.9274    0.9377   H         1 RES1   0.0000
   160 H97       3.2427    5.4326    0.3458   H         1 RES1   0.0000
   161 H98       5.4719    6.0213   -0.6670   H         1 RES1   0.0000
   162 H99       6.1673    4.5987    0.1088   H         1 RES1   0.0000
   163 H100      4.7421    6.7874    1.6665   H         1 RES1   0.0000
   164 H101      6.4767    6.7612    1.3824   H         1 RES1   0.0000
   165 H102      6.5990    4.5002    2.4363   H         1 RES1   0.0000
   166 H103      4.8601    4.5822    2.7672   H         1 RES1   0.0000
   167 H104      5.2671    6.4932    4.3062   H         1 RES1   0.0000
   168 H105      6.9927    6.4049    3.9632   H         1 RES1   0.0000
   169 H106      5.3981    4.0353    5.0398   H         1 RES1   0.0000
   170 H107      6.3180    5.1545    6.0641   H         1 RES1   0.0000
   171 H108      7.1545    4.1490    4.8871   H         1 RES1   0.0000
   172 C55       2.0057  -10.2491   -1.0220   C.3       1 RES1   0.0000
   173 C56       0.4845  -10.2304   -1.0659   C.3       1 RES1   0.0000
   174 C57      -0.1078   -9.1898   -0.1159   C.3       1 RES1   0.0000
   175 C58      -1.5905   -9.4556    0.1255   C.3       1 RES1   0.0000
   176 C59      -2.2646   -8.5320    1.1450   C.3       1 RES1   0.0000
   177 C60      -2.7050   -7.1527    0.6151   C.3       1 RES1   0.0000
   178 C61      -1.9272   -5.9618    1.1926   C.3       1 RES1   0.0000
   179 C62      -0.6570   -5.6040    0.4028   C.3       1 RES1   0.0000
   180 N5       -0.2426   -4.2210    0.6138   N.am      1 RES1   0.0000
   181 C63       0.3442   -4.0010    1.9244   C.3       1 RES1   0.0000
   182 C64      -0.3448   -3.1911   -0.2316   C.2       1 RES1   0.0000
   183 O5        0.2383   -2.1117    0.0185   O.2       1 RES1   0.0000
   184 C65      -1.2349   -3.2776   -1.4591   C.3       1 RES1   0.0000
   185 C66      -0.5856   -2.6327   -2.6962   C.3       1 RES1   0.0000
   186 C67      -1.4998   -2.6762   -3.9287   C.3       1 RES1   0.0000
   187 C68      -1.6657   -4.0729   -4.5444   C.3       1 RES1   0.0000
   188 C69      -2.1892   -4.0336   -5.9903   C.3       1 RES1   0.0000
   189 C70      -1.0910   -4.0521   -7.0586   C.3       1 RES1   0.0000
   190 C71      -0.2321   -2.7919   -7.1184   C.3       1 RES1   0.0000
   191 C72      -2.4349   -2.3656   -1.1532   C.2       1 RES1   0.0000
   192 O6       -2.2134   -1.1836   -0.8661   O.2       1 RES1   0.0000
   193 N6       -3.6525   -2.8960   -1.2744   N.am      1 RES1   0.0000
   194 C73      -3.9271   -4.3082   -1.4549   C.3       1 RES1   0.0000
   195 C74      -4.8618   -2.0846   -1.2189   C.3       1 RES1   0.0000
   196 C75      -5.6925   -2.1861   -2.5099   C.3       1 RES1   0.0000
   197 C76      -7.1490   -1.7557   -2.3110   C.3       1 RES1   0.0000
   198 C77      -7.3066   -0.2423   -2.2215   C.3       1 RES1   0.0000
   199 C78      -8.6392    0.1931   -1.6166   C.3       1 RES1   0.0000
   200 C79      -8.8214   -0.1565   -0.1355   C.3       1 RES1   0.0000
   201 C80      -7.6451    0.2311    0.7656   C.3       1 RES1   0.0000
   202 C81      -7.3227    1.7202    0.7103   C.3       1 RES1   0.0000
   203 H109      2.3962  -10.9535   -1.7499   H         1 RES1   0.0000
   204 H110      2.3549  -10.5500   -0.0377   H         1 RES1   0.0000
   205 H111      2.4170   -9.2663   -1.2419   H         1 RES1   0.0000
   206 H112      0.1141  -11.2169   -0.7878   H         1 RES1   0.0000
   207 H113      0.1486  -10.0323   -2.0855   H         1 RES1   0.0000
   208 H114      0.0460   -8.1935   -0.5349   H         1 RES1   0.0000
   209 H115      0.4173   -9.2399    0.8403   H         1 RES1   0.0000
   210 H116     -1.6773  -10.4742    0.5071   H         1 RES1   0.0000
   211 H117     -2.1301   -9.4209   -0.8226   H         1 RES1   0.0000
   212 H118     -1.5988   -8.4137    2.0029   H         1 RES1   0.0000
   213 H119     -3.1528   -9.0517    1.5070   H         1 RES1   0.0000
   214 H120     -3.7527   -7.0048    0.8814   H         1 RES1   0.0000
   215 H121     -2.6472   -7.1439   -0.4756   H         1 RES1   0.0000
   216 H122     -1.6774   -6.1975    2.2272   H         1 RES1   0.0000
   217 H123     -2.5685   -5.0763    1.2135   H         1 RES1   0.0000
   218 H124     -0.8004   -5.7892   -0.6616   H         1 RES1   0.0000
   219 H125      0.1744   -6.2394    0.7223   H         1 RES1   0.0000
   220 H126     -0.3456   -4.3754    2.6808   H         1 RES1   0.0000
   221 H127      0.5235   -2.9360    2.0677   H         1 RES1   0.0000
   222 H128      1.2785   -4.5519    2.0266   H         1 RES1   0.0000
   223 H129     -1.5236   -4.2901   -1.7080   H         1 RES1   0.0000
   224 H130      0.3546   -3.1418   -2.9123   H         1 RES1   0.0000
   225 H131     -0.3684   -1.5849   -2.4417   H         1 RES1   0.0000
   226 H132     -1.0731   -2.0121   -4.6787   H         1 RES1   0.0000
   227 H133     -2.4864   -2.2749   -3.6818   H         1 RES1   0.0000
   228 H134     -2.3679   -4.6515   -3.9400   H         1 RES1   0.0000
   229 H135     -0.7111   -4.6051   -4.5291   H         1 RES1   0.0000
   230 H136     -2.8274   -3.1584   -6.1311   H         1 RES1   0.0000
   231 H137     -2.8121   -4.9142   -6.1560   H         1 RES1   0.0000
   232 H138     -1.5658   -4.1794   -8.0339   H         1 RES1   0.0000
   233 H139     -0.4489   -4.9208   -6.8916   H         1 RES1   0.0000
   234 H140     -0.8542   -1.9300   -7.3603   H         1 RES1   0.0000
   235 H141      0.5189   -2.8992   -7.8987   H         1 RES1   0.0000
   236 H142      0.2828   -2.6158   -6.1740   H         1 RES1   0.0000
   237 H143     -3.1909   -4.9268   -0.9551   H         1 RES1   0.0000
   238 H144     -3.9727   -4.5886   -2.5113   H         1 RES1   0.0000
   239 H145     -4.8975   -4.5202   -1.0028   H         1 RES1   0.0000
   240 H146     -4.5600   -1.0583   -1.0328   H         1 RES1   0.0000
   241 H147     -5.4673   -2.4337   -0.3751   H         1 RES1   0.0000
   242 H148     -5.6969   -3.2177   -2.8554   H         1 RES1   0.0000
   243 H149     -5.2311   -1.5834   -3.2957   H         1 RES1   0.0000
   244 H150     -7.5330   -2.2263   -1.4063   H         1 RES1   0.0000
   245 H151     -7.7441   -2.1272   -3.1471   H         1 RES1   0.0000
   246 H152     -7.2278    0.1751   -3.2259   H         1 RES1   0.0000
   247 H153     -6.4902    0.1671   -1.6316   H         1 RES1   0.0000
   248 H154     -9.4550   -0.2650   -2.1776   H         1 RES1   0.0000
   249 H155     -8.7313    1.2735   -1.7306   H         1 RES1   0.0000
   250 H156     -9.0049   -1.2275   -0.0263   H         1 RES1   0.0000
   251 H157     -9.7197    0.3561    0.2165   H         1 RES1   0.0000
   252 H158     -6.7604   -0.3514    0.4877   H         1 RES1   0.0000
   253 H159     -7.9070   -0.0330    1.7934   H         1 RES1   0.0000
   254 H160     -6.5192    1.9682    1.4035   H         1 RES1   0.0000
   255 H161     -8.2048    2.2979    0.9744   H         1 RES1   0.0000
   256 H162     -7.0070    2.0147   -0.2871   H         1 RES1   0.0000
   257 C82      -3.4780    8.6373    4.1403   C.3       1 RES1   0.0000
   258 C83      -2.5792    7.4105    4.2658   C.3       1 RES1   0.0000
   259 C84      -2.9601    6.4551    5.4114   C.3       1 RES1   0.0000
   260 C85      -2.0620    5.2228    5.2769   C.3       1 RES1   0.0000
   261 C86      -1.9714    4.1323    6.3490   C.3       1 RES1   0.0000
   262 C87      -0.8873    3.1567    5.8521   C.3       1 RES1   0.0000
   263 C88      -0.8386    1.7755    6.5000   C.3       1 RES1   0.0000
   264 C89      -0.3286    0.6303    5.5977   C.3       1 RES1   0.0000
   265 N7        1.0880    0.5233    5.2086   N.am      1 RES1   0.0000
   266 C90       2.0553    0.6103    6.2807   C.3       1 RES1   0.0000
   267 C91       1.4172    0.1372    3.9585   C.2       1 RES1   0.0000
   268 O7        0.5892    0.0777    3.0440   O.2       1 RES1   0.0000
   269 C92       2.8801   -0.3250    3.7285   C.3       1 RES1   0.0000
   270 C93       3.9401    0.8264    3.7433   C.3       1 RES1   0.0000
   271 C94       4.9054    0.9138    2.5430   C.3       1 RES1   0.0000
   272 C95       6.2389    0.1746    2.7432   C.3       1 RES1   0.0000
   273 C96       7.3698    1.0569    3.2712   C.3       1 RES1   0.0000
   274 C97       7.9030    2.0209    2.2070   C.3       1 RES1   0.0000
   275 C98       8.6964    1.3276    1.0995   C.3       1 RES1   0.0000
   276 C99       2.9241   -1.1518    2.4373   C.2       1 RES1   0.0000
   277 O8        2.3697   -0.7482    1.3991   O.2       1 RES1   0.0000
   278 N8        3.5755   -2.3197    2.4861   N.am      1 RES1   0.0000
   279 C100      4.2843   -2.8241    3.6469   C.3       1 RES1   0.0000
   280 C101      3.6372   -3.1770    1.3087   C.3       1 RES1   0.0000
   281 C102      5.0461   -3.6119    0.8633   C.3       1 RES1   0.0000
   282 C103      5.4193   -3.1257   -0.5362   C.3       1 RES1   0.0000
   283 C104      5.7775   -1.6426   -0.5306   C.3       1 RES1   0.0000
   284 C105      6.6235   -1.2116   -1.7307   C.3       1 RES1   0.0000
   285 C106      8.0978   -1.6284   -1.6176   C.3       1 RES1   0.0000
   286 C107      9.0292   -0.7181   -2.4253   C.3       1 RES1   0.0000
   287 C108      8.7913   -0.7943   -3.9292   C.3       1 RES1   0.0000
   288 H163     -3.1246    9.2774    3.3325   H         1 RES1   0.0000
   289 H164     -3.4633    9.2189    5.0567   H         1 RES1   0.0000
   290 H165     -4.5114    8.3648    3.9275   H         1 RES1   0.0000
   291 H166     -1.5465    7.7408    4.4230   H         1 RES1   0.0000
   292 H167     -2.6105    6.8633    3.3151   H         1 RES1   0.0000
   293 H168     -4.0195    6.1937    5.3443   H         1 RES1   0.0000
   294 H169     -2.8010    6.9554    6.3689   H         1 RES1   0.0000
   295 H170     -1.0502    5.6117    5.1478   H         1 RES1   0.0000
   296 H171     -2.3426    4.7110    4.3502   H         1 RES1   0.0000
   297 H172     -2.9284    3.6236    6.4864   H         1 RES1   0.0000
   298 H173     -1.6981    4.5553    7.3125   H         1 RES1   0.0000
   299 H174      0.0773    3.6423    5.9521   H         1 RES1   0.0000
   300 H175     -1.0605    2.9950    4.7890   H         1 RES1   0.0000
   301 H176     -1.8616    1.4797    6.7442   H         1 RES1   0.0000
   302 H177     -0.2854    1.8073    7.4372   H         1 RES1   0.0000
   303 H178     -0.8911    0.6088    4.6633   H         1 RES1   0.0000
   304 H179     -0.5561   -0.2909    6.1413   H         1 RES1   0.0000
   305 H180      1.5423    0.6830    7.2310   H         1 RES1   0.0000
   306 H181      2.6753    1.4950    6.1661   H         1 RES1   0.0000
   307 H182      2.7035   -0.2619    6.3353   H         1 RES1   0.0000
   308 H183      3.1101   -1.0004    4.5525   H         1 RES1   0.0000
   309 H184      4.5572    0.7213    4.6367   H         1 RES1   0.0000
   310 H185      3.4180    1.7813    3.8368   H         1 RES1   0.0000
   311 H186      5.1311    1.9709    2.3906   H         1 RES1   0.0000
   312 H187      4.4308    0.5445    1.6331   H         1 RES1   0.0000
   313 H188      6.5771   -0.2306    1.7929   H         1 RES1   0.0000
   314 H189      6.1009   -0.6617    3.4254   H         1 RES1   0.0000
   315 H190      8.1915    0.4148    3.5990   H         1 RES1   0.0000
   316 H191      7.0202    1.6139    4.1433   H         1 RES1   0.0000
   317 H192      8.5470    2.7579    2.6923   H         1 RES1   0.0000
   318 H193      7.0704    2.5622    1.7478   H         1 RES1   0.0000
   319 H194      9.3965    0.6070    1.5176   H         1 RES1   0.0000
   320 H195      9.2587    2.0708    0.5404   H         1 RES1   0.0000
   321 H196      8.0494    0.8057    0.3971   H         1 RES1   0.0000
   322 H197      3.6764   -2.8001    4.5509   H         1 RES1   0.0000
   323 H198      5.2030   -2.2603    3.8231   H         1 RES1   0.0000
   324 H199      4.5541   -3.8601    3.4637   H         1 RES1   0.0000
   325 H200      3.1238   -2.6415    0.5100   H         1 RES1   0.0000
   326 H201      3.0754   -4.0831    1.5453   H         1 RES1   0.0000
   327 H202      5.0929   -4.7013    0.8805   H         1 RES1   0.0000
   328 H203      5.8094   -3.2539    1.5536   H         1 RES1   0.0000
   329 H204      4.5977   -3.3142   -1.2300   H         1 RES1   0.0000
   330 H205      6.2811   -3.6978   -0.8784   H         1 RES1   0.0000
   331 H206      6.3580   -1.4443    0.3710   H         1 RES1   0.0000
   332 H207      4.8592   -1.0494   -0.4799   H         1 RES1   0.0000
   333 H208      6.5795   -0.1207   -1.8134   H         1 RES1   0.0000
   334 H209      6.2028   -1.6383   -2.6439   H         1 RES1   0.0000
   335 H210      8.2213   -2.6572   -1.9616   H         1 RES1   0.0000
   336 H211      8.4080   -1.5941   -0.5688   H         1 RES1   0.0000
   337 H212     10.0601   -1.0101   -2.2194   H         1 RES1   0.0000
   338 H213      8.9058    0.3160   -2.0882   H         1 RES1   0.0000
   339 H214      8.9723   -1.8028   -4.2945   H         1 RES1   0.0000
   340 H215      9.4676   -0.1194   -4.4473   H         1 RES1   0.0000
   341 H216      7.7696   -0.5122   -4.1756   H         1 RES1   0.0000
   342 O9        2.1253    1.8633    0.8563   O.3       1 RES1   0.0000
   343 H217      2.3937    1.3204    1.6232   H         1 RES1   0.0000
   344 H218      2.8010    1.6836    0.1634   H         1 RES1   0.0000
@<TRIPOS>BOND
     1     1    13    1
     2     1    22    1
     3     1    98    1
     4     1   107    1
     5     1   183    1
     6     1   192    1
     7     1   268    1
     8     1   277    1
     9     1   342    1
    10     2     3    1
    11     2    33    1
    12     2    34    1
    13     2    35    1
    14     3     4    1
    15     3    36    1
    16     3    37    1
    17     4     5    1
    18     4    38    1
    19     4    39    1
    20     5     6    1
    21     5    40    1
    22     5    41    1
    23     6     7    1
    24     6    42    1
    25     6    43    1
    26     7     8    1
    27     7    44    1
    28     7    45    1
    29     8     9    1
    30     8    46    1
    31     8    47    1
    32     9    10    1
    33     9    48    1
    34     9    49    1
    35    10    11    1
    36    10    12    1
    37    11    50    1
    38    11    51    1
    39    11    52    1
    40    12    13    2
    41    12    14    1
    42    14    15    1
    43    14    21    1
    44    14    53    1
    45    15    16    1
    46    15    54    1
    47    15    55    1
    48    16    17    1
    49    16    56    1
    50    16    57    1
    51    17    18    1
    52    17    58    1
    53    17    59    1
    54    18    19    1
    55    18    60    1
    56    18    61    1
    57    19    20    1
    58    19    62    1
    59    19    63    1
    60    20    64    1
    61    20    65    1
    62    20    66    1
    63    21    22    2
    64    21    23    1
    65    23    24    1
    66    23    25    1
    67    24    67    1
    68    24    68    1
    69    24    69    1
    70    25    26    1
    71    25    70    1
    72    25    71    1
    73    26    27    1
    74    26    72    1
    75    26    73    1
    76    27    28    1
    77    27    74    1
    78    27    75    1
    79    28    29    1
    80    28    76    1
    81    28    77    1
    82    29    30    1
    83    29    78    1
    84    29    79    1
    85    30    31    1
    86    30    80    1
    87    30    81    1
    88    31    32    1
    89    31    82    1
    90    31    83    1
    91    32    84    1
    92    32    85    1
    93    32    86    1
    94    87    88    1
    95    87   118    1
    96    87   119    1
    97    87   120    1
    98    88    89    1
    99    88   121    1
   100    88   122    1
   101    89    90    1
   102    89   123    1
   103    89   124    1
   104    90    91    1
   105    90   125    1
   106    90   126    1
   107    91    92    1
   108    91   127    1
   109    91   128    1
   110    92    93    1
   111    92   129    1
   112    92   130    1
   113    93    94    1
   114    93   131    1
   115    93   132    1
   116    94    95    1
   117    94   133    1
   118    94   134    1
   119    95    96    1
   120    95    97    1
   121    96   135    1
   122    96   136    1
   123    96   137    1
   124    97    98    2
   125    97    99    1
   126    99   100    1
   127    99   106    1
   128    99   138    1
   129   100   101    1
   130   100   139    1
   131   100   140    1
   132   101   102    1
   133   101   141    1
   134   101   142    1
   135   102   103    1
   136   102   143    1
   137   102   144    1
   138   103   104    1
   139   103   145    1
   140   103   146    1
   141   104   105    1
   142   104   147    1
   143   104   148    1
   144   105   149    1
   145   105   150    1
   146   105   151    1
   147   106   107    2
   148   106   108    1
   149   108   109    1
   150   108   110    1
   151   109   152    1
   152   109   153    1
   153   109   154    1
   154   110   111    1
   155   110   155    1
   156   110   156    1
   157   111   112    1
   158   111   157    1
   159   111   158    1
   160   112   113    1
   161   112   159    1
   162   112   160    1
   163   113   114    1
   164   113   161    1
   165   113   162    1
   166   114   115    1
   167   114   163    1
   168   114   164    1
   169   115   116    1
   170   115   165    1
   171   115   166    1
   172   116   117    1
   173   116   167    1
   174   116   168    1
   175   117   169    1
   176   117   170    1
   177   117   171    1
   178   172   173    1
   179   172   203    1
   180   172   204    1
   181   172   205    1
   182   173   174    1
   183   173   206    1
   184   173   207    1
   185   174   175    1
   186   174   208    1
   187   174   209    1
   188   175   176    1
   189   175   210    1
   190   175   211    1
   191   176   177    1
   192   176   212    1
   193   176   213    1
   194   177   178    1
   195   177   214    1
   196   177   215    1
   197   178   179    1
   198   178   216    1
   199   178   217    1
   200   179   180    1
   201   179   218    1
   202   179   219    1
   203   180   181    1
   204   180   182    1
   205   181   220    1
   206   181   221    1
   207   181   222    1
   208   182   183    2
   209   182   184    1
   210   184   185    1
   211   184   191    1
   212   184   223    1
   213   185   186    1
   214   185   224    1
   215   185   225    1
   216   186   187    1
   217   186   226    1
   218   186   227    1
   219   187   188    1
   220   187   228    1
   221   187   229    1
   222   188   189    1
   223   188   230    1
   224   188   231    1
   225   189   190    1
   226   189   232    1
   227   189   233    1
   228   190   234    1
   229   190   235    1
   230   190   236    1
   231   191   192    2
   232   191   193    1
   233   193   194    1
   234   193   195    1
   235   194   237    1
   236   194   238    1
   237   194   239    1
   238   195   196    1
   239   195   240    1
   240   195   241    1
   241   196   197    1
   242   196   242    1
   243   196   243    1
   244   197   198    1
   245   197   244    1
   246   197   245    1
   247   198   199    1
   248   198   246    1
   249   198   247    1
   250   199   200    1
   251   199   248    1
   252   199   249    1
   253   200   201    1
   254   200   250    1
   255   200   251    1
   256   201   202    1
   257   201   252    1
   258   201   253    1
   259   202   254    1
   260   202   255    1
   261   202   256    1
   262   257   258    1
   263   257   288    1
   264   257   289    1
   265   257   290    1
   266   258   259    1
   267   258   291    1
   268   258   292    1
   269   259   260    1
   270   259   293    1
   271   259   294    1
   272   260   261    1
   273   260   295    1
   274   260   296    1
   275   261   262    1
   276   261   297    1
   277   261   298    1
   278   262   263    1
   279   262   299    1
   280   262   300    1
   281   263   264    1
   282   263   301    1
   283   263   302    1
   284   264   265    1
   285   264   303    1
   286   264   304    1
   287   265   266    1
   288   265   267    1
   289   266   305    1
   290   266   306    1
   291   266   307    1
   292   267   268    2
   293   267   269    1
   294   269   270    1
   295   269   276    1
   296   269   308    1
   297   270   271    1
   298   270   309    1
   299   270   310    1
   300   271   272    1
   301   271   311    1
   302   271   312    1
   303   272   273    1
   304   272   313    1
   305   272   314    1
   306   273   274    1
   307   273   315    1
   308   273   316    1
   309   274   275    1
   310   274   317    1
   311   274   318    1
   312   275   319    1
   313   275   320    1
   314   275   321    1
   315   276   277    2
   316   276   278    1
   317   278   279    1
   318   278   280    1
   319   279   322    1
   320   279   323    1
   321   279   324    1
   322   280   281    1
   323   280   325    1
   324   280   326    1
   325   281   282    1
   326   281   327    1
   327   281   328    1
   328   282   283    1
   329   282   329    1
   330   282   330    1
   331   283   284    1
   332   283   331    1
   333   283   332    1
   334   284   285    1
   335   284   333    1
   336   284   334    1
   337   285   286    1
   338   285   335    1
   339   285   336    1
   340   286   287    1
   341   286   337    1
   342   286   338    1
   343   287   339    1
   344   287   340    1
   345   287   341    1
   346   342   343    1
   347   342   344    1
@<TRIPOS>SUBSTRUCTURE
     1 RES1      344 GROUP             0 ****  ****    0  
