@<TRIPOS>MOLECULE
tri_tri_mer_capped_0_nunpairedes_0_charge_3 Charge: 3 Unpaired_Electrons: 0 XTB_Unpaired_Electrons: 0 XTB_Charge: 3
   466   471     1     0     0
SMALL
NoCharges
****
Generated from Architector

@<TRIPOS>ATOM
     1 La1      -0.0737   -0.3130   -0.2192   La        1 RES1   0.0000
     2 C1       -0.8066    7.8187    3.3149   C.3       1 RES1   0.0000
     3 C2       -1.6462    7.6409    2.0556   C.3       1 RES1   0.0000
     4 C3       -3.0741    7.1771    2.3597   C.3       1 RES1   0.0000
     5 C4       -3.7854    6.6044    1.1298   C.3       1 RES1   0.0000
     6 C5       -4.0711    7.6751    0.0770   C.3       1 RES1   0.0000
     7 C6       -4.5831    7.1330   -1.2586   C.3       1 RES1   0.0000
     8 C7       -3.5093    6.3723   -2.0459   C.3       1 RES1   0.0000
     9 C8       -3.8938    6.1291   -3.5110   C.3       1 RES1   0.0000
    10 C9       -4.5308    4.7694   -3.8068   C.3       1 RES1   0.0000
    11 C10      -3.5640    3.5735   -3.7716   C.3       1 RES1   0.0000
    12 N1       -3.3808    2.9102   -2.4792   N.am      1 RES1   0.0000
    13 C11      -4.6282    2.5759   -1.7918   C.3       1 RES1   0.0000
    14 C12      -5.1829    3.4759   -0.6991   C.3       1 RES1   0.0000
    15 C13      -6.5132    2.8925   -0.2094   C.3       1 RES1   0.0000
    16 C14      -7.7036    3.0693   -1.1687   C.3       1 RES1   0.0000
    17 C15      -7.9657    1.9664   -2.2047   C.3       1 RES1   0.0000
    18 C16      -8.3578    0.6160   -1.6080   C.3       1 RES1   0.0000
    19 C17      -8.7062   -0.3958   -2.7000   C.3       1 RES1   0.0000
    20 C18      -8.9023   -1.8128   -2.1580   C.3       1 RES1   0.0000
    21 C19      -9.3758   -2.7782   -3.2442   C.3       1 RES1   0.0000
    22 C20      -9.4443   -4.2198   -2.7597   C.3       1 RES1   0.0000
    23 C21      -2.3017    2.1482   -2.2194   C.2       1 RES1   0.0000
    24 O1       -2.0585    1.6708   -1.0977   O.2       1 RES1   0.0000
    25 C22      -1.4295    1.6975   -3.4067   C.3       1 RES1   0.0000
    26 C23      -0.4424    2.7523   -3.9485   C.3       1 RES1   0.0000
    27 C24      -0.0119    3.7945   -2.9170   C.3       1 RES1   0.0000
    28 C25       1.0917    3.2659   -2.0147   C.3       1 RES1   0.0000
    29 O2       -0.8001    0.4935   -2.9463   O.3       1 RES1   0.0000
    30 C26      -0.6686   -0.5722   -3.8984   C.3       1 RES1   0.0000
    31 C27       0.7773   -0.5816   -4.4234   C.3       1 RES1   0.0000
    32 C28       1.5180   -1.9163   -4.4741   C.3       1 RES1   0.0000
    33 C29       1.8378   -2.5408   -3.1209   C.3       1 RES1   0.0000
    34 C30      -0.9987   -1.8659   -3.1503   C.2       1 RES1   0.0000
    35 O3       -0.9048   -1.8458   -1.9052   O.2       1 RES1   0.0000
    36 N2       -1.3447   -2.9800   -3.8005   N.am      1 RES1   0.0000
    37 C31      -1.5781   -4.1796   -2.9965   C.3       1 RES1   0.0000
    38 C32      -3.0212   -4.4791   -2.5719   C.3       1 RES1   0.0000
    39 C33      -4.0906   -4.6007   -3.6652   C.3       1 RES1   0.0000
    40 C34      -4.8453   -3.2888   -3.8967   C.3       1 RES1   0.0000
    41 C35      -5.8819   -3.3661   -5.0207   C.3       1 RES1   0.0000
    42 C36      -5.3287   -3.2677   -6.4446   C.3       1 RES1   0.0000
    43 C37      -4.6231   -1.9502   -6.7880   C.3       1 RES1   0.0000
    44 C38      -5.3997   -0.6718   -6.4702   C.3       1 RES1   0.0000
    45 C39      -6.7089   -0.5079   -7.2417   C.3       1 RES1   0.0000
    46 C40      -6.5034   -0.4697   -8.7531   C.3       1 RES1   0.0000
    47 C41      -1.5329   -3.1312   -5.2454   C.3       1 RES1   0.0000
    48 C42      -0.7731   -4.2848   -5.9199   C.3       1 RES1   0.0000
    49 C43      -1.1417   -4.4431   -7.4033   C.3       1 RES1   0.0000
    50 C44      -1.2021   -3.1687   -8.2488   C.3       1 RES1   0.0000
    51 C45       0.0908   -2.3572   -8.3587   C.3       1 RES1   0.0000
    52 C46      -0.1929   -1.0207   -9.0492   C.3       1 RES1   0.0000
    53 C47       1.0594   -0.2280   -9.4235   C.3       1 RES1   0.0000
    54 C48       0.6664    1.0674  -10.1384   C.3       1 RES1   0.0000
    55 C49       1.8322    1.8562  -10.7349   C.3       1 RES1   0.0000
    56 C50       2.7440    2.4815   -9.6862   C.3       1 RES1   0.0000
    57 H1        0.1816    8.1928    3.0602   H         1 RES1   0.0000
    58 H2       -0.6890    6.8719    3.8378   H         1 RES1   0.0000
    59 H3       -1.2721    8.5276    3.9929   H         1 RES1   0.0000
    60 H4       -1.1596    6.9094    1.4036   H         1 RES1   0.0000
    61 H5       -1.6796    8.5887    1.5194   H         1 RES1   0.0000
    62 H6       -3.6571    8.0098    2.7542   H         1 RES1   0.0000
    63 H7       -3.0459    6.4106    3.1404   H         1 RES1   0.0000
    64 H8       -4.7289    6.1455    1.4396   H         1 RES1   0.0000
    65 H9       -3.1589    5.8203    0.6986   H         1 RES1   0.0000
    66 H10      -3.1632    8.2445   -0.1190   H         1 RES1   0.0000
    67 H11      -4.8135    8.3642    0.4796   H         1 RES1   0.0000
    68 H12      -4.8983    7.9853   -1.8641   H         1 RES1   0.0000
    69 H13      -5.4694    6.5172   -1.0889   H         1 RES1   0.0000
    70 H14      -3.2746    5.4186   -1.5695   H         1 RES1   0.0000
    71 H15      -2.6032    6.9796   -2.0228   H         1 RES1   0.0000
    72 H16      -3.0136    6.2477   -4.1460   H         1 RES1   0.0000
    73 H17      -4.6055    6.8978   -3.8159   H         1 RES1   0.0000
    74 H18      -4.9100    4.8146   -4.8287   H         1 RES1   0.0000
    75 H19      -5.3867    4.6151   -3.1591   H         1 RES1   0.0000
    76 H20      -2.6002    3.9445   -4.1072   H         1 RES1   0.0000
    77 H21      -3.9250    2.8241   -4.4909   H         1 RES1   0.0000
    78 H22      -4.4907    1.5992   -1.3409   H         1 RES1   0.0000
    79 H23      -5.3769    2.4893   -2.5799   H         1 RES1   0.0000
    80 H24      -5.3460    4.4946   -1.0375   H         1 RES1   0.0000
    81 H25      -4.4782    3.5198    0.1325   H         1 RES1   0.0000
    82 H26      -6.7614    3.3937    0.7253   H         1 RES1   0.0000
    83 H27      -6.3796    1.8349    0.0156   H         1 RES1   0.0000
    84 H28      -7.5977    4.0202   -1.6973   H         1 RES1   0.0000
    85 H29      -8.6144    3.1404   -0.5696   H         1 RES1   0.0000
    86 H30      -7.1096    1.8204   -2.8676   H         1 RES1   0.0000
    87 H31      -8.7899    2.3089   -2.8348   H         1 RES1   0.0000
    88 H32      -9.2121    0.7418   -0.9440   H         1 RES1   0.0000
    89 H33      -7.5388    0.2145   -1.0075   H         1 RES1   0.0000
    90 H34      -7.9063   -0.4121   -3.4472   H         1 RES1   0.0000
    91 H35      -9.6186   -0.0770   -3.2062   H         1 RES1   0.0000
    92 H36      -9.6334   -1.7932   -1.3481   H         1 RES1   0.0000
    93 H37      -7.9575   -2.1754   -1.7394   H         1 RES1   0.0000
    94 H38      -8.6976   -2.7195   -4.0960   H         1 RES1   0.0000
    95 H39     -10.3603   -2.4690   -3.5928   H         1 RES1   0.0000
    96 H40      -8.4698   -4.5587   -2.4153   H         1 RES1   0.0000
    97 H41      -9.7665   -4.8727   -3.5653   H         1 RES1   0.0000
    98 H42     -10.1503   -4.3181   -1.9408   H         1 RES1   0.0000
    99 H43      -2.1283    1.4343   -4.2154   H         1 RES1   0.0000
   100 H44       0.4380    2.2349   -4.3322   H         1 RES1   0.0000
   101 H45      -0.9010    3.2586   -4.7986   H         1 RES1   0.0000
   102 H46      -0.8677    4.1032   -2.3130   H         1 RES1   0.0000
   103 H47       0.3520    4.6752   -3.4409   H         1 RES1   0.0000
   104 H48       0.7758    2.3329   -1.5272   H         1 RES1   0.0000
   105 H49       1.3448    4.0037   -1.2565   H         1 RES1   0.0000
   106 H50       1.9876    3.0650   -2.5987   H         1 RES1   0.0000
   107 H51      -1.3951   -0.4188   -4.7036   H         1 RES1   0.0000
   108 H52       0.7807   -0.1377   -5.4196   H         1 RES1   0.0000
   109 H53       1.3289    0.0651   -3.7431   H         1 RES1   0.0000
   110 H54       2.4637   -1.7247   -4.9767   H         1 RES1   0.0000
   111 H55       0.9827   -2.6328   -5.0863   H         1 RES1   0.0000
   112 H56       2.0909   -1.7717   -2.3931   H         1 RES1   0.0000
   113 H57       2.6844   -3.2148   -3.2151   H         1 RES1   0.0000
   114 H58       1.0038   -3.1056   -2.7224   H         1 RES1   0.0000
   115 H59      -0.9951   -4.0622   -2.0812   H         1 RES1   0.0000
   116 H60      -1.1862   -5.0267   -3.5591   H         1 RES1   0.0000
   117 H61      -3.3521   -3.7283   -1.8534   H         1 RES1   0.0000
   118 H62      -2.9498   -5.4280   -2.0371   H         1 RES1   0.0000
   119 H63      -4.8228   -5.3372   -3.3311   H         1 RES1   0.0000
   120 H64      -3.6556   -4.9827   -4.5887   H         1 RES1   0.0000
   121 H65      -4.1555   -2.4640   -4.0885   H         1 RES1   0.0000
   122 H66      -5.3804   -3.0555   -2.9731   H         1 RES1   0.0000
   123 H67      -6.6042   -2.5619   -4.8763   H         1 RES1   0.0000
   124 H68      -6.4251   -4.3084   -4.9281   H         1 RES1   0.0000
   125 H69      -6.1621   -3.4102   -7.1344   H         1 RES1   0.0000
   126 H70      -4.6279   -4.0893   -6.6210   H         1 RES1   0.0000
   127 H71      -4.3815   -1.9655   -7.8519   H         1 RES1   0.0000
   128 H72      -3.6773   -1.8874   -6.2470   H         1 RES1   0.0000
   129 H73      -4.7500    0.1770   -6.7087   H         1 RES1   0.0000
   130 H74      -5.6095   -0.6302   -5.3977   H         1 RES1   0.0000
   131 H75      -7.1712    0.4297   -6.9210   H         1 RES1   0.0000
   132 H76      -7.3962   -1.3173   -6.9883   H         1 RES1   0.0000
   133 H77      -5.7293    0.2497   -9.0168   H         1 RES1   0.0000
   134 H78      -7.4253   -0.1748   -9.2476   H         1 RES1   0.0000
   135 H79      -6.2151   -1.4465   -9.1350   H         1 RES1   0.0000
   136 H80      -1.2629   -2.2029   -5.7443   H         1 RES1   0.0000
   137 H81      -2.5936   -3.3269   -5.4150   H         1 RES1   0.0000
   138 H82      -1.0240   -5.2298   -5.4442   H         1 RES1   0.0000
   139 H83       0.3049   -4.1568   -5.8373   H         1 RES1   0.0000
   140 H84      -2.1257   -4.9165   -7.4648   H         1 RES1   0.0000
   141 H85      -0.4215   -5.1375   -7.8400   H         1 RES1   0.0000
   142 H86      -1.9933   -2.5230   -7.8636   H         1 RES1   0.0000
   143 H87      -1.5075   -3.4730   -9.2524   H         1 RES1   0.0000
   144 H88       0.8320   -2.9183   -8.9294   H         1 RES1   0.0000
   145 H89       0.5113   -2.1696   -7.3679   H         1 RES1   0.0000
   146 H90      -0.8208   -0.4046   -8.3970   H         1 RES1   0.0000
   147 H91      -0.7637   -1.2100   -9.9586   H         1 RES1   0.0000
   148 H92       1.6822   -0.8304  -10.0863   H         1 RES1   0.0000
   149 H93       1.6445   -0.0064   -8.5277   H         1 RES1   0.0000
   150 H94       0.1222    1.7120   -9.4433   H         1 RES1   0.0000
   151 H95      -0.0165    0.8128  -10.9500   H         1 RES1   0.0000
   152 H96       1.4179    2.6533  -11.3546   H         1 RES1   0.0000
   153 H97       2.4196    1.2068  -11.3850   H         1 RES1   0.0000
   154 H98       2.1621    3.0605   -8.9708   H         1 RES1   0.0000
   155 H99       3.4586    3.1496  -10.1590   H         1 RES1   0.0000
   156 H100      3.3020    1.7185   -9.1495   H         1 RES1   0.0000
   157 C51       5.8055    6.1106    0.6432   C.3       1 RES1   0.0000
   158 C52       4.9509    5.9445    1.8948   C.3       1 RES1   0.0000
   159 C53       5.5991    5.0132    2.9250   C.3       1 RES1   0.0000
   160 C54       4.5879    4.4022    3.8989   C.3       1 RES1   0.0000
   161 C55       3.9571    5.4390    4.8272   C.3       1 RES1   0.0000
   162 C56       2.7893    4.8992    5.6582   C.3       1 RES1   0.0000
   163 C57       1.5422    4.5930    4.8168   C.3       1 RES1   0.0000
   164 C58       0.2465    4.5438    5.6355   C.3       1 RES1   0.0000
   165 C59      -0.0896    3.1977    6.2863   C.3       1 RES1   0.0000
   166 C60      -0.8277    2.1903    5.3873   C.3       1 RES1   0.0000
   167 N3        0.0115    1.4402    4.4584   N.am      1 RES1   0.0000
   168 C61       1.0411    0.6247    5.1074   C.3       1 RES1   0.0000
   169 C62       2.4770    1.1258    5.1778   C.3       1 RES1   0.0000
   170 C63       3.3837    0.0328    5.7559   C.3       1 RES1   0.0000
   171 C64       3.2522   -0.2298    7.2653   C.3       1 RES1   0.0000
   172 C65       2.1968   -1.2547    7.7016   C.3       1 RES1   0.0000
   173 C66       2.4814   -2.6916    7.2633   C.3       1 RES1   0.0000
   174 C67       1.3209   -3.6183    7.6320   C.3       1 RES1   0.0000
   175 C68       1.3785   -4.9804    6.9390   C.3       1 RES1   0.0000
   176 C69       0.2643   -5.8984    7.4394   C.3       1 RES1   0.0000
   177 C70       0.1512   -7.1890    6.6391   C.3       1 RES1   0.0000
   178 C71      -0.3672    1.1512    3.2039   C.2       1 RES1   0.0000
   179 O4        0.4044    0.6428    2.3657   O.2       1 RES1   0.0000
   180 C72      -1.8581    1.2743    2.8332   C.3       1 RES1   0.0000
   181 C73      -2.3611    2.7028    2.5211   C.3       1 RES1   0.0000
   182 C74      -1.2743    3.7558    2.2803   C.3       1 RES1   0.0000
   183 C75      -0.8919    3.8422    0.8125   C.3       1 RES1   0.0000
   184 O5       -2.0436    0.3506    1.7479   O.3       1 RES1   0.0000
   185 C76      -3.2349   -0.4521    1.7943   C.3       1 RES1   0.0000
   186 C77      -4.3199    0.1535    0.8720   C.3       1 RES1   0.0000
   187 C78      -4.7366   -0.6950   -0.3305   C.3       1 RES1   0.0000
   188 C79      -3.6901   -0.7944   -1.4380   C.3       1 RES1   0.0000
   189 C80      -2.8461   -1.8814    1.3693   C.2       1 RES1   0.0000
   190 O6       -1.7611   -2.0354    0.7781   O.2       1 RES1   0.0000
   191 N4       -3.6556   -2.9098    1.6351   N.am      1 RES1   0.0000
   192 C81      -3.2239   -4.2493    1.2305   C.3       1 RES1   0.0000
   193 C82      -2.3506   -5.0303    2.2249   C.3       1 RES1   0.0000
   194 C83      -2.9004   -5.2329    3.6423   C.3       1 RES1   0.0000
   195 C84      -2.4568   -4.1445    4.6216   C.3       1 RES1   0.0000
   196 C85      -3.0840   -4.2837    6.0125   C.3       1 RES1   0.0000
   197 C86      -4.5196   -3.7702    6.1350   C.3       1 RES1   0.0000
   198 C87      -4.7010   -2.2742    5.8598   C.3       1 RES1   0.0000
   199 C88      -3.8375   -1.3314    6.7010   C.3       1 RES1   0.0000
   200 C89      -4.0549   -1.4389    8.2106   C.3       1 RES1   0.0000
   201 C90      -5.4969   -1.1713    8.6277   C.3       1 RES1   0.0000
   202 C91      -4.9609   -2.8294    2.2912   C.3       1 RES1   0.0000
   203 C92      -6.1803   -3.2726    1.4653   C.3       1 RES1   0.0000
   204 C93      -7.4219   -3.4397    2.3489   C.3       1 RES1   0.0000
   205 C94      -7.8129   -2.2088    3.1725   C.3       1 RES1   0.0000
   206 C95      -8.1735   -0.9527    2.3741   C.3       1 RES1   0.0000
   207 C96      -8.3368    0.2395    3.3175   C.3       1 RES1   0.0000
   208 C97      -8.9337    1.4888    2.6689   C.3       1 RES1   0.0000
   209 C98      -8.9689    2.6285    3.6906   C.3       1 RES1   0.0000
   210 C99      -9.7358    3.8793    3.2569   C.3       1 RES1   0.0000
   211 C100     -9.0059    4.7222    2.2181   C.3       1 RES1   0.0000
   212 H101      5.3391    6.8091   -0.0478   H         1 RES1   0.0000
   213 H102      5.9252    5.1549    0.1341   H         1 RES1   0.0000
   214 H103      6.7920    6.4909    0.8935   H         1 RES1   0.0000
   215 H104      3.9750    5.5447    1.6028   H         1 RES1   0.0000
   216 H105      4.7844    6.9244    2.3404   H         1 RES1   0.0000
   217 H106      6.3568    5.5565    3.4890   H         1 RES1   0.0000
   218 H107      6.1137    4.2017    2.4019   H         1 RES1   0.0000
   219 H108      5.0866    3.6397    4.5039   H         1 RES1   0.0000
   220 H109      3.8005    3.9104    3.3247   H         1 RES1   0.0000
   221 H110      3.5973    6.2839    4.2399   H         1 RES1   0.0000
   222 H111      4.7248    5.8125    5.5055   H         1 RES1   0.0000
   223 H112      2.5257    5.6618    6.3929   H         1 RES1   0.0000
   224 H113      3.1202    4.0175    6.2117   H         1 RES1   0.0000
   225 H114      1.6660    3.6570    4.2692   H         1 RES1   0.0000
   226 H115      1.4421    5.3938    4.0820   H         1 RES1   0.0000
   227 H116     -0.5956    4.8455    5.0088   H         1 RES1   0.0000
   228 H117      0.3242    5.2866    6.4301   H         1 RES1   0.0000
   229 H118     -0.7816    3.4017    7.1048   H         1 RES1   0.0000
   230 H119      0.8019    2.7535    6.7202   H         1 RES1   0.0000
   231 H120     -1.5735    2.7441    4.8268   H         1 RES1   0.0000
   232 H121     -1.3459    1.4728    6.0400   H         1 RES1   0.0000
   233 H122      1.0651   -0.3326    4.5914   H         1 RES1   0.0000
   234 H123      0.6785    0.4654    6.1248   H         1 RES1   0.0000
   235 H124      2.5630    2.0201    5.7888   H         1 RES1   0.0000
   236 H125      2.8237    1.3743    4.1734   H         1 RES1   0.0000
   237 H126      4.4107    0.3375    5.5598   H         1 RES1   0.0000
   238 H127      3.2123   -0.8960    5.2149   H         1 RES1   0.0000
   239 H128      3.0519    0.7136    7.7783   H         1 RES1   0.0000
   240 H129      4.2162   -0.5918    7.6305   H         1 RES1   0.0000
   241 H130      1.2070   -0.9730    7.3368   H         1 RES1   0.0000
   242 H131      2.1499   -1.2341    8.7920   H         1 RES1   0.0000
   243 H132      3.4014   -3.0468    7.7267   H         1 RES1   0.0000
   244 H133      2.6322   -2.7310    6.1826   H         1 RES1   0.0000
   245 H134      0.3771   -3.1353    7.3572   H         1 RES1   0.0000
   246 H135      1.3081   -3.7661    8.7128   H         1 RES1   0.0000
   247 H136      2.3478   -5.4473    7.1181   H         1 RES1   0.0000
   248 H137      1.2733   -4.8419    5.8580   H         1 RES1   0.0000
   249 H138     -0.6852   -5.3650    7.3866   H         1 RES1   0.0000
   250 H139      0.4422   -6.1403    8.4861   H         1 RES1   0.0000
   251 H140     -0.0631   -6.9783    5.5925   H         1 RES1   0.0000
   252 H141     -0.6514   -7.8067    7.0331   H         1 RES1   0.0000
   253 H142      1.0746   -7.7588    6.6917   H         1 RES1   0.0000
   254 H143     -2.4138    0.8874    3.6979   H         1 RES1   0.0000
   255 H144     -2.9899    2.6529    1.6317   H         1 RES1   0.0000
   256 H145     -3.0033    3.0280    3.3413   H         1 RES1   0.0000
   257 H146     -0.3847    3.5445    2.8722   H         1 RES1   0.0000
   258 H147     -1.6613    4.7232    2.5950   H         1 RES1   0.0000
   259 H148     -0.5728    2.8622    0.4452   H         1 RES1   0.0000
   260 H149     -0.0916    4.5676    0.6778   H         1 RES1   0.0000
   261 H150     -1.7430    4.1739    0.2197   H         1 RES1   0.0000
   262 H151     -3.5886   -0.4750    2.8326   H         1 RES1   0.0000
   263 H152     -5.2006    0.3775    1.4747   H         1 RES1   0.0000
   264 H153     -3.9057    1.0927    0.5124   H         1 RES1   0.0000
   265 H154     -5.6583   -0.2704   -0.7322   H         1 RES1   0.0000
   266 H155     -4.9675   -1.7007    0.0023   H         1 RES1   0.0000
   267 H156     -3.8813   -0.0998   -2.2535   H         1 RES1   0.0000
   268 H157     -3.7027   -1.7877   -1.8707   H         1 RES1   0.0000
   269 H158     -2.6860   -0.6077   -1.0461   H         1 RES1   0.0000
   270 H159     -2.6483   -4.1379    0.3091   H         1 RES1   0.0000
   271 H160     -4.1185   -4.8325    1.0135   H         1 RES1   0.0000
   272 H161     -1.3676   -4.5631    2.2888   H         1 RES1   0.0000
   273 H162     -2.1989   -6.0077    1.7639   H         1 RES1   0.0000
   274 H163     -2.5184   -6.1816    4.0210   H         1 RES1   0.0000
   275 H164     -3.9849   -5.3216    3.6131   H         1 RES1   0.0000
   276 H165     -2.6632   -3.1517    4.2180   H         1 RES1   0.0000
   277 H166     -1.3745   -4.2294    4.7377   H         1 RES1   0.0000
   278 H167     -2.4608   -3.7515    6.7333   H         1 RES1   0.0000
   279 H168     -3.0729   -5.3379    6.2955   H         1 RES1   0.0000
   280 H169     -4.8690   -3.9893    7.1441   H         1 RES1   0.0000
   281 H170     -5.1647   -4.3258    5.4488   H         1 RES1   0.0000
   282 H171     -5.7514   -2.0260    6.0199   H         1 RES1   0.0000
   283 H172     -4.4766   -2.0685    4.8104   H         1 RES1   0.0000
   284 H173     -4.0678   -0.3062    6.3896   H         1 RES1   0.0000
   285 H174     -2.7809   -1.5114    6.4794   H         1 RES1   0.0000
   286 H175     -3.4015   -0.7075    8.6932   H         1 RES1   0.0000
   287 H176     -3.7535   -2.4284    8.5575   H         1 RES1   0.0000
   288 H177     -5.8561   -0.2396    8.1947   H         1 RES1   0.0000
   289 H178     -5.5606   -1.0926    9.7090   H         1 RES1   0.0000
   290 H179     -6.1532   -1.9782    8.3121   H         1 RES1   0.0000
   291 H180     -5.1357   -1.8057    2.6116   H         1 RES1   0.0000
   292 H181     -4.9194   -3.4747    3.1713   H         1 RES1   0.0000
   293 H182     -5.9910   -4.2284    0.9768   H         1 RES1   0.0000
   294 H183     -6.4238   -2.5487    0.6918   H         1 RES1   0.0000
   295 H184     -7.2557   -4.2688    3.0402   H         1 RES1   0.0000
   296 H185     -8.2521   -3.7161    1.6956   H         1 RES1   0.0000
   297 H186     -7.0106   -1.9711    3.8746   H         1 RES1   0.0000
   298 H187     -8.6795   -2.4908    3.7721   H         1 RES1   0.0000
   299 H188     -9.1036   -1.1206    1.8302   H         1 RES1   0.0000
   300 H189     -7.3992   -0.7273    1.6371   H         1 RES1   0.0000
   301 H190     -7.3616    0.4952    3.7445   H         1 RES1   0.0000
   302 H191     -8.9822   -0.0567    4.1449   H         1 RES1   0.0000
   303 H192     -9.9489    1.2741    2.3317   H         1 RES1   0.0000
   304 H193     -8.3454    1.7739    1.7945   H         1 RES1   0.0000
   305 H194     -7.9442    2.9126    3.9477   H         1 RES1   0.0000
   306 H195     -9.4393    2.2475    4.5989   H         1 RES1   0.0000
   307 H196     -9.9017    4.4947    4.1430   H         1 RES1   0.0000
   308 H197    -10.7142    3.5924    2.8690   H         1 RES1   0.0000
   309 H198     -7.9861    4.9290    2.5381   H         1 RES1   0.0000
   310 H199     -9.5152    5.6721    2.0838   H         1 RES1   0.0000
   311 H200     -8.9759    4.2209    1.2552   H         1 RES1   0.0000
   312 C101     -0.0375    7.5324   -4.5198   C.3       1 RES1   0.0000
   313 C102      1.3975    7.0148   -4.5515   C.3       1 RES1   0.0000
   314 C103      1.6353    5.9928   -5.6705   C.3       1 RES1   0.0000
   315 C104      2.7477    4.9889   -5.3489   C.3       1 RES1   0.0000
   316 C105      4.1125    5.6540   -5.1720   C.3       1 RES1   0.0000
   317 C106      5.2300    4.7087   -4.7188   C.3       1 RES1   0.0000
   318 C107      5.0722    4.2240   -3.2705   C.3       1 RES1   0.0000
   319 C108      6.3432    3.5950   -2.6820   C.3       1 RES1   0.0000
   320 C109      6.5425    2.0878   -2.8909   C.3       1 RES1   0.0000
   321 C110      5.7615    1.1524   -1.9439   C.3       1 RES1   0.0000
   322 N5        4.3950    0.7994   -2.3280   N.am      1 RES1   0.0000
   323 C111      4.2531    0.3196   -3.7080   C.3       1 RES1   0.0000
   324 C112      3.7976    1.3242   -4.7600   C.3       1 RES1   0.0000
   325 C113      3.5977    0.6902   -6.1403   C.3       1 RES1   0.0000
   326 C114      4.8571    0.0909   -6.7864   C.3       1 RES1   0.0000
   327 C115      5.1318   -1.3771   -6.4403   C.3       1 RES1   0.0000
   328 C116      4.2424   -2.3906   -7.1621   C.3       1 RES1   0.0000
   329 C117      4.6258   -3.8098   -6.7349   C.3       1 RES1   0.0000
   330 C118      3.5824   -4.8754   -7.0669   C.3       1 RES1   0.0000
   331 C119      4.1126   -6.2708   -6.7377   C.3       1 RES1   0.0000
   332 C120      3.0539   -7.3565   -6.8698   C.3       1 RES1   0.0000
   333 C121      3.4472    0.4826   -1.4300   C.2       1 RES1   0.0000
   334 O7        2.2429    0.3682   -1.7365   O.2       1 RES1   0.0000
   335 C122      3.8698    0.0254   -0.0177   C.3       1 RES1   0.0000
   336 C123      4.3747    1.1081    0.9544   C.3       1 RES1   0.0000
   337 C124      3.8054    2.5007    0.6938   C.3       1 RES1   0.0000
   338 C125      2.3750    2.6235    1.1905   C.3       1 RES1   0.0000
   339 O8        2.7328   -0.6848    0.4948   O.3       1 RES1   0.0000
   340 C126      2.9975   -1.9118    1.1847   C.3       1 RES1   0.0000
   341 C127      2.7459   -1.7024    2.7007   C.3       1 RES1   0.0000
   342 C128      1.6736   -2.5887    3.3430   C.3       1 RES1   0.0000
   343 C129      0.2315   -2.2323    2.9925   C.3       1 RES1   0.0000
   344 C130      2.0528   -2.9846    0.6157   C.2       1 RES1   0.0000
   345 O9        1.0614   -2.6002   -0.0320   O.2       1 RES1   0.0000
   346 N6        2.2660   -4.2816    0.8640   N.am      1 RES1   0.0000
   347 C131      1.2228   -5.2239    0.4555   C.3       1 RES1   0.0000
   348 C132      1.2669   -5.7164   -0.9945   C.3       1 RES1   0.0000
   349 C133      2.5171   -6.4907   -1.4325   C.3       1 RES1   0.0000
   350 C134      3.4604   -5.6018   -2.2424   C.3       1 RES1   0.0000
   351 C135      4.7886   -6.2504   -2.6361   C.3       1 RES1   0.0000
   352 C136      5.8227   -6.3379   -1.5130   C.3       1 RES1   0.0000
   353 C137      6.2374   -4.9947   -0.9009   C.3       1 RES1   0.0000
   354 C138      6.7345   -3.9348   -1.8887   C.3       1 RES1   0.0000
   355 C139      7.9299   -4.3575   -2.7430   C.3       1 RES1   0.0000
   356 C140      9.1524   -4.7416   -1.9176   C.3       1 RES1   0.0000
   357 C141      3.4352   -4.8555    1.5296   C.3       1 RES1   0.0000
   358 C142      3.1929   -5.5580    2.8770   C.3       1 RES1   0.0000
   359 C143      4.4081   -6.3795    3.3186   C.3       1 RES1   0.0000
   360 C144      5.7045   -5.5729    3.4467   C.3       1 RES1   0.0000
   361 C145      5.6492   -4.3918    4.4212   C.3       1 RES1   0.0000
   362 C146      6.8455   -3.4627    4.2189   C.3       1 RES1   0.0000
   363 C147      6.8991   -2.3092    5.2215   C.3       1 RES1   0.0000
   364 C148      8.0005   -1.3176    4.8390   C.3       1 RES1   0.0000
   365 C149      8.3414   -0.2942    5.9225   C.3       1 RES1   0.0000
   366 C150      7.2124    0.6859    6.2171   C.3       1 RES1   0.0000
   367 H201     -0.1519    8.2815   -3.7394   H         1 RES1   0.0000
   368 H202     -0.7355    6.7206   -4.3150   H         1 RES1   0.0000
   369 H203     -0.3103    7.9886   -5.4677   H         1 RES1   0.0000
   370 H204      1.6255    6.5587   -3.5837   H         1 RES1   0.0000
   371 H205      2.0717    7.8604   -4.6807   H         1 RES1   0.0000
   372 H206      1.8819    6.5118   -6.5964   H         1 RES1   0.0000
   373 H207      0.7115    5.4361   -5.8531   H         1 RES1   0.0000
   374 H208      2.8072    4.2561   -6.1587   H         1 RES1   0.0000
   375 H209      2.4835    4.4526   -4.4349   H         1 RES1   0.0000
   376 H210      4.0290    6.4602   -4.4434   H         1 RES1   0.0000
   377 H211      4.4062    6.0990   -6.1229   H         1 RES1   0.0000
   378 H212      6.1712    5.2574   -4.7830   H         1 RES1   0.0000
   379 H213      5.3009    3.8753   -5.4215   H         1 RES1   0.0000
   380 H214      4.2410    3.5238   -3.1740   H         1 RES1   0.0000
   381 H215      4.8258    5.1012   -2.6692   H         1 RES1   0.0000
   382 H216      6.3805    3.8007   -1.6097   H         1 RES1   0.0000
   383 H217      7.2022    4.0973   -3.1295   H         1 RES1   0.0000
   384 H218      7.5928    1.8882   -2.6675   H         1 RES1   0.0000
   385 H219      6.3874    1.8327   -3.9344   H         1 RES1   0.0000
   386 H220      5.7324    1.6470   -0.9781   H         1 RES1   0.0000
   387 H221      6.3396    0.2221   -1.8485   H         1 RES1   0.0000
   388 H222      3.5533   -0.5138   -3.6897   H         1 RES1   0.0000
   389 H223      5.2435   -0.0575   -3.9805   H         1 RES1   0.0000
   390 H224      4.5245    2.1208   -4.8645   H         1 RES1   0.0000
   391 H225      2.8564    1.7741   -4.4399   H         1 RES1   0.0000
   392 H226      3.2281    1.4851   -6.7895   H         1 RES1   0.0000
   393 H227      2.8252   -0.0724   -6.0975   H         1 RES1   0.0000
   394 H228      5.7282    0.6910   -6.5119   H         1 RES1   0.0000
   395 H229      4.7581    0.1581   -7.8725   H         1 RES1   0.0000
   396 H230      5.0311   -1.5441   -5.3669   H         1 RES1   0.0000
   397 H231      6.1663   -1.5993   -6.7062   H         1 RES1   0.0000
   398 H232      4.3633   -2.2866   -8.2393   H         1 RES1   0.0000
   399 H233      3.1876   -2.2152   -6.9399   H         1 RES1   0.0000
   400 H234      4.7883   -3.8235   -5.6519   H         1 RES1   0.0000
   401 H235      5.5726   -4.0785   -7.2067   H         1 RES1   0.0000
   402 H236      3.3164   -4.8227   -8.1232   H         1 RES1   0.0000
   403 H237      2.6740   -4.6870   -6.4861   H         1 RES1   0.0000
   404 H238      4.4984   -6.2737   -5.7169   H         1 RES1   0.0000
   405 H239      4.9470   -6.5015   -7.3990   H         1 RES1   0.0000
   406 H240      2.2298   -7.1765   -6.1827   H         1 RES1   0.0000
   407 H241      3.4807   -8.3295   -6.6433   H         1 RES1   0.0000
   408 H242      2.6569   -7.3871   -7.8800   H         1 RES1   0.0000
   409 H243      4.6875   -0.6935   -0.1802   H         1 RES1   0.0000
   410 H244      4.1145    0.8022    1.9697   H         1 RES1   0.0000
   411 H245      5.4642    1.1359    0.9082   H         1 RES1   0.0000
   412 H246      3.8411    2.7394   -0.3711   H         1 RES1   0.0000
   413 H247      4.4289    3.2211    1.2198   H         1 RES1   0.0000
   414 H248      1.7310    1.8766    0.7037   H         1 RES1   0.0000
   415 H249      1.9895    3.6197    0.9872   H         1 RES1   0.0000
   416 H250      2.3326    2.4627    2.2656   H         1 RES1   0.0000
   417 H251      4.0404   -2.1948    1.0048   H         1 RES1   0.0000
   418 H252      3.6938   -1.8498    3.2209   H         1 RES1   0.0000
   419 H253      2.4420   -0.6614    2.8141   H         1 RES1   0.0000
   420 H254      1.8072   -2.5446    4.4262   H         1 RES1   0.0000
   421 H255      1.8309   -3.6151    3.0426   H         1 RES1   0.0000
   422 H256      0.1811   -1.7192    2.0290   H         1 RES1   0.0000
   423 H257     -0.2436   -1.6080    3.7436   H         1 RES1   0.0000
   424 H258     -0.3537   -3.1425    2.9228   H         1 RES1   0.0000
   425 H259      0.2666   -4.7130    0.5928   H         1 RES1   0.0000
   426 H260      1.2642   -6.0785    1.1322   H         1 RES1   0.0000
   427 H261      1.1340   -4.8649   -1.6596   H         1 RES1   0.0000
   428 H262      0.3894   -6.3529   -1.1068   H         1 RES1   0.0000
   429 H263      2.2121   -7.3174   -2.0737   H         1 RES1   0.0000
   430 H264      3.0184   -6.9288   -0.5721   H         1 RES1   0.0000
   431 H265      3.6532   -4.6733   -1.7005   H         1 RES1   0.0000
   432 H266      2.9332   -5.3484   -3.1650   H         1 RES1   0.0000
   433 H267      5.2156   -5.6788   -3.4626   H         1 RES1   0.0000
   434 H268      4.5943   -7.2586   -3.0071   H         1 RES1   0.0000
   435 H269      6.7082   -6.8356   -1.9095   H         1 RES1   0.0000
   436 H270      5.4318   -6.9714   -0.7118   H         1 RES1   0.0000
   437 H271      7.0213   -5.1876   -0.1660   H         1 RES1   0.0000
   438 H272      5.3892   -4.5655   -0.3600   H         1 RES1   0.0000
   439 H273      7.0185   -3.0500   -1.3079   H         1 RES1   0.0000
   440 H274      5.9135   -3.6407   -2.5496   H         1 RES1   0.0000
   441 H275      8.1887   -3.5177   -3.3928   H         1 RES1   0.0000
   442 H276      7.6477   -5.1931   -3.3845   H         1 RES1   0.0000
   443 H277      9.3983   -3.9568   -1.2046   H         1 RES1   0.0000
   444 H278     10.0079   -4.8890   -2.5709   H         1 RES1   0.0000
   445 H279      8.9840   -5.6667   -1.3727   H         1 RES1   0.0000
   446 H280      4.1759   -4.0755    1.6892   H         1 RES1   0.0000
   447 H281      3.8541   -5.6002    0.8480   H         1 RES1   0.0000
   448 H282      2.3350   -6.2273    2.8151   H         1 RES1   0.0000
   449 H283      2.9991   -4.8418    3.6703   H         1 RES1   0.0000
   450 H284      4.5776   -7.1947    2.6120   H         1 RES1   0.0000
   451 H285      4.1620   -6.8245    4.2852   H         1 RES1   0.0000
   452 H286      6.0027   -5.2077    2.4610   H         1 RES1   0.0000
   453 H287      6.4826   -6.2625    3.7761   H         1 RES1   0.0000
   454 H288      5.6366   -4.7582    5.4483   H         1 RES1   0.0000
   455 H289      4.7357   -3.8114    4.2715   H         1 RES1   0.0000
   456 H290      6.8057   -3.0477    3.2063   H         1 RES1   0.0000
   457 H291      7.7661   -4.0408    4.2956   H         1 RES1   0.0000
   458 H292      7.0966   -2.7015    6.2200   H         1 RES1   0.0000
   459 H293      5.9306   -1.8028    5.2512   H         1 RES1   0.0000
   460 H294      7.7084   -0.7886    3.9270   H         1 RES1   0.0000
   461 H295      8.9066   -1.8816    4.6128   H         1 RES1   0.0000
   462 H296      9.2178    0.2676    5.5948   H         1 RES1   0.0000
   463 H297      8.6112   -0.8168    6.8406   H         1 RES1   0.0000
   464 H298      6.8424    1.1350    5.2963   H         1 RES1   0.0000
   465 H299      7.5693    1.4842    6.8610   H         1 RES1   0.0000
   466 H300      6.3902    0.1890    6.7248   H         1 RES1   0.0000
@<TRIPOS>BOND
     1     1    24    1
     2     1    29    1
     3     1    35    1
     4     1   179    1
     5     1   184    1
     6     1   190    1
     7     1   334    1
     8     1   339    1
     9     1   345    1
    10     2     3    1
    11     2    57    1
    12     2    58    1
    13     2    59    1
    14     3     4    1
    15     3    60    1
    16     3    61    1
    17     4     5    1
    18     4    62    1
    19     4    63    1
    20     5     6    1
    21     5    64    1
    22     5    65    1
    23     6     7    1
    24     6    66    1
    25     6    67    1
    26     7     8    1
    27     7    68    1
    28     7    69    1
    29     8     9    1
    30     8    70    1
    31     8    71    1
    32     9    10    1
    33     9    72    1
    34     9    73    1
    35    10    11    1
    36    10    74    1
    37    10    75    1
    38    11    12    1
    39    11    76    1
    40    11    77    1
    41    12    13    1
    42    12    23    1
    43    13    14    1
    44    13    78    1
    45    13    79    1
    46    14    15    1
    47    14    80    1
    48    14    81    1
    49    15    16    1
    50    15    82    1
    51    15    83    1
    52    16    17    1
    53    16    84    1
    54    16    85    1
    55    17    18    1
    56    17    86    1
    57    17    87    1
    58    18    19    1
    59    18    88    1
    60    18    89    1
    61    19    20    1
    62    19    90    1
    63    19    91    1
    64    20    21    1
    65    20    92    1
    66    20    93    1
    67    21    22    1
    68    21    94    1
    69    21    95    1
    70    22    96    1
    71    22    97    1
    72    22    98    1
    73    23    24    2
    74    23    25    1
    75    25    26    1
    76    25    29    1
    77    25    99    1
    78    26    27    1
    79    26   100    1
    80    26   101    1
    81    27    28    1
    82    27   102    1
    83    27   103    1
    84    28   104    1
    85    28   105    1
    86    28   106    1
    87    29    30    1
    88    30    31    1
    89    30    34    1
    90    30   107    1
    91    31    32    1
    92    31   108    1
    93    31   109    1
    94    32    33    1
    95    32   110    1
    96    32   111    1
    97    33   112    1
    98    33   113    1
    99    33   114    1
   100    34    35    2
   101    34    36    1
   102    36    37    1
   103    36    47    1
   104    37    38    1
   105    37   115    1
   106    37   116    1
   107    38    39    1
   108    38   117    1
   109    38   118    1
   110    39    40    1
   111    39   119    1
   112    39   120    1
   113    40    41    1
   114    40   121    1
   115    40   122    1
   116    41    42    1
   117    41   123    1
   118    41   124    1
   119    42    43    1
   120    42   125    1
   121    42   126    1
   122    43    44    1
   123    43   127    1
   124    43   128    1
   125    44    45    1
   126    44   129    1
   127    44   130    1
   128    45    46    1
   129    45   131    1
   130    45   132    1
   131    46   133    1
   132    46   134    1
   133    46   135    1
   134    47    48    1
   135    47   136    1
   136    47   137    1
   137    48    49    1
   138    48   138    1
   139    48   139    1
   140    49    50    1
   141    49   140    1
   142    49   141    1
   143    50    51    1
   144    50   142    1
   145    50   143    1
   146    51    52    1
   147    51   144    1
   148    51   145    1
   149    52    53    1
   150    52   146    1
   151    52   147    1
   152    53    54    1
   153    53   148    1
   154    53   149    1
   155    54    55    1
   156    54   150    1
   157    54   151    1
   158    55    56    1
   159    55   152    1
   160    55   153    1
   161    56   154    1
   162    56   155    1
   163    56   156    1
   164   157   158    1
   165   157   212    1
   166   157   213    1
   167   157   214    1
   168   158   159    1
   169   158   215    1
   170   158   216    1
   171   159   160    1
   172   159   217    1
   173   159   218    1
   174   160   161    1
   175   160   219    1
   176   160   220    1
   177   161   162    1
   178   161   221    1
   179   161   222    1
   180   162   163    1
   181   162   223    1
   182   162   224    1
   183   163   164    1
   184   163   225    1
   185   163   226    1
   186   164   165    1
   187   164   227    1
   188   164   228    1
   189   165   166    1
   190   165   229    1
   191   165   230    1
   192   166   167    1
   193   166   231    1
   194   166   232    1
   195   167   168    1
   196   167   178    1
   197   168   169    1
   198   168   233    1
   199   168   234    1
   200   169   170    1
   201   169   235    1
   202   169   236    1
   203   170   171    1
   204   170   237    1
   205   170   238    1
   206   171   172    1
   207   171   239    1
   208   171   240    1
   209   172   173    1
   210   172   241    1
   211   172   242    1
   212   173   174    1
   213   173   243    1
   214   173   244    1
   215   174   175    1
   216   174   245    1
   217   174   246    1
   218   175   176    1
   219   175   247    1
   220   175   248    1
   221   176   177    1
   222   176   249    1
   223   176   250    1
   224   177   251    1
   225   177   252    1
   226   177   253    1
   227   178   179    2
   228   178   180    1
   229   180   181    1
   230   180   184    1
   231   180   254    1
   232   181   182    1
   233   181   255    1
   234   181   256    1
   235   182   183    1
   236   182   257    1
   237   182   258    1
   238   183   259    1
   239   183   260    1
   240   183   261    1
   241   184   185    1
   242   185   186    1
   243   185   189    1
   244   185   262    1
   245   186   187    1
   246   186   263    1
   247   186   264    1
   248   187   188    1
   249   187   265    1
   250   187   266    1
   251   188   267    1
   252   188   268    1
   253   188   269    1
   254   189   190    2
   255   189   191    1
   256   191   192    1
   257   191   202    1
   258   192   193    1
   259   192   270    1
   260   192   271    1
   261   193   194    1
   262   193   272    1
   263   193   273    1
   264   194   195    1
   265   194   274    1
   266   194   275    1
   267   195   196    1
   268   195   276    1
   269   195   277    1
   270   196   197    1
   271   196   278    1
   272   196   279    1
   273   197   198    1
   274   197   280    1
   275   197   281    1
   276   198   199    1
   277   198   282    1
   278   198   283    1
   279   199   200    1
   280   199   284    1
   281   199   285    1
   282   200   201    1
   283   200   286    1
   284   200   287    1
   285   201   288    1
   286   201   289    1
   287   201   290    1
   288   202   203    1
   289   202   291    1
   290   202   292    1
   291   203   204    1
   292   203   293    1
   293   203   294    1
   294   204   205    1
   295   204   295    1
   296   204   296    1
   297   205   206    1
   298   205   297    1
   299   205   298    1
   300   206   207    1
   301   206   299    1
   302   206   300    1
   303   207   208    1
   304   207   301    1
   305   207   302    1
   306   208   209    1
   307   208   303    1
   308   208   304    1
   309   209   210    1
   310   209   305    1
   311   209   306    1
   312   210   211    1
   313   210   307    1
   314   210   308    1
   315   211   309    1
   316   211   310    1
   317   211   311    1
   318   312   313    1
   319   312   367    1
   320   312   368    1
   321   312   369    1
   322   313   314    1
   323   313   370    1
   324   313   371    1
   325   314   315    1
   326   314   372    1
   327   314   373    1
   328   315   316    1
   329   315   374    1
   330   315   375    1
   331   316   317    1
   332   316   376    1
   333   316   377    1
   334   317   318    1
   335   317   378    1
   336   317   379    1
   337   318   319    1
   338   318   380    1
   339   318   381    1
   340   319   320    1
   341   319   382    1
   342   319   383    1
   343   320   321    1
   344   320   384    1
   345   320   385    1
   346   321   322    1
   347   321   386    1
   348   321   387    1
   349   322   323    1
   350   322   333    1
   351   323   324    1
   352   323   388    1
   353   323   389    1
   354   324   325    1
   355   324   390    1
   356   324   391    1
   357   325   326    1
   358   325   392    1
   359   325   393    1
   360   326   327    1
   361   326   394    1
   362   326   395    1
   363   327   328    1
   364   327   396    1
   365   327   397    1
   366   328   329    1
   367   328   398    1
   368   328   399    1
   369   329   330    1
   370   329   400    1
   371   329   401    1
   372   330   331    1
   373   330   402    1
   374   330   403    1
   375   331   332    1
   376   331   404    1
   377   331   405    1
   378   332   406    1
   379   332   407    1
   380   332   408    1
   381   333   334    2
   382   333   335    1
   383   335   336    1
   384   335   339    1
   385   335   409    1
   386   336   337    1
   387   336   410    1
   388   336   411    1
   389   337   338    1
   390   337   412    1
   391   337   413    1
   392   338   414    1
   393   338   415    1
   394   338   416    1
   395   339   340    1
   396   340   341    1
   397   340   344    1
   398   340   417    1
   399   341   342    1
   400   341   418    1
   401   341   419    1
   402   342   343    1
   403   342   420    1
   404   342   421    1
   405   343   422    1
   406   343   423    1
   407   343   424    1
   408   344   345    2
   409   344   346    1
   410   346   347    1
   411   346   357    1
   412   347   348    1
   413   347   425    1
   414   347   426    1
   415   348   349    1
   416   348   427    1
   417   348   428    1
   418   349   350    1
   419   349   429    1
   420   349   430    1
   421   350   351    1
   422   350   431    1
   423   350   432    1
   424   351   352    1
   425   351   433    1
   426   351   434    1
   427   352   353    1
   428   352   435    1
   429   352   436    1
   430   353   354    1
   431   353   437    1
   432   353   438    1
   433   354   355    1
   434   354   439    1
   435   354   440    1
   436   355   356    1
   437   355   441    1
   438   355   442    1
   439   356   443    1
   440   356   444    1
   441   356   445    1
   442   357   358    1
   443   357   446    1
   444   357   447    1
   445   358   359    1
   446   358   448    1
   447   358   449    1
   448   359   360    1
   449   359   450    1
   450   359   451    1
   451   360   361    1
   452   360   452    1
   453   360   453    1
   454   361   362    1
   455   361   454    1
   456   361   455    1
   457   362   363    1
   458   362   456    1
   459   362   457    1
   460   363   364    1
   461   363   458    1
   462   363   459    1
   463   364   365    1
   464   364   460    1
   465   364   461    1
   466   365   366    1
   467   365   462    1
   468   365   463    1
   469   366   464    1
   470   366   465    1
   471   366   466    1
@<TRIPOS>SUBSTRUCTURE
     1 RES1      466 GROUP             0 ****  ****    0  
