@<TRIPOS>MOLECULE
am_c3_9H2O_c0_0_nunpairedes_0_charge_3 Charge: 3 Unpaired_Electrons: 0 XTB_Unpaired_Electrons: 0 XTB_Charge: 3
    88    93     1     0     0
SMALL
NoCharges
****
Generated from Architector

@<TRIPOS>ATOM
     1 La1      -0.0150    0.0098   -0.0178   La        1 RES1   0.0000
     2 C1       -1.7685    2.3201    4.2035   C.3       1 RES1   0.0000
     3 N1       -2.5484    1.3789    3.4265   N.am      1 RES1   0.0000
     4 C2       -3.8517    1.0706    3.9738   C.3       1 RES1   0.0000
     5 C3       -2.1364    0.9970    2.2285   C.2       1 RES1   0.0000
     6 O1       -1.0459    1.3488    1.7349   O.2       1 RES1   0.0000
     7 C4       -3.0117    0.0522    1.3992   C.3       1 RES1   0.0000
     8 O2       -2.5190    0.0240    0.0673   O.3       1 RES1   0.0000
     9 C5       -3.1733    0.9579   -0.7842   C.3       1 RES1   0.0000
    10 C6       -2.1956    1.5237   -1.8103   C.2       1 RES1   0.0000
    11 O3       -0.9710    1.4205   -1.6061   O.2       1 RES1   0.0000
    12 N2       -2.7202    2.1418   -2.8528   N.am      1 RES1   0.0000
    13 C7       -4.1380    2.3795   -3.0126   C.3       1 RES1   0.0000
    14 C8       -1.8832    2.6379   -3.9232   C.3       1 RES1   0.0000
    15 H1       -1.5806    1.9291    5.2032   H         1 RES1   0.0000
    16 H2       -0.8291    2.4952    3.6877   H         1 RES1   0.0000
    17 H3       -2.3205    3.2548    4.2971   H         1 RES1   0.0000
    18 H4       -3.7898    1.1118    5.0585   H         1 RES1   0.0000
    19 H5       -4.5799    1.8158    3.6503   H         1 RES1   0.0000
    20 H6       -4.1821    0.0802    3.6790   H         1 RES1   0.0000
    21 H7       -2.8954   -0.9696    1.7718   H         1 RES1   0.0000
    22 H8       -4.0649    0.3346    1.4294   H         1 RES1   0.0000
    23 H9       -4.0055    0.4355   -1.2650   H         1 RES1   0.0000
    24 H10      -3.5533    1.8120   -0.2125   H         1 RES1   0.0000
    25 H11      -4.5975    2.6780   -2.0733   H         1 RES1   0.0000
    26 H12      -4.2504    3.1943   -3.7212   H         1 RES1   0.0000
    27 H13      -4.6464    1.5000   -3.4084   H         1 RES1   0.0000
    28 H14      -0.8480    2.3875   -3.7106   H         1 RES1   0.0000
    29 H15      -2.1968    2.1787   -4.8592   H         1 RES1   0.0000
    30 H16      -1.9914    3.7170   -4.0173   H         1 RES1   0.0000
    31 C9        2.7414    0.3636    4.2762   C.3       1 RES1   0.0000
    32 N3        2.4299    1.4985    3.4306   N.am      1 RES1   0.0000
    33 C10       2.7663    2.8000    3.9731   C.3       1 RES1   0.0000
    34 C11       1.9376    1.3200    2.2152   C.2       1 RES1   0.0000
    35 O4        1.6953    0.2010    1.7156   O.2       1 RES1   0.0000
    36 C12       1.6093    2.5570    1.3746   C.3       1 RES1   0.0000
    37 O5        1.2703    2.1464    0.0563   O.3       1 RES1   0.0000
    38 C13       2.3204    2.2957   -0.8918   C.3       1 RES1   0.0000
    39 C14       2.2783    1.1614   -1.9124   C.2       1 RES1   0.0000
    40 O6        1.5936    0.1491   -1.6767   O.2       1 RES1   0.0000
    41 N4        3.0310    1.3041   -2.9909   N.am      1 RES1   0.0000
    42 C15       3.9567    2.4009   -3.1701   C.3       1 RES1   0.0000
    43 C16       3.0438    0.2897   -4.0225   C.3       1 RES1   0.0000
    44 H17       2.2125    0.4416    5.2255   H         1 RES1   0.0000
    45 H18       2.4479   -0.5447    3.7585   H         1 RES1   0.0000
    46 H19       3.8103    0.3375    4.4824   H         1 RES1   0.0000
    47 H20       3.1936    2.6492    4.9599   H         1 RES1   0.0000
    48 H21       3.5126    3.3002    3.3571   H         1 RES1   0.0000
    49 H22       1.8898    3.4415    4.0628   H         1 RES1   0.0000
    50 H23       0.7168    3.0489    1.7751   H         1 RES1   0.0000
    51 H24       2.4317    3.2742    1.3834   H         1 RES1   0.0000
    52 H25       2.1968    3.2715   -1.3724   H         1 RES1   0.0000
    53 H26       3.3042    2.2510   -0.4119   H         1 RES1   0.0000
    54 H27       4.6243    2.4890   -2.3136   H         1 RES1   0.0000
    55 H28       4.5536    2.1811   -4.0488   H         1 RES1   0.0000
    56 H29       3.4405    3.3476   -3.3258   H         1 RES1   0.0000
    57 H30       2.3071   -0.4715   -3.7831   H         1 RES1   0.0000
    58 H31       2.8098    0.7447   -4.9832   H         1 RES1   0.0000
    59 H32       4.0325   -0.1611   -4.0889   H         1 RES1   0.0000
    60 C17      -1.2309   -2.4573    4.1980   C.3       1 RES1   0.0000
    61 N5       -0.1953   -3.0170    3.3480   N.am      1 RES1   0.0000
    62 C18       0.4998   -4.2111    3.7820   C.3       1 RES1   0.0000
    63 C19       0.0136   -2.4437    2.1729   C.2       1 RES1   0.0000
    64 O7       -0.6559   -1.4695    1.7785   O.2       1 RES1   0.0000
    65 C20       1.1111   -2.9751    1.2571   C.3       1 RES1   0.0000
    66 O8        1.0149   -2.2948    0.0111   O.3       1 RES1   0.0000
    67 C21       0.8417   -3.1182   -1.1349   C.3       1 RES1   0.0000
    68 C22      -0.1988   -2.4820   -2.0639   C.2       1 RES1   0.0000
    69 O9       -0.7672   -1.4381   -1.6926   O.2       1 RES1   0.0000
    70 N6       -0.4605   -3.0818   -3.2120   N.am      1 RES1   0.0000
    71 C23       0.0567   -4.3616   -3.6343   C.3       1 RES1   0.0000
    72 C24      -1.4310   -2.5248   -4.1296   C.3       1 RES1   0.0000
    73 H33      -1.3211   -3.0553    5.0964   H         1 RES1   0.0000
    74 H34      -0.9884   -1.4295    4.4682   H         1 RES1   0.0000
    75 H35      -2.1882   -2.4581    3.6782   H         1 RES1   0.0000
    76 H36       0.1068   -4.5095    4.7483   H         1 RES1   0.0000
    77 H37       0.3313   -5.0316    3.0852   H         1 RES1   0.0000
    78 H38       1.5718   -4.0433    3.8793   H         1 RES1   0.0000
    79 H39       2.0961   -2.7599    1.6890   H         1 RES1   0.0000
    80 H40       1.0206   -4.0573    1.1448   H         1 RES1   0.0000
    81 H41       1.8130   -3.2089   -1.6343   H         1 RES1   0.0000
    82 H42       0.4812   -4.1102   -0.8517   H         1 RES1   0.0000
    83 H43       0.7769   -4.7633   -2.9339   H         1 RES1   0.0000
    84 H44      -0.7791   -5.0549   -3.7301   H         1 RES1   0.0000
    85 H45       0.5218   -4.2579   -4.6137   H         1 RES1   0.0000
    86 H46      -1.7787   -1.5706   -3.7449   H         1 RES1   0.0000
    87 H47      -0.9737   -2.3967   -5.1096   H         1 RES1   0.0000
    88 H48      -2.2678   -3.2137   -4.2349   H         1 RES1   0.0000
@<TRIPOS>BOND
     1     1     6    1
     2     1     8    1
     3     1    11    1
     4     1    35    1
     5     1    37    1
     6     1    40    1
     7     1    64    1
     8     1    66    1
     9     1    69    1
    10     2     3    1
    11     2    15    1
    12     2    16    1
    13     2    17    1
    14     3     4    1
    15     3     5    1
    16     4    18    1
    17     4    19    1
    18     4    20    1
    19     5     6    2
    20     5     7    1
    21     7     8    1
    22     7    21    1
    23     7    22    1
    24     8     9    1
    25     9    10    1
    26     9    23    1
    27     9    24    1
    28    10    11    2
    29    10    12    1
    30    12    13    1
    31    12    14    1
    32    13    25    1
    33    13    26    1
    34    13    27    1
    35    14    28    1
    36    14    29    1
    37    14    30    1
    38    31    32    1
    39    31    44    1
    40    31    45    1
    41    31    46    1
    42    32    33    1
    43    32    34    1
    44    33    47    1
    45    33    48    1
    46    33    49    1
    47    34    35    2
    48    34    36    1
    49    36    37    1
    50    36    50    1
    51    36    51    1
    52    37    38    1
    53    38    39    1
    54    38    52    1
    55    38    53    1
    56    39    40    2
    57    39    41    1
    58    41    42    1
    59    41    43    1
    60    42    54    1
    61    42    55    1
    62    42    56    1
    63    43    57    1
    64    43    58    1
    65    43    59    1
    66    60    61    1
    67    60    73    1
    68    60    74    1
    69    60    75    1
    70    61    62    1
    71    61    63    1
    72    62    76    1
    73    62    77    1
    74    62    78    1
    75    63    64    2
    76    63    65    1
    77    65    66    1
    78    65    79    1
    79    65    80    1
    80    66    67    1
    81    67    68    1
    82    67    81    1
    83    67    82    1
    84    68    69    2
    85    68    70    1
    86    70    71    1
    87    70    72    1
    88    71    83    1
    89    71    84    1
    90    71    85    1
    91    72    86    1
    92    72    87    1
    93    72    88    1
@<TRIPOS>SUBSTRUCTURE
     1 RES1       88 GROUP             0 ****  ****    0  
