@<TRIPOS>MOLECULE
am_c3_9H2O_c0_0_nunpairedes_0_charge_3 Charge: 3 Unpaired_Electrons: 0 XTB_Unpaired_Electrons: 0 XTB_Charge: 3
   104   119     1     0     0
SMALL
NoCharges
****
Generated from Architector

@<TRIPOS>ATOM
     1 La1       0.0033    0.0233   -0.0265   La        1 RES1   0.0000
     2 O1        0.9123   -2.1033    0.6352   O.2       1 RES1   0.0000
     3 C1        1.7327   -2.2252    1.5795   C.2       1 RES1   0.0000
     4 C2        2.3688   -0.9635    2.1155   C.ar      1 RES1   0.0000
     5 C3        3.3716   -0.8787    3.0893   C.ar      1 RES1   0.0000
     6 C4        3.8801    0.3623    3.4343   C.ar      1 RES1   0.0000
     7 Cl1       5.1244    0.4786    4.5876   Cl        1 RES1   0.0000
     8 C5        3.3725    1.5291    2.8120   C.ar      1 RES1   0.0000
     9 C6        3.8519    2.8363    3.0941   C.ar      1 RES1   0.0000
    10 C7        3.3554    3.9185    2.4457   C.ar      1 RES1   0.0000
    11 C8        2.3339    3.7841    1.4675   C.ar      1 RES1   0.0000
    12 C9        1.7969    4.8790    0.7444   C.ar      1 RES1   0.0000
    13 Cl2       2.3693    6.4557    1.0253   Cl        1 RES1   0.0000
    14 C10       0.8077    4.6633   -0.2015   C.ar      1 RES1   0.0000
    15 C11       0.3395    3.3615   -0.4109   C.ar      1 RES1   0.0000
    16 C12      -0.7391    2.9459   -1.3795   C.2       1 RES1   0.0000
    17 O2       -0.9920    1.7208   -1.4730   O.2       1 RES1   0.0000
    18 N1       -1.4251    3.7788   -2.1492   N.am      1 RES1   0.0000
    19 C13      -2.3778    3.1884   -3.0940   C.3       1 RES1   0.0000
    20 C14      -2.7263    4.3272   -4.0427   C.3       1 RES1   0.0000
    21 C15      -2.7066    5.5187   -3.0942   C.3       1 RES1   0.0000
    22 C16      -1.4727    5.2311   -2.2358   C.3       1 RES1   0.0000
    23 N2        0.8427    2.3215    0.2574   N.ar      1 RES1   0.0000
    24 C17       1.8147    2.5033    1.1636   C.ar      1 RES1   0.0000
    25 C18       2.3564    1.3432    1.8453   C.ar      1 RES1   0.0000
    26 N3        1.8909    0.1292    1.5173   N.ar      1 RES1   0.0000
    27 N4        1.9932   -3.4379    2.0433   N.am      1 RES1   0.0000
    28 C19       2.8989   -3.9114    3.0824   C.3       1 RES1   0.0000
    29 C20       2.6073   -5.4084    3.1991   C.3       1 RES1   0.0000
    30 C21       2.2275   -5.7732    1.7699   C.3       1 RES1   0.0000
    31 C22       1.3631   -4.5815    1.3779   C.3       1 RES1   0.0000
    32 H1        3.7875   -1.7417    3.5751   H         1 RES1   0.0000
    33 H2        4.6299    2.9462    3.8348   H         1 RES1   0.0000
    34 H3        3.7295    4.9094    2.6555   H         1 RES1   0.0000
    35 H4        0.4357    5.5074   -0.7547   H         1 RES1   0.0000
    36 H5       -3.2607    2.8511   -2.5382   H         1 RES1   0.0000
    37 H6       -1.9196    2.3216   -3.5726   H         1 RES1   0.0000
    38 H7       -3.6918    4.1766   -4.5169   H         1 RES1   0.0000
    39 H8       -1.9610    4.4437   -4.8124   H         1 RES1   0.0000
    40 H9       -3.6089    5.5215   -2.4813   H         1 RES1   0.0000
    41 H10      -2.6252    6.4724   -3.6056   H         1 RES1   0.0000
    42 H11      -1.5630    5.6788   -1.2480   H         1 RES1   0.0000
    43 H12      -0.5717    5.5966   -2.7388   H         1 RES1   0.0000
    44 H13       2.7214   -3.4014    4.0275   H         1 RES1   0.0000
    45 H14       3.9319   -3.7598    2.7534   H         1 RES1   0.0000
    46 H15       1.7665   -5.5902    3.8707   H         1 RES1   0.0000
    47 H16       3.4733   -5.9521    3.5647   H         1 RES1   0.0000
    48 H17       1.6791   -6.7087    1.7019   H         1 RES1   0.0000
    49 H18       3.1218   -5.8297    1.1462   H         1 RES1   0.0000
    50 H19       0.3443   -4.6945    1.7670   H         1 RES1   0.0000
    51 H20       1.3117   -4.3904    0.3061   H         1 RES1   0.0000
    52 O3       -0.8183   -0.3484    2.3005   O.2       1 RES1   0.0000
    53 C23      -1.9419   -0.8449    2.5666   C.2       1 RES1   0.0000
    54 C24      -2.7788   -1.3335    1.4093   C.ar      1 RES1   0.0000
    55 C25      -4.0702   -1.8638    1.4949   C.ar      1 RES1   0.0000
    56 C26      -4.7078   -2.2713    0.3343   C.ar      1 RES1   0.0000
    57 Cl3      -6.2758   -2.9233    0.4181   Cl        1 RES1   0.0000
    58 C27      -4.0511   -2.1383   -0.9143   C.ar      1 RES1   0.0000
    59 C28      -4.6381   -2.5439   -2.1423   C.ar      1 RES1   0.0000
    60 C29      -3.9830   -2.3804   -3.3172   C.ar      1 RES1   0.0000
    61 C30      -2.6881   -1.7981   -3.3603   C.ar      1 RES1   0.0000
    62 C31      -1.9628   -1.6081   -4.5622   C.ar      1 RES1   0.0000
    63 Cl4      -2.6157   -2.1178   -6.0475   Cl        1 RES1   0.0000
    64 C32      -0.7185   -1.0005   -4.5246   C.ar      1 RES1   0.0000
    65 C33      -0.1682   -0.6425   -3.2884   C.ar      1 RES1   0.0000
    66 C34       1.1679    0.0221   -3.0501   C.2       1 RES1   0.0000
    67 O4        1.5223    0.1908   -1.8581   O.2       1 RES1   0.0000
    68 N5        1.9683    0.4496   -4.0179   N.am      1 RES1   0.0000
    69 C35       3.2540    1.0369   -3.6314   C.3       1 RES1   0.0000
    70 C36       4.1183    0.9135   -4.8793   C.3       1 RES1   0.0000
    71 C37       3.0912    1.1540   -5.9776   C.3       1 RES1   0.0000
    72 C38       1.8843    0.3612   -5.4705   C.3       1 RES1   0.0000
    73 N6       -0.8161   -0.8798   -2.1466   N.ar      1 RES1   0.0000
    74 C39      -2.0501   -1.4019   -2.1608   C.ar      1 RES1   0.0000
    75 C40      -2.7541   -1.5694   -0.9027   C.ar      1 RES1   0.0000
    76 N7       -2.1582   -1.1775    0.2352   N.ar      1 RES1   0.0000
    77 N8       -2.3234   -0.8646    3.8361   N.am      1 RES1   0.0000
    78 C41      -3.5184   -1.3672    4.5009   C.3       1 RES1   0.0000
    79 C42      -3.1993   -1.2629    5.9938   C.3       1 RES1   0.0000
    80 C43      -2.2898   -0.0428    6.0505   C.3       1 RES1   0.0000
    81 C44      -1.4165   -0.2727    4.8255   C.3       1 RES1   0.0000
    82 H21      -4.5964   -1.9676    2.4267   H         1 RES1   0.0000
    83 H22      -5.6197   -2.9932   -2.1122   H         1 RES1   0.0000
    84 H23      -4.4333   -2.6939   -4.2472   H         1 RES1   0.0000
    85 H24      -0.2029   -0.8542   -5.4558   H         1 RES1   0.0000
    86 H25       3.6394    0.5107   -2.7585   H         1 RES1   0.0000
    87 H26       3.0927    2.0887   -3.3664   H         1 RES1   0.0000
    88 H27       4.5340   -0.0919   -4.9653   H         1 RES1   0.0000
    89 H28       4.9272    1.6387   -4.8829   H         1 RES1   0.0000
    90 H29       3.4174    0.8030   -6.9522   H         1 RES1   0.0000
    91 H30       2.8578    2.2176   -6.0456   H         1 RES1   0.0000
    92 H31       1.9760   -0.6866   -5.7733   H         1 RES1   0.0000
    93 H32       0.9521    0.7826   -5.8423   H         1 RES1   0.0000
    94 H33      -3.7249   -2.3961    4.2132   H         1 RES1   0.0000
    95 H34      -4.3686   -0.7233    4.2527   H         1 RES1   0.0000
    96 H35      -2.6585   -2.1472    6.3332   H         1 RES1   0.0000
    97 H36      -4.1008   -1.1525    6.5873   H         1 RES1   0.0000
    98 H37      -1.7015    0.0053    6.9619   H         1 RES1   0.0000
    99 H38      -2.8751    0.8739    5.9533   H         1 RES1   0.0000
   100 H39      -0.6194   -0.9925    5.0432   H         1 RES1   0.0000
   101 H40      -0.9630    0.6313    4.4166   H         1 RES1   0.0000
   102 O5       -1.8328    1.8599    1.1532   O.3       1 RES1   0.0000
   103 H41      -2.7529    1.5685    1.1518   H         1 RES1   0.0000
   104 H42      -1.5950    2.0129    2.0772   H         1 RES1   0.0000
@<TRIPOS>BOND
     1     1     2    1
     2     1    17    1
     3     1    23    1
     4     1    26    1
     5     1    52    1
     6     1    67    1
     7     1    73    1
     8     1    76    1
     9     1   102    1
    10     2     3    2
    11     3     4    1
    12     3    27    1
    13     4     5    1
    14     4    26    2
    15     5     6    2
    16     5    32    1
    17     6     7    1
    18     6     8    1
    19     8     9    1
    20     8    25    2
    21     9    10    2
    22     9    33    1
    23    10    11    1
    24    10    34    1
    25    11    12    1
    26    11    24    2
    27    12    13    1
    28    12    14    2
    29    14    15    1
    30    14    35    1
    31    15    16    1
    32    15    23    2
    33    16    17    2
    34    16    18    1
    35    18    19    1
    36    18    22    1
    37    19    20    1
    38    19    36    1
    39    19    37    1
    40    20    21    1
    41    20    38    1
    42    20    39    1
    43    21    22    1
    44    21    40    1
    45    21    41    1
    46    22    42    1
    47    22    43    1
    48    23    24    1
    49    24    25    1
    50    25    26    1
    51    27    28    1
    52    27    31    1
    53    28    29    1
    54    28    44    1
    55    28    45    1
    56    29    30    1
    57    29    46    1
    58    29    47    1
    59    30    31    1
    60    30    48    1
    61    30    49    1
    62    31    50    1
    63    31    51    1
    64    52    53    2
    65    53    54    1
    66    53    77    1
    67    54    55    1
    68    54    76    2
    69    55    56    2
    70    55    82    1
    71    56    57    1
    72    56    58    1
    73    58    59    1
    74    58    75    2
    75    59    60    2
    76    59    83    1
    77    60    61    1
    78    60    84    1
    79    61    62    1
    80    61    74    2
    81    62    63    1
    82    62    64    2
    83    64    65    1
    84    64    85    1
    85    65    66    1
    86    65    73    2
    87    66    67    2
    88    66    68    1
    89    68    69    1
    90    68    72    1
    91    69    70    1
    92    69    86    1
    93    69    87    1
    94    70    71    1
    95    70    88    1
    96    70    89    1
    97    71    72    1
    98    71    90    1
    99    71    91    1
   100    72    92    1
   101    72    93    1
   102    73    74    1
   103    74    75    1
   104    75    76    1
   105    77    78    1
   106    77    81    1
   107    78    79    1
   108    78    94    1
   109    78    95    1
   110    79    80    1
   111    79    96    1
   112    79    97    1
   113    80    81    1
   114    80    98    1
   115    80    99    1
   116    81   100    1
   117    81   101    1
   118   102   103    1
   119   102   104    1
@<TRIPOS>SUBSTRUCTURE
     1 RES1      104 GROUP             0 ****  ****    0  
