@<TRIPOS>MOLECULE
capped_square_antiprismatic_0_nunpairedes_0_charge_3 Charge: 3 Unpaired_Electrons: 0 XTB_Unpaired_Electrons: 0 XTB_Charge: 3
   284   291     1     0     0
SMALL
NoCharges
****
Generated from Architector

@<TRIPOS>ATOM
     1 La1      -0.1220    0.1603    0.0599   La        1 RES1   0.0000
     2 C1        0.0546   -4.9353   -6.7006   C.3       1 RES1   0.0000
     3 C2       -0.4502   -5.9585   -5.6864   C.3       1 RES1   0.0000
     4 C3       -1.9733   -6.1178   -5.6875   C.3       1 RES1   0.0000
     5 C4       -2.7618   -4.8911   -5.2243   C.3       1 RES1   0.0000
     6 C5       -2.6709   -4.6406   -3.7187   C.3       1 RES1   0.0000
     7 C6       -3.5071   -3.4284   -3.3225   C.3       1 RES1   0.0000
     8 C7       -3.3111   -3.0060   -1.8668   C.3       1 RES1   0.0000
     9 C8       -4.2867   -1.8853   -1.4997   C.3       1 RES1   0.0000
    10 P1       -3.5363   -0.2500   -1.0875   P.3       1 RES1   0.0000
    11 O1       -2.0790   -0.1092   -1.4257   O.2       1 RES1   0.0000
    12 C9       -3.8533   -0.0817    0.7332   C.3       1 RES1   0.0000
    13 C10      -3.2005    1.1790    1.2425   C.2       1 RES1   0.0000
    14 O2       -2.0524    1.4735    0.8469   O.2       1 RES1   0.0000
    15 N1       -3.8588    1.9496    2.1101   N.am      1 RES1   0.0000
    16 C11      -3.1671    3.0995    2.6826   C.3       1 RES1   0.0000
    17 C12      -3.2773    4.4060    1.8772   C.3       1 RES1   0.0000
    18 C13      -2.6136    5.5053    2.7048   C.3       1 RES1   0.0000
    19 C14      -4.7110    4.8055    1.5373   C.3       1 RES1   0.0000
    20 C15      -5.2774    1.8028    2.4280   C.3       1 RES1   0.0000
    21 C16      -5.6602    0.7072    3.4394   C.3       1 RES1   0.0000
    22 C17      -7.1844    0.6764    3.5512   C.3       1 RES1   0.0000
    23 C18      -5.0436    0.9730    4.8084   C.3       1 RES1   0.0000
    24 C19      -4.6111    1.0579   -1.7528   C.ar      1 RES1   0.0000
    25 C20      -5.8301    0.8073   -2.3665   C.ar      1 RES1   0.0000
    26 C21      -6.6599    1.8557   -2.7231   C.ar      1 RES1   0.0000
    27 C22      -6.2918    3.1599   -2.4430   C.ar      1 RES1   0.0000
    28 C23      -5.0770    3.4186   -1.8280   C.ar      1 RES1   0.0000
    29 C24      -4.2403    2.3718   -1.4894   C.ar      1 RES1   0.0000
    30 H1        1.1432   -4.9179   -6.7118   H         1 RES1   0.0000
    31 H2       -0.2997   -3.9325   -6.4722   H         1 RES1   0.0000
    32 H3       -0.2870   -5.1973   -7.6992   H         1 RES1   0.0000
    33 H4       -0.0990   -5.6963   -4.6832   H         1 RES1   0.0000
    34 H5       -0.0126   -6.9279   -5.9332   H         1 RES1   0.0000
    35 H6       -2.2870   -6.3723   -6.7013   H         1 RES1   0.0000
    36 H7       -2.2363   -6.9600   -5.0444   H         1 RES1   0.0000
    37 H8       -3.8119   -5.0411   -5.4819   H         1 RES1   0.0000
    38 H9       -2.4255   -4.0076   -5.7715   H         1 RES1   0.0000
    39 H10      -1.6318   -4.4814   -3.4213   H         1 RES1   0.0000
    40 H11      -3.0289   -5.5243   -3.1870   H         1 RES1   0.0000
    41 H12      -4.5589   -3.6650   -3.4957   H         1 RES1   0.0000
    42 H13      -3.2476   -2.5854   -3.9653   H         1 RES1   0.0000
    43 H14      -2.2846   -2.6569   -1.7309   H         1 RES1   0.0000
    44 H15      -3.4828   -3.8679   -1.2177   H         1 RES1   0.0000
    45 H16      -4.9272   -2.1785   -0.6676   H         1 RES1   0.0000
    46 H17      -4.9440   -1.7156   -2.3506   H         1 RES1   0.0000
    47 H18      -3.3774   -0.9414    1.2155   H         1 RES1   0.0000
    48 H19      -4.9261   -0.1098    0.9064   H         1 RES1   0.0000
    49 H20      -2.1055    2.8465    2.7664   H         1 RES1   0.0000
    50 H21      -3.5630    3.2582    3.6860   H         1 RES1   0.0000
    51 H22      -2.7249    4.2800    0.9410   H         1 RES1   0.0000
    52 H23      -3.1961    5.7016    3.6018   H         1 RES1   0.0000
    53 H24      -2.5368    6.4296    2.1384   H         1 RES1   0.0000
    54 H25      -1.6177    5.1984    3.0113   H         1 RES1   0.0000
    55 H26      -5.3018    4.9463    2.4401   H         1 RES1   0.0000
    56 H27      -5.1975    4.0663    0.9048   H         1 RES1   0.0000
    57 H28      -4.7041    5.7524    1.0017   H         1 RES1   0.0000
    58 H29      -5.8326    1.6586    1.4952   H         1 RES1   0.0000
    59 H30      -5.6038    2.7529    2.8482   H         1 RES1   0.0000
    60 H31      -5.3180   -0.2699    3.0848   H         1 RES1   0.0000
    61 H32      -7.5624    1.6360    3.8962   H         1 RES1   0.0000
    62 H33      -7.4899   -0.0818    4.2674   H         1 RES1   0.0000
    63 H34      -7.6491    0.4494    2.5938   H         1 RES1   0.0000
    64 H35      -5.3631    1.9405    5.1872   H         1 RES1   0.0000
    65 H36      -3.9599    0.9524    4.7526   H         1 RES1   0.0000
    66 H37      -5.3636    0.2146    5.5176   H         1 RES1   0.0000
    67 H38      -6.1494   -0.1990   -2.5771   H         1 RES1   0.0000
    68 H39      -7.5959    1.6458   -3.2140   H         1 RES1   0.0000
    69 H40      -6.9515    3.9713   -2.7001   H         1 RES1   0.0000
    70 H41      -4.7975    4.4363   -1.6066   H         1 RES1   0.0000
    71 H42      -3.2899    2.5437   -1.0095   H         1 RES1   0.0000
    72 C25      -4.9774    0.7291   -6.0424   C.3       1 RES1   0.0000
    73 C26      -3.8469    1.3854   -5.2584   C.3       1 RES1   0.0000
    74 C27      -2.8032    0.3809   -4.7695   C.3       1 RES1   0.0000
    75 C28      -2.0385   -0.2636   -5.9314   C.3       1 RES1   0.0000
    76 C29      -0.6104   -0.7066   -5.5980   C.3       1 RES1   0.0000
    77 C30      -0.4880   -1.6916   -4.4325   C.3       1 RES1   0.0000
    78 C31       0.9768   -2.0405   -4.1613   C.3       1 RES1   0.0000
    79 C32       1.1582   -3.2696   -3.2760   C.3       1 RES1   0.0000
    80 P2        1.0614   -3.0019   -1.4612   P.3       1 RES1   0.0000
    81 O3       -0.0159   -2.0204   -1.1160   O.2       1 RES1   0.0000
    82 C33       2.6851   -2.5489   -0.6756   C.3       1 RES1   0.0000
    83 C34       2.4163   -2.5916    0.8089   C.2       1 RES1   0.0000
    84 O4        1.4101   -1.9856    1.2431   O.2       1 RES1   0.0000
    85 N2        3.2098   -3.2932    1.6237   N.am      1 RES1   0.0000
    86 C35       2.8268   -3.4804    3.0204   C.3       1 RES1   0.0000
    87 C36       1.8312   -4.6226    3.2751   C.3       1 RES1   0.0000
    88 C37       1.6787   -4.7526    4.7896   C.3       1 RES1   0.0000
    89 C38       2.3078   -5.9495    2.6948   C.3       1 RES1   0.0000
    90 C39       4.5334   -3.8116    1.3042   C.3       1 RES1   0.0000
    91 C40       5.6527   -2.7605    1.4584   C.3       1 RES1   0.0000
    92 C41       7.0042   -3.4601    1.3540   C.3       1 RES1   0.0000
    93 C42       5.5948   -2.0108    2.7888   C.3       1 RES1   0.0000
    94 C43       0.7940   -4.6974   -0.8720   C.ar      1 RES1   0.0000
    95 C44      -0.4735   -5.1316   -0.5202   C.ar      1 RES1   0.0000
    96 C45      -0.6965   -6.4596   -0.2062   C.ar      1 RES1   0.0000
    97 C46       0.3549   -7.3600   -0.2467   C.ar      1 RES1   0.0000
    98 C47       1.6199   -6.9412   -0.6193   C.ar      1 RES1   0.0000
    99 C48       1.8395   -5.6148   -0.9415   C.ar      1 RES1   0.0000
   100 H43      -5.7393    1.4653   -6.2882   H         1 RES1   0.0000
   101 H44      -5.4433   -0.0632   -5.4588   H         1 RES1   0.0000
   102 H45      -4.6075    0.3055   -6.9728   H         1 RES1   0.0000
   103 H46      -4.2659    1.9112   -4.3983   H         1 RES1   0.0000
   104 H47      -3.3636    2.1281   -5.8969   H         1 RES1   0.0000
   105 H48      -3.3038   -0.3843   -4.1716   H         1 RES1   0.0000
   106 H49      -2.1129    0.8900   -4.0927   H         1 RES1   0.0000
   107 H50      -1.9620    0.4641   -6.7445   H         1 RES1   0.0000
   108 H51      -2.6000   -1.1180   -6.3114   H         1 RES1   0.0000
   109 H52      -0.0081    0.1812   -5.3968   H         1 RES1   0.0000
   110 H53      -0.1855   -1.1707   -6.4924   H         1 RES1   0.0000
   111 H54      -1.0242   -2.5992   -4.7013   H         1 RES1   0.0000
   112 H55      -0.9466   -1.2857   -3.5276   H         1 RES1   0.0000
   113 H56       1.4692   -1.1888   -3.6907   H         1 RES1   0.0000
   114 H57       1.4688   -2.2408   -5.1162   H         1 RES1   0.0000
   115 H58       2.0847   -3.7940   -3.5030   H         1 RES1   0.0000
   116 H59       0.3469   -3.9765   -3.4665   H         1 RES1   0.0000
   117 H60       2.9074   -1.5244   -0.9778   H         1 RES1   0.0000
   118 H61       3.4771   -3.2119   -1.0019   H         1 RES1   0.0000
   119 H62       2.4075   -2.5479    3.3965   H         1 RES1   0.0000
   120 H63       3.7284   -3.6904    3.5892   H         1 RES1   0.0000
   121 H64       0.8672   -4.3713    2.8187   H         1 RES1   0.0000
   122 H65       2.6179   -5.0844    5.2245   H         1 RES1   0.0000
   123 H66       0.9158   -5.4807    5.0459   H         1 RES1   0.0000
   124 H67       1.4130   -3.8040    5.2455   H         1 RES1   0.0000
   125 H68       3.2410   -6.2567    3.1600   H         1 RES1   0.0000
   126 H69       2.4486   -5.8895    1.6192   H         1 RES1   0.0000
   127 H70       1.5718   -6.7244    2.8936   H         1 RES1   0.0000
   128 H71       4.5590   -4.2262    0.2965   H         1 RES1   0.0000
   129 H72       4.7207   -4.6374    1.9908   H         1 RES1   0.0000
   130 H73       5.5551   -2.0329    0.6445   H         1 RES1   0.0000
   131 H74       7.1579   -4.1067    2.2139   H         1 RES1   0.0000
   132 H75       7.7999   -2.7204    1.3366   H         1 RES1   0.0000
   133 H76       7.0708   -4.0702    0.4599   H         1 RES1   0.0000
   134 H77       5.7502   -2.6973    3.6183   H         1 RES1   0.0000
   135 H78       4.6442   -1.5002    2.9269   H         1 RES1   0.0000
   136 H79       6.3892   -1.2681    2.8203   H         1 RES1   0.0000
   137 H80      -1.2882   -4.4236   -0.5339   H         1 RES1   0.0000
   138 H81      -1.6885   -6.7870    0.0526   H         1 RES1   0.0000
   139 H82       0.1864   -8.3913    0.0053   H         1 RES1   0.0000
   140 H83       2.4322   -7.6493   -0.6662   H         1 RES1   0.0000
   141 H84       2.8195   -5.2994   -1.2661   H         1 RES1   0.0000
   142 C49      -6.0742   -3.3934    6.3303   C.3       1 RES1   0.0000
   143 C50      -6.3090   -3.0708    4.8571   C.3       1 RES1   0.0000
   144 C51      -5.3005   -3.6921    3.8868   C.3       1 RES1   0.0000
   145 C52      -3.9168   -3.0334    3.8591   C.3       1 RES1   0.0000
   146 C53      -3.0172   -3.4649    5.0178   C.3       1 RES1   0.0000
   147 C54      -1.5425   -3.1407    4.7884   C.3       1 RES1   0.0000
   148 C55      -1.2545   -1.6379    4.7353   C.3       1 RES1   0.0000
   149 C56       0.2319   -1.3753    4.4798   C.3       1 RES1   0.0000
   150 P3        0.4920    0.2292    3.6172   P.3       1 RES1   0.0000
   151 O5       -0.3814    0.1988    2.4055   O.2       1 RES1   0.0000
   152 C57       2.2993    0.3457    3.1581   C.3       1 RES1   0.0000
   153 C58       2.4438    1.4701    2.1586   C.2       1 RES1   0.0000
   154 O6        1.6358    1.5494    1.2228   O.2       1 RES1   0.0000
   155 N3        3.4417    2.3638    2.3540   N.am      1 RES1   0.0000
   156 C59       3.3676    3.5868    1.5511   C.3       1 RES1   0.0000
   157 C60       2.3992    4.6763    2.0447   C.3       1 RES1   0.0000
   158 C61       0.9858    4.1754    2.3114   C.3       1 RES1   0.0000
   159 C62       2.8970    5.4486    3.2635   C.3       1 RES1   0.0000
   160 C63       4.7927    1.8412    2.6264   C.3       1 RES1   0.0000
   161 C64       5.5877    2.2418    3.8877   C.3       1 RES1   0.0000
   162 C65       5.8314    3.7387    4.0402   C.3       1 RES1   0.0000
   163 C66       5.0105    1.6537    5.1733   C.3       1 RES1   0.0000
   164 C67       0.0939    1.5981    4.7403   C.ar      1 RES1   0.0000
   165 C68       1.0301    2.4980    5.2310   C.ar      1 RES1   0.0000
   166 C69       0.6357    3.5163    6.0831   C.ar      1 RES1   0.0000
   167 C70      -0.6877    3.6275    6.4718   C.ar      1 RES1   0.0000
   168 C71      -1.6218    2.7141    6.0088   C.ar      1 RES1   0.0000
   169 C72      -1.2303    1.7142    5.1373   C.ar      1 RES1   0.0000
   170 H85      -6.9632   -3.1467    6.9070   H         1 RES1   0.0000
   171 H86      -5.2451   -2.8225    6.7424   H         1 RES1   0.0000
   172 H87      -5.8708   -4.4540    6.4626   H         1 RES1   0.0000
   173 H88      -6.3229   -1.9872    4.7200   H         1 RES1   0.0000
   174 H89      -7.2970   -3.4462    4.5833   H         1 RES1   0.0000
   175 H90      -5.7285   -3.6335    2.8820   H         1 RES1   0.0000
   176 H91      -5.1886   -4.7520    4.1217   H         1 RES1   0.0000
   177 H92      -4.0338   -1.9472    3.8676   H         1 RES1   0.0000
   178 H93      -3.4297   -3.3065    2.9166   H         1 RES1   0.0000
   179 H94      -3.1081   -4.5447    5.1492   H         1 RES1   0.0000
   180 H95      -3.3429   -2.9912    5.9418   H         1 RES1   0.0000
   181 H96      -1.2230   -3.6170    3.8563   H         1 RES1   0.0000
   182 H97      -0.9618   -3.5825    5.5991   H         1 RES1   0.0000
   183 H98      -1.5622   -1.1845    5.6786   H         1 RES1   0.0000
   184 H99      -1.8342   -1.1828    3.9277   H         1 RES1   0.0000
   185 H100      0.5743   -2.1165    3.7549   H         1 RES1   0.0000
   186 H101      0.8142   -1.4611    5.3951   H         1 RES1   0.0000
   187 H102      2.5041   -0.5993    2.6526   H         1 RES1   0.0000
   188 H103      2.9402    0.4680    4.0264   H         1 RES1   0.0000
   189 H104      3.0478    3.2981    0.5457   H         1 RES1   0.0000
   190 H105      4.3661    4.0170    1.4911   H         1 RES1   0.0000
   191 H106      2.3531    5.3875    1.2130   H         1 RES1   0.0000
   192 H107      0.9449    3.5880    3.2229   H         1 RES1   0.0000
   193 H108      0.6085    3.5697    1.4939   H         1 RES1   0.0000
   194 H109      0.3394    5.0378    2.4393   H         1 RES1   0.0000
   195 H110      2.9152    4.8200    4.1519   H         1 RES1   0.0000
   196 H111      2.2245    6.2801    3.4641   H         1 RES1   0.0000
   197 H112      3.8843    5.8673    3.0841   H         1 RES1   0.0000
   198 H113      5.4006    2.1150    1.7564   H         1 RES1   0.0000
   199 H114      4.7273    0.7523    2.6270   H         1 RES1   0.0000
   200 H115      6.5657    1.7674    3.7326   H         1 RES1   0.0000
   201 H116      4.9303    4.2526    4.3518   H         1 RES1   0.0000
   202 H117      6.1936    4.1770    3.1127   H         1 RES1   0.0000
   203 H118      6.5849    3.9015    4.8063   H         1 RES1   0.0000
   204 H119      4.0439    2.0896    5.4122   H         1 RES1   0.0000
   205 H120      5.6745    1.8721    6.0052   H         1 RES1   0.0000
   206 H121      4.9225    0.5701    5.1006   H         1 RES1   0.0000
   207 H122      2.0649    2.4110    4.9421   H         1 RES1   0.0000
   208 H123      1.3713    4.2166    6.4492   H         1 RES1   0.0000
   209 H124     -0.9876    4.4198    7.1390   H         1 RES1   0.0000
   210 H125     -2.6450    2.7749    6.3399   H         1 RES1   0.0000
   211 H126     -1.9378    1.0023    4.7478   H         1 RES1   0.0000
   212 C73       8.9875   -2.9155   -3.2206   C.3       1 RES1   0.0000
   213 C74       8.4435   -3.7939   -2.1000   C.3       1 RES1   0.0000
   214 C75       7.0679   -4.4001   -2.3841   C.3       1 RES1   0.0000
   215 C76       5.9086   -3.3958   -2.4069   C.3       1 RES1   0.0000
   216 C77       5.6358   -2.8220   -3.7964   C.3       1 RES1   0.0000
   217 C78       4.4333   -1.8768   -3.8557   C.3       1 RES1   0.0000
   218 C79       4.6715   -0.4742   -3.2929   C.3       1 RES1   0.0000
   219 C80       3.5653    0.4983   -3.7369   C.3       1 RES1   0.0000
   220 P4        2.4678    1.2181   -2.4257   P.3       1 RES1   0.0000
   221 O7        2.0677    0.2843   -1.3154   O.2       1 RES1   0.0000
   222 C81       0.9704    1.6804   -3.3904   C.3       1 RES1   0.0000
   223 C82       0.0887    2.6162   -2.5980   C.2       1 RES1   0.0000
   224 O8       -0.0525    2.3890   -1.3826   O.2       1 RES1   0.0000
   225 N4       -0.4908    3.6306   -3.2613   N.am      1 RES1   0.0000
   226 C83      -1.3778    4.5141   -2.4923   C.3       1 RES1   0.0000
   227 C84      -0.7781    5.7243   -1.7492   C.3       1 RES1   0.0000
   228 C85       0.0161    5.3107   -0.5215   C.3       1 RES1   0.0000
   229 C86       0.0446    6.6707   -2.6118   C.3       1 RES1   0.0000
   230 C87      -0.8054    3.4622   -4.6966   C.3       1 RES1   0.0000
   231 C88      -0.0248    4.1622   -5.8348   C.3       1 RES1   0.0000
   232 C89      -0.0983    5.6863   -5.8100   C.3       1 RES1   0.0000
   233 C90       1.4253    3.7159   -6.0217   C.3       1 RES1   0.0000
   234 C91       3.4493    2.6738   -1.9513   C.ar      1 RES1   0.0000
   235 C92       3.1494    3.9580   -2.3823   C.ar      1 RES1   0.0000
   236 C93       4.0633    4.9828   -2.2028   C.ar      1 RES1   0.0000
   237 C94       5.2910    4.7232   -1.6191   C.ar      1 RES1   0.0000
   238 C95       5.5917    3.4457   -1.1727   C.ar      1 RES1   0.0000
   239 C96       4.6742    2.4258   -1.3384   C.ar      1 RES1   0.0000
   240 H127     10.0345   -2.6877   -3.0334   H         1 RES1   0.0000
   241 H128      8.4486   -1.9712   -3.2785   H         1 RES1   0.0000
   242 H129      8.9171   -3.4282   -4.1780   H         1 RES1   0.0000
   243 H130      8.4069   -3.2099   -1.1776   H         1 RES1   0.0000
   244 H131      9.1388   -4.6192   -1.9371   H         1 RES1   0.0000
   245 H132      6.8680   -5.1544   -1.6177   H         1 RES1   0.0000
   246 H133      7.1014   -4.9251   -3.3388   H         1 RES1   0.0000
   247 H134      6.1132   -2.5885   -1.7006   H         1 RES1   0.0000
   248 H135      5.0036   -3.9188   -2.0766   H         1 RES1   0.0000
   249 H136      5.4432   -3.6567   -4.4759   H         1 RES1   0.0000
   250 H137      6.5193   -2.3023   -4.1604   H         1 RES1   0.0000
   251 H138      3.6007   -2.3228   -3.3137   H         1 RES1   0.0000
   252 H139      4.1441   -1.7783   -4.9037   H         1 RES1   0.0000
   253 H140      5.6312   -0.1053   -3.6560   H         1 RES1   0.0000
   254 H141      4.7244   -0.5193   -2.2023   H         1 RES1   0.0000
   255 H142      2.9313    0.0251   -4.4874   H         1 RES1   0.0000
   256 H143      4.0086    1.3658   -4.2283   H         1 RES1   0.0000
   257 H144      0.4196    0.7374   -3.4815   H         1 RES1   0.0000
   258 H145      1.2608    2.0547   -4.3651   H         1 RES1   0.0000
   259 H146     -1.8547    3.8797   -1.7389   H         1 RES1   0.0000
   260 H147     -2.1404    4.8896   -3.1716   H         1 RES1   0.0000
   261 H148     -1.6522    6.2840   -1.3930   H         1 RES1   0.0000
   262 H149      0.9290    4.7854   -0.7913   H         1 RES1   0.0000
   263 H150     -0.5895    4.6640    0.1037   H         1 RES1   0.0000
   264 H151      0.2830    6.1946    0.0522   H         1 RES1   0.0000
   265 H152      0.9281    6.1750   -3.0061   H         1 RES1   0.0000
   266 H153      0.3810    7.5117   -2.0101   H         1 RES1   0.0000
   267 H154     -0.5497    7.0724   -3.4254   H         1 RES1   0.0000
   268 H155     -1.8443    3.7799   -4.8049   H         1 RES1   0.0000
   269 H156     -0.7972    2.3944   -4.9181   H         1 RES1   0.0000
   270 H157     -0.5655    3.8309   -6.7311   H         1 RES1   0.0000
   271 H158      0.6496    6.1050   -5.1447   H         1 RES1   0.0000
   272 H159     -1.0879    6.0284   -5.5148   H         1 RES1   0.0000
   273 H160      0.1047    6.0688   -6.8070   H         1 RES1   0.0000
   274 H161      2.0406    3.9364   -5.1515   H         1 RES1   0.0000
   275 H162      1.4874    2.6570   -6.2742   H         1 RES1   0.0000
   276 H163      1.8485    4.2662   -6.8583   H         1 RES1   0.0000
   277 H164      2.2051    4.1589   -2.8623   H         1 RES1   0.0000
   278 H165      3.8236    5.9788   -2.5425   H         1 RES1   0.0000
   279 H166      6.0160    5.5139   -1.5212   H         1 RES1   0.0000
   280 H167      6.5502    3.2491   -0.7193   H         1 RES1   0.0000
   281 H168      4.8977    1.4253   -1.0021   H         1 RES1   0.0000
   282 O9       -1.5671   -2.0752    1.1930   O.3       1 RES1   0.0000
   283 H169     -1.0502   -2.2613    1.9887   H         1 RES1   0.0000
   284 H170     -1.3605   -2.7944    0.5756   H         1 RES1   0.0000
@<TRIPOS>BOND
     1     1    11    1
     2     1    14    1
     3     1    81    1
     4     1    84    1
     5     1   151    1
     6     1   154    1
     7     1   221    1
     8     1   224    1
     9     1   282    1
    10     2     3    1
    11     2    30    1
    12     2    31    1
    13     2    32    1
    14     3     4    1
    15     3    33    1
    16     3    34    1
    17     4     5    1
    18     4    35    1
    19     4    36    1
    20     5     6    1
    21     5    37    1
    22     5    38    1
    23     6     7    1
    24     6    39    1
    25     6    40    1
    26     7     8    1
    27     7    41    1
    28     7    42    1
    29     8     9    1
    30     8    43    1
    31     8    44    1
    32     9    10    1
    33     9    45    1
    34     9    46    1
    35    10    11    2
    36    10    12    1
    37    10    24    1
    38    12    13    1
    39    12    47    1
    40    12    48    1
    41    13    14    2
    42    13    15    1
    43    15    16    1
    44    15    20    1
    45    16    17    1
    46    16    49    1
    47    16    50    1
    48    17    18    1
    49    17    19    1
    50    17    51    1
    51    18    52    1
    52    18    53    1
    53    18    54    1
    54    19    55    1
    55    19    56    1
    56    19    57    1
    57    20    21    1
    58    20    58    1
    59    20    59    1
    60    21    22    1
    61    21    23    1
    62    21    60    1
    63    22    61    1
    64    22    62    1
    65    22    63    1
    66    23    64    1
    67    23    65    1
    68    23    66    1
    69    24    25    1
    70    24    29    2
    71    25    26    2
    72    25    67    1
    73    26    27    1
    74    26    68    1
    75    27    28    2
    76    27    69    1
    77    28    29    1
    78    28    70    1
    79    29    71    1
    80    72    73    1
    81    72   100    1
    82    72   101    1
    83    72   102    1
    84    73    74    1
    85    73   103    1
    86    73   104    1
    87    74    75    1
    88    74   105    1
    89    74   106    1
    90    75    76    1
    91    75   107    1
    92    75   108    1
    93    76    77    1
    94    76   109    1
    95    76   110    1
    96    77    78    1
    97    77   111    1
    98    77   112    1
    99    78    79    1
   100    78   113    1
   101    78   114    1
   102    79    80    1
   103    79   115    1
   104    79   116    1
   105    80    81    2
   106    80    82    1
   107    80    94    1
   108    82    83    1
   109    82   117    1
   110    82   118    1
   111    83    84    2
   112    83    85    1
   113    85    86    1
   114    85    90    1
   115    86    87    1
   116    86   119    1
   117    86   120    1
   118    87    88    1
   119    87    89    1
   120    87   121    1
   121    88   122    1
   122    88   123    1
   123    88   124    1
   124    89   125    1
   125    89   126    1
   126    89   127    1
   127    90    91    1
   128    90   128    1
   129    90   129    1
   130    91    92    1
   131    91    93    1
   132    91   130    1
   133    92   131    1
   134    92   132    1
   135    92   133    1
   136    93   134    1
   137    93   135    1
   138    93   136    1
   139    94    95    1
   140    94    99    2
   141    95    96    2
   142    95   137    1
   143    96    97    1
   144    96   138    1
   145    97    98    2
   146    97   139    1
   147    98    99    1
   148    98   140    1
   149    99   141    1
   150   142   143    1
   151   142   170    1
   152   142   171    1
   153   142   172    1
   154   143   144    1
   155   143   173    1
   156   143   174    1
   157   144   145    1
   158   144   175    1
   159   144   176    1
   160   145   146    1
   161   145   177    1
   162   145   178    1
   163   146   147    1
   164   146   179    1
   165   146   180    1
   166   147   148    1
   167   147   181    1
   168   147   182    1
   169   148   149    1
   170   148   183    1
   171   148   184    1
   172   149   150    1
   173   149   185    1
   174   149   186    1
   175   150   151    2
   176   150   152    1
   177   150   164    1
   178   152   153    1
   179   152   187    1
   180   152   188    1
   181   153   154    2
   182   153   155    1
   183   155   156    1
   184   155   160    1
   185   156   157    1
   186   156   189    1
   187   156   190    1
   188   157   158    1
   189   157   159    1
   190   157   191    1
   191   158   192    1
   192   158   193    1
   193   158   194    1
   194   159   195    1
   195   159   196    1
   196   159   197    1
   197   160   161    1
   198   160   198    1
   199   160   199    1
   200   161   162    1
   201   161   163    1
   202   161   200    1
   203   162   201    1
   204   162   202    1
   205   162   203    1
   206   163   204    1
   207   163   205    1
   208   163   206    1
   209   164   165    1
   210   164   169    2
   211   165   166    2
   212   165   207    1
   213   166   167    1
   214   166   208    1
   215   167   168    2
   216   167   209    1
   217   168   169    1
   218   168   210    1
   219   169   211    1
   220   212   213    1
   221   212   240    1
   222   212   241    1
   223   212   242    1
   224   213   214    1
   225   213   243    1
   226   213   244    1
   227   214   215    1
   228   214   245    1
   229   214   246    1
   230   215   216    1
   231   215   247    1
   232   215   248    1
   233   216   217    1
   234   216   249    1
   235   216   250    1
   236   217   218    1
   237   217   251    1
   238   217   252    1
   239   218   219    1
   240   218   253    1
   241   218   254    1
   242   219   220    1
   243   219   255    1
   244   219   256    1
   245   220   221    2
   246   220   222    1
   247   220   234    1
   248   222   223    1
   249   222   257    1
   250   222   258    1
   251   223   224    2
   252   223   225    1
   253   225   226    1
   254   225   230    1
   255   226   227    1
   256   226   259    1
   257   226   260    1
   258   227   228    1
   259   227   229    1
   260   227   261    1
   261   228   262    1
   262   228   263    1
   263   228   264    1
   264   229   265    1
   265   229   266    1
   266   229   267    1
   267   230   231    1
   268   230   268    1
   269   230   269    1
   270   231   232    1
   271   231   233    1
   272   231   270    1
   273   232   271    1
   274   232   272    1
   275   232   273    1
   276   233   274    1
   277   233   275    1
   278   233   276    1
   279   234   235    1
   280   234   239    2
   281   235   236    2
   282   235   277    1
   283   236   237    1
   284   236   278    1
   285   237   238    2
   286   237   279    1
   287   238   239    1
   288   238   280    1
   289   239   281    1
   290   282   283    1
   291   282   284    1
@<TRIPOS>SUBSTRUCTURE
     1 RES1      284 GROUP             0 ****  ****    0  
