@<TRIPOS>MOLECULE
am_c3_9H2O_c0_0_nunpairedes_0_charge_3 Charge: 3 Unpaired_Electrons: 0 XTB_Unpaired_Electrons: 0 XTB_Charge: 3
   343   351     1     0     0
SMALL
NoCharges
****
Generated from Architector

@<TRIPOS>ATOM
     1 La1      -0.3570    0.1021   -0.0078   La        1 RES1   0.0000
     2 C1       -3.9179   -6.3536   -3.0770   C.3       1 RES1   0.0000
     3 C2       -5.4126   -6.6328   -2.9609   C.3       1 RES1   0.0000
     4 C3       -6.2304   -5.4114   -2.5409   C.3       1 RES1   0.0000
     5 C4       -6.2126   -4.2587   -3.5475   C.3       1 RES1   0.0000
     6 C5       -6.9515   -4.6138   -4.8372   C.3       1 RES1   0.0000
     7 C6       -7.2696   -3.4085   -5.7167   C.3       1 RES1   0.0000
     8 C7       -6.0207   -2.7944   -6.3496   C.3       1 RES1   0.0000
     9 C8       -6.3087   -1.5426   -7.1982   C.3       1 RES1   0.0000
    10 C9       -5.8388   -0.2442   -6.5422   C.3       1 RES1   0.0000
    11 C10      -6.7085    0.2047   -5.3653   C.3       1 RES1   0.0000
    12 C11      -5.9502    1.1911   -4.4613   C.3       1 RES1   0.0000
    13 C12      -5.1581    0.3871   -3.4268   C.3       1 RES1   0.0000
    14 N1       -4.0162    1.0334   -2.7670   N.am      1 RES1   0.0000
    15 C13      -3.7215    2.4425   -2.9705   C.3       1 RES1   0.0000
    16 C14      -4.6170    3.3328   -2.1001   C.3       1 RES1   0.0000
    17 C15      -4.1252    3.5612   -0.6594   C.3       1 RES1   0.0000
    18 C16      -4.5884    2.5702    0.4347   C.3       1 RES1   0.0000
    19 C17      -3.4740    1.7005    1.0509   C.3       1 RES1   0.0000
    20 C18      -3.6582    1.3571    2.5439   C.3       1 RES1   0.0000
    21 C19      -2.5683    1.9570    3.4422   C.3       1 RES1   0.0000
    22 C20      -1.1662    1.3397    3.3343   C.3       1 RES1   0.0000
    23 C21      -0.1129    2.3341    3.8285   C.3       1 RES1   0.0000
    24 C22       1.3124    1.7728    3.8596   C.3       1 RES1   0.0000
    25 C23       2.2671    2.3945    2.8345   C.3       1 RES1   0.0000
    26 C24       2.4472    3.9010    2.9976   C.3       1 RES1   0.0000
    27 C25      -3.2378    0.3477   -1.9392   C.2       1 RES1   0.0000
    28 O1       -2.1438    0.7818   -1.5225   O.2       1 RES1   0.0000
    29 C26      -3.7952   -0.9873   -1.4387   C.3       1 RES1   0.0000
    30 O2       -2.9415   -1.5184   -0.4500   O.3       1 RES1   0.0000
    31 C27      -3.6111   -2.0385    0.6909   C.3       1 RES1   0.0000
    32 C28      -4.1745   -3.4549    0.5547   C.3       1 RES1   0.0000
    33 C29      -4.8654   -3.7885    1.8736   C.3       1 RES1   0.0000
    34 C30      -3.9198   -3.6567    3.0684   C.3       1 RES1   0.0000
    35 N2       -2.7856   -2.7734    2.8571   N.am      1 RES1   0.0000
    36 C31      -1.8121   -2.7736    3.9315   C.3       1 RES1   0.0000
    37 C32      -2.2176   -1.9333    5.1443   C.3       1 RES1   0.0000
    38 C33      -0.9711   -1.7424    6.0064   C.3       1 RES1   0.0000
    39 C34      -1.0553   -0.5591    6.9645   C.3       1 RES1   0.0000
    40 C35       0.1722   -0.4867    7.8728   C.3       1 RES1   0.0000
    41 C36       1.4907   -0.2283    7.1493   C.3       1 RES1   0.0000
    42 C37      -2.5769   -1.9998    1.8072   C.2       1 RES1   0.0000
    43 O3       -1.5829   -1.2519    1.6965   O.2       1 RES1   0.0000
    44 H1       -3.3748   -7.2875   -3.2040   H         1 RES1   0.0000
    45 H2       -3.5528   -5.8531   -2.1787   H         1 RES1   0.0000
    46 H3       -3.7101   -5.7259   -3.9413   H         1 RES1   0.0000
    47 H4       -5.5665   -7.4154   -2.2169   H         1 RES1   0.0000
    48 H5       -5.7794   -7.0108   -3.9141   H         1 RES1   0.0000
    49 H6       -5.8640   -5.0585   -1.5695   H         1 RES1   0.0000
    50 H7       -7.2666   -5.7242   -2.3993   H         1 RES1   0.0000
    51 H8       -5.1790   -3.9764   -3.7653   H         1 RES1   0.0000
    52 H9       -6.7003   -3.3950   -3.0850   H         1 RES1   0.0000
    53 H10      -7.8889   -5.0991   -4.5699   H         1 RES1   0.0000
    54 H11      -6.3636   -5.3243   -5.4168   H         1 RES1   0.0000
    55 H12      -7.8133   -2.6650   -5.1287   H         1 RES1   0.0000
    56 H13      -7.9277   -3.7351   -6.5229   H         1 RES1   0.0000
    57 H14      -5.5717   -3.5636   -6.9825   H         1 RES1   0.0000
    58 H15      -5.2909   -2.5504   -5.5694   H         1 RES1   0.0000
    59 H16      -7.3761   -1.4694   -7.4072   H         1 RES1   0.0000
    60 H17      -5.7939   -1.6315   -8.1559   H         1 RES1   0.0000
    61 H18      -5.8206    0.5493   -7.2933   H         1 RES1   0.0000
    62 H19      -4.8094   -0.3891   -6.2081   H         1 RES1   0.0000
    63 H20      -7.0184   -0.6639   -4.7838   H         1 RES1   0.0000
    64 H21      -7.6113    0.6758   -5.7525   H         1 RES1   0.0000
    65 H22      -6.6485    1.8647   -3.9696   H         1 RES1   0.0000
    66 H23      -5.3016    1.7875   -5.0986   H         1 RES1   0.0000
    67 H24      -4.7628   -0.5034   -3.9277   H         1 RES1   0.0000
    68 H25      -5.8701    0.0445   -2.6706   H         1 RES1   0.0000
    69 H26      -3.8332    2.6878   -4.0259   H         1 RES1   0.0000
    70 H27      -2.6773    2.5870   -2.6970   H         1 RES1   0.0000
    71 H28      -5.6260    2.9195   -2.0705   H         1 RES1   0.0000
    72 H29      -4.6762    4.3068   -2.5926   H         1 RES1   0.0000
    73 H30      -4.4883    4.5492   -0.3737   H         1 RES1   0.0000
    74 H31      -3.0339    3.6070   -0.6792   H         1 RES1   0.0000
    75 H32      -5.3732    1.9247    0.0400   H         1 RES1   0.0000
    76 H33      -5.0379    3.1517    1.2402   H         1 RES1   0.0000
    77 H34      -3.3917    0.7658    0.4948   H         1 RES1   0.0000
    78 H35      -2.5312    2.2399    0.9503   H         1 RES1   0.0000
    79 H36      -3.6779    0.2747    2.6946   H         1 RES1   0.0000
    80 H37      -4.6180    1.7405    2.8911   H         1 RES1   0.0000
    81 H38      -2.8983    1.8791    4.4838   H         1 RES1   0.0000
    82 H39      -2.5013    3.0240    3.2219   H         1 RES1   0.0000
    83 H40      -0.9207    1.0551    2.2833   H         1 RES1   0.0000
    84 H41      -1.1126    0.4323    3.9343   H         1 RES1   0.0000
    85 H42      -0.3955    2.6862    4.8216   H         1 RES1   0.0000
    86 H43      -0.1189    3.1863    3.1583   H         1 RES1   0.0000
    87 H44       1.2732    0.6961    3.6839   H         1 RES1   0.0000
    88 H45       1.7487    1.9359    4.8490   H         1 RES1   0.0000
    89 H46       1.9344    2.1519    1.8151   H         1 RES1   0.0000
    90 H47       3.2482    1.9389    2.9835   H         1 RES1   0.0000
    91 H48       3.2869    4.2470    2.3960   H         1 RES1   0.0000
    92 H49       2.6621    4.1381    4.0369   H         1 RES1   0.0000
    93 H50       1.5657    4.4599    2.7014   H         1 RES1   0.0000
    94 H51      -3.9155   -1.6970   -2.2699   H         1 RES1   0.0000
    95 H52      -4.7944   -0.8120   -1.0213   H         1 RES1   0.0000
    96 H53      -4.4358   -1.3605    0.9646   H         1 RES1   0.0000
    97 H54      -3.3652   -4.1551    0.3380   H         1 RES1   0.0000
    98 H55      -4.9038   -3.5050   -0.2561   H         1 RES1   0.0000
    99 H56      -5.2533   -4.8067    1.8556   H         1 RES1   0.0000
   100 H57      -5.7212   -3.1217    2.0053   H         1 RES1   0.0000
   101 H58      -3.5089   -4.6327    3.3443   H         1 RES1   0.0000
   102 H59      -4.4702   -3.2886    3.9413   H         1 RES1   0.0000
   103 H60      -0.8903   -2.3505    3.5156   H         1 RES1   0.0000
   104 H61      -1.6283   -3.8089    4.2365   H         1 RES1   0.0000
   105 H62      -2.9971   -2.4326    5.7280   H         1 RES1   0.0000
   106 H63      -2.6155   -0.9748    4.8029   H         1 RES1   0.0000
   107 H64      -0.1125   -1.5881    5.3439   H         1 RES1   0.0000
   108 H65      -0.7939   -2.6594    6.5697   H         1 RES1   0.0000
   109 H66      -1.9491   -0.6569    7.5854   H         1 RES1   0.0000
   110 H67      -1.1449    0.3680    6.3903   H         1 RES1   0.0000
   111 H68       0.2509   -1.4285    8.4192   H         1 RES1   0.0000
   112 H69       0.0145    0.3149    8.5956   H         1 RES1   0.0000
   113 H70       2.2910   -0.1277    7.8815   H         1 RES1   0.0000
   114 H71       1.4440    0.6941    6.5714   H         1 RES1   0.0000
   115 H72       1.7537   -1.0463    6.4814   H         1 RES1   0.0000
   116 C38      -2.3612   -6.8884    1.1376   C.3       1 RES1   0.0000
   117 C39      -2.0608   -8.0896    2.0250   C.3       1 RES1   0.0000
   118 C40      -0.5635   -8.3414    2.2066   C.3       1 RES1   0.0000
   119 C41       0.1640   -7.3179    3.0872   C.3       1 RES1   0.0000
   120 C42      -0.1728   -7.4611    4.5746   C.3       1 RES1   0.0000
   121 C43       0.7813   -6.6898    5.4908   C.3       1 RES1   0.0000
   122 C44       0.5363   -5.1810    5.4831   C.3       1 RES1   0.0000
   123 C45       1.6126   -4.3955    6.2438   C.3       1 RES1   0.0000
   124 C46       2.5659   -3.6286    5.3272   C.3       1 RES1   0.0000
   125 C47       3.4302   -4.5682    4.4940   C.3       1 RES1   0.0000
   126 C48       4.5101   -3.8782    3.6637   C.3       1 RES1   0.0000
   127 C49       4.0281   -3.3333    2.3162   C.3       1 RES1   0.0000
   128 N3        3.2378   -2.1060    2.3526   N.am      1 RES1   0.0000
   129 C50       3.8423   -0.9967    3.0927   C.3       1 RES1   0.0000
   130 C51       5.2831   -0.6355    2.7367   C.3       1 RES1   0.0000
   131 C52       5.4109    0.3862    1.6164   C.3       1 RES1   0.0000
   132 C53       4.8295   -0.0664    0.2812   C.3       1 RES1   0.0000
   133 C54       4.9007    1.0726   -0.7312   C.3       1 RES1   0.0000
   134 C55       6.3197    1.5409   -1.0867   C.3       1 RES1   0.0000
   135 C56       6.5211    3.0488   -0.9273   C.3       1 RES1   0.0000
   136 C57       5.6840    3.8469   -1.9227   C.3       1 RES1   0.0000
   137 C58       5.9894    5.3459   -1.9113   C.3       1 RES1   0.0000
   138 C59       5.8562    5.9647   -3.3034   C.3       1 RES1   0.0000
   139 C60       4.4094    6.1083   -3.7909   C.3       1 RES1   0.0000
   140 C61       3.7387    7.3773   -3.2793   C.3       1 RES1   0.0000
   141 C62       2.0672   -1.9231    1.7541   C.2       1 RES1   0.0000
   142 O4        1.5756   -0.7913    1.5184   O.2       1 RES1   0.0000
   143 C63       1.1916   -3.1371    1.4460   C.3       1 RES1   0.0000
   144 O5        0.3399   -2.8874    0.3492   O.3       1 RES1   0.0000
   145 C64       0.8162   -3.4225   -0.8899   C.3       1 RES1   0.0000
   146 C65       0.9687   -4.9465   -0.8826   C.3       1 RES1   0.0000
   147 C66       0.9364   -5.4660   -2.3096   C.3       1 RES1   0.0000
   148 C67      -0.3905   -5.1051   -2.9506   C.3       1 RES1   0.0000
   149 N4       -0.7286   -3.7012   -2.7894   N.am      1 RES1   0.0000
   150 C68      -1.7555   -3.1623   -3.6693   C.3       1 RES1   0.0000
   151 C69      -1.1706   -2.0575   -4.5415   C.3       1 RES1   0.0000
   152 C70      -2.0996   -1.5764   -5.6455   C.3       1 RES1   0.0000
   153 C71      -1.2982   -0.8154   -6.7040   C.3       1 RES1   0.0000
   154 C72      -2.1678    0.0360   -7.6300   C.3       1 RES1   0.0000
   155 C73      -2.5196    1.3797   -6.9963   C.3       1 RES1   0.0000
   156 C74      -0.2318   -2.8988   -1.8656   C.2       1 RES1   0.0000
   157 O6       -0.6138   -1.7223   -1.7319   O.2       1 RES1   0.0000
   158 H73      -3.4326   -6.8024    0.9774   H         1 RES1   0.0000
   159 H74      -1.8813   -7.0121    0.1688   H         1 RES1   0.0000
   160 H75      -2.0035   -5.9643    1.5884   H         1 RES1   0.0000
   161 H76      -2.4987   -8.9746    1.5642   H         1 RES1   0.0000
   162 H77      -2.5351   -7.9611    2.9969   H         1 RES1   0.0000
   163 H78      -0.0896   -8.3606    1.2195   H         1 RES1   0.0000
   164 H79      -0.4236   -9.3288    2.6528   H         1 RES1   0.0000
   165 H80      -0.0656   -6.3040    2.7434   H         1 RES1   0.0000
   166 H81       1.2396   -7.4729    2.9614   H         1 RES1   0.0000
   167 H82      -0.1253   -8.5203    4.8369   H         1 RES1   0.0000
   168 H83      -1.1953   -7.1247    4.7603   H         1 RES1   0.0000
   169 H84       1.8115   -6.9060    5.2043   H         1 RES1   0.0000
   170 H85       0.6449   -7.0500    6.5110   H         1 RES1   0.0000
   171 H86      -0.4400   -5.0074    5.9401   H         1 RES1   0.0000
   172 H87       0.4914   -4.8260    4.4505   H         1 RES1   0.0000
   173 H88       2.1895   -5.0875    6.8570   H         1 RES1   0.0000
   174 H89       1.1452   -3.6880    6.9273   H         1 RES1   0.0000
   175 H90       3.2133   -3.0130    5.9531   H         1 RES1   0.0000
   176 H91       1.9890   -2.9625    4.6777   H         1 RES1   0.0000
   177 H92       2.7973   -5.1609    3.8331   H         1 RES1   0.0000
   178 H93       3.9236   -5.2575    5.1787   H         1 RES1   0.0000
   179 H94       5.2778   -4.6144    3.4205   H         1 RES1   0.0000
   180 H95       4.9925   -3.1003    4.2522   H         1 RES1   0.0000
   181 H96       3.4757   -4.1266    1.8209   H         1 RES1   0.0000
   182 H97       4.9054   -3.1206    1.6939   H         1 RES1   0.0000
   183 H98       3.7893   -1.2760    4.1494   H         1 RES1   0.0000
   184 H99       3.1952   -0.1342    2.9414   H         1 RES1   0.0000
   185 H100      5.8526   -1.5189    2.4674   H         1 RES1   0.0000
   186 H101      5.7419   -0.2169    3.6333   H         1 RES1   0.0000
   187 H102      6.4676    0.6139    1.4909   H         1 RES1   0.0000
   188 H103      4.9181    1.3140    1.9118   H         1 RES1   0.0000
   189 H104      3.7808   -0.3307    0.4069   H         1 RES1   0.0000
   190 H105      5.3573   -0.9443   -0.0883   H         1 RES1   0.0000
   191 H106      4.3503    1.9067   -0.2876   H         1 RES1   0.0000
   192 H107      4.3795    0.7681   -1.6447   H         1 RES1   0.0000
   193 H108      6.5373    1.2822   -2.1224   H         1 RES1   0.0000
   194 H109      7.0638    1.0297   -0.4783   H         1 RES1   0.0000
   195 H110      7.5731    3.2773   -1.1114   H         1 RES1   0.0000
   196 H111      6.2894    3.3617    0.0941   H         1 RES1   0.0000
   197 H112      4.6209    3.6812   -1.7212   H         1 RES1   0.0000
   198 H113      5.8831    3.4516   -2.9237   H         1 RES1   0.0000
   199 H114      7.0134    5.4951   -1.5706   H         1 RES1   0.0000
   200 H115      5.3351    5.8585   -1.2028   H         1 RES1   0.0000
   201 H116      6.4181    5.3371   -4.0007   H         1 RES1   0.0000
   202 H117      6.3188    6.9522   -3.3054   H         1 RES1   0.0000
   203 H118      3.8292    5.2306   -3.4845   H         1 RES1   0.0000
   204 H119      4.4025    6.1333   -4.8815   H         1 RES1   0.0000
   205 H120      3.6950    7.3841   -2.1934   H         1 RES1   0.0000
   206 H121      2.7301    7.4698   -3.6784   H         1 RES1   0.0000
   207 H122      4.3024    8.2510   -3.5951   H         1 RES1   0.0000
   208 H123      0.5454   -3.2546    2.3266   H         1 RES1   0.0000
   209 H124      1.7291   -4.0698    1.3054   H         1 RES1   0.0000
   210 H125      1.7708   -2.9422   -1.1616   H         1 RES1   0.0000
   211 H126      0.1445   -5.3910   -0.3180   H         1 RES1   0.0000
   212 H127      1.9076   -5.2370   -0.4100   H         1 RES1   0.0000
   213 H128      1.0512   -6.5488   -2.3178   H         1 RES1   0.0000
   214 H129      1.7633   -5.0408   -2.8810   H         1 RES1   0.0000
   215 H130     -1.1943   -5.6977   -2.4994   H         1 RES1   0.0000
   216 H131     -0.3585   -5.3178   -4.0199   H         1 RES1   0.0000
   217 H132     -2.5577   -2.7602   -3.0486   H         1 RES1   0.0000
   218 H133     -2.1514   -3.9758   -4.2748   H         1 RES1   0.0000
   219 H134     -0.2637   -2.4426   -5.0065   H         1 RES1   0.0000
   220 H135     -0.8940   -1.2208   -3.8989   H         1 RES1   0.0000
   221 H136     -2.8666   -0.9277   -5.2211   H         1 RES1   0.0000
   222 H137     -2.5967   -2.4239   -6.1179   H         1 RES1   0.0000
   223 H138     -0.7296   -1.5341   -7.2971   H         1 RES1   0.0000
   224 H139     -0.5780   -0.1574   -6.2104   H         1 RES1   0.0000
   225 H140     -3.0773   -0.5099   -7.8875   H         1 RES1   0.0000
   226 H141     -1.6195    0.2249   -8.5550   H         1 RES1   0.0000
   227 H142     -3.0596    1.2542   -6.0593   H         1 RES1   0.0000
   228 H143     -3.1356    1.9684   -7.6705   H         1 RES1   0.0000
   229 H144     -1.6135    1.9451   -6.7836   H         1 RES1   0.0000
   230 C75      -0.5061   -5.3980  -11.9315   C.3       1 RES1   0.0000
   231 C76      -1.6372   -4.7470  -11.1453   C.3       1 RES1   0.0000
   232 C77      -2.1212   -5.5806   -9.9581   C.3       1 RES1   0.0000
   233 C78      -1.0871   -5.7981   -8.8498   C.3       1 RES1   0.0000
   234 C79      -0.7153   -4.4908   -8.1505   C.3       1 RES1   0.0000
   235 C80       0.1647   -4.6585   -6.9085   C.3       1 RES1   0.0000
   236 C81       1.6067   -5.0930   -7.1651   C.3       1 RES1   0.0000
   237 C82       2.5210   -4.7788   -5.9583   C.3       1 RES1   0.0000
   238 C83       3.4837   -3.6018   -6.1757   C.3       1 RES1   0.0000
   239 C84       2.8566   -2.2108   -6.0518   C.3       1 RES1   0.0000
   240 C85       2.6257   -1.7095   -4.6150   C.3       1 RES1   0.0000
   241 C86       1.9527   -0.3256   -4.6548   C.3       1 RES1   0.0000
   242 N5        2.5001    0.7483   -3.8307   N.am      1 RES1   0.0000
   243 C87       3.5419    1.5626   -4.4529   C.3       1 RES1   0.0000
   244 C88       4.7440    0.6891   -4.8260   C.3       1 RES1   0.0000
   245 C89       5.9931    1.4762   -5.2209   C.3       1 RES1   0.0000
   246 C90       7.1409    0.4853   -5.4630   C.3       1 RES1   0.0000
   247 C91       8.5355    1.0956   -5.3270   C.3       1 RES1   0.0000
   248 C92       8.9285    1.5627   -3.9201   C.3       1 RES1   0.0000
   249 C93       9.5910    0.5152   -3.0161   C.3       1 RES1   0.0000
   250 C94       8.8100   -0.7684   -2.7142   C.3       1 RES1   0.0000
   251 C95       9.4795   -1.5376   -1.5694   C.3       1 RES1   0.0000
   252 C96       9.0555   -3.0011   -1.4036   C.3       1 RES1   0.0000
   253 C97       7.7036   -3.2545   -0.7193   C.3       1 RES1   0.0000
   254 C98       6.5471   -3.4754   -1.6894   C.3       1 RES1   0.0000
   255 C99       1.9115    1.0390   -2.6707   C.2       1 RES1   0.0000
   256 O7        1.2247    0.2159   -2.0366   O.2       1 RES1   0.0000
   257 C100      2.0054    2.4735   -2.1672   C.3       1 RES1   0.0000
   258 O8        1.0788    2.6122   -1.1038   O.3       1 RES1   0.0000
   259 C101      0.6972    3.9658   -0.8867   C.3       1 RES1   0.0000
   260 C102      1.8802    4.9228   -0.6513   C.3       1 RES1   0.0000
   261 C103      1.3998    6.2928   -0.1467   C.3       1 RES1   0.0000
   262 C104     -0.1022    6.2916    0.1164   C.3       1 RES1   0.0000
   263 N6       -0.4918    5.1084    0.8585   N.am      1 RES1   0.0000
   264 C105     -1.2454    5.3766    2.0755   C.3       1 RES1   0.0000
   265 C106     -2.6916    5.7532    1.7800   C.3       1 RES1   0.0000
   266 C107     -3.3673    6.3521    3.0117   C.3       1 RES1   0.0000
   267 C108     -4.8879    6.2503    2.8713   C.3       1 RES1   0.0000
   268 C109     -5.4391    5.0054    3.5654   C.3       1 RES1   0.0000
   269 C110     -6.9080    4.7741    3.2254   C.3       1 RES1   0.0000
   270 C111     -0.2004    3.9219    0.3452   C.2       1 RES1   0.0000
   271 O9       -0.5667    2.8185    0.7878   O.2       1 RES1   0.0000
   272 H145     -0.3438   -4.8529  -12.8587   H         1 RES1   0.0000
   273 H146     -0.7529   -6.4283  -12.1819   H         1 RES1   0.0000
   274 H147      0.4243   -5.3914  -11.3668   H         1 RES1   0.0000
   275 H148     -2.4892   -4.6025  -11.8125   H         1 RES1   0.0000
   276 H149     -1.3195   -3.7588  -10.8086   H         1 RES1   0.0000
   277 H150     -2.4453   -6.5541  -10.3272   H         1 RES1   0.0000
   278 H151     -2.9956   -5.0907   -9.5203   H         1 RES1   0.0000
   279 H152     -0.1979   -6.2725   -9.2658   H         1 RES1   0.0000
   280 H153     -1.5156   -6.4780   -8.1047   H         1 RES1   0.0000
   281 H154     -1.6499   -4.0053   -7.8430   H         1 RES1   0.0000
   282 H155     -0.2162   -3.8245   -8.8559   H         1 RES1   0.0000
   283 H156     -0.3084   -5.3822   -6.2399   H         1 RES1   0.0000
   284 H157      0.1940   -3.6930   -6.3987   H         1 RES1   0.0000
   285 H158      1.9796   -4.5861   -8.0556   H         1 RES1   0.0000
   286 H159      1.6346   -6.1649   -7.3699   H         1 RES1   0.0000
   287 H160      3.1187   -5.6627   -5.7291   H         1 RES1   0.0000
   288 H161      1.9007   -4.5783   -5.0788   H         1 RES1   0.0000
   289 H162      3.8986   -3.6943   -7.1795   H         1 RES1   0.0000
   290 H163      4.3078   -3.6738   -5.4650   H         1 RES1   0.0000
   291 H164      1.9121   -2.1825   -6.5963   H         1 RES1   0.0000
   292 H165      3.5280   -1.5040   -6.5445   H         1 RES1   0.0000
   293 H166      3.5808   -1.6602   -4.0911   H         1 RES1   0.0000
   294 H167      1.9795   -2.3950   -4.0600   H         1 RES1   0.0000
   295 H168      0.9084   -0.4215   -4.3554   H         1 RES1   0.0000
   296 H169      1.9853    0.0450   -5.6868   H         1 RES1   0.0000
   297 H170      3.8671    2.3264   -3.7538   H         1 RES1   0.0000
   298 H171      3.1521    2.0477   -5.3527   H         1 RES1   0.0000
   299 H172      4.4931    0.0360   -5.6656   H         1 RES1   0.0000
   300 H173      4.9955    0.0596   -3.9620   H         1 RES1   0.0000
   301 H174      6.2504    2.1723   -4.4262   H         1 RES1   0.0000
   302 H175      5.8031    2.0627   -6.1209   H         1 RES1   0.0000
   303 H176      7.0423   -0.3519   -4.7698   H         1 RES1   0.0000
   304 H177      7.0417    0.0795   -6.4744   H         1 RES1   0.0000
   305 H178      8.5913    1.9451   -6.0081   H         1 RES1   0.0000
   306 H179      9.2632    0.3623   -5.6686   H         1 RES1   0.0000
   307 H180      8.0608    1.9919   -3.4162   H         1 RES1   0.0000
   308 H181      9.6564    2.3722   -4.0296   H         1 RES1   0.0000
   309 H182      9.8076    1.0079   -2.0652   H         1 RES1   0.0000
   310 H183     10.5499    0.2396   -3.4580   H         1 RES1   0.0000
   311 H184      8.7894   -1.4089   -3.5982   H         1 RES1   0.0000
   312 H185      7.7802   -0.5300   -2.4421   H         1 RES1   0.0000
   313 H186      9.3257   -1.0069   -0.6261   H         1 RES1   0.0000
   314 H187     10.5533   -1.5432   -1.7603   H         1 RES1   0.0000
   315 H188      9.8225   -3.4880   -0.7951   H         1 RES1   0.0000
   316 H189      9.0628   -3.4903   -2.3800   H         1 RES1   0.0000
   317 H190      7.4744   -2.4302   -0.0379   H         1 RES1   0.0000
   318 H191      7.7912   -4.1630   -0.1165   H         1 RES1   0.0000
   319 H192      6.3700   -2.6047   -2.3168   H         1 RES1   0.0000
   320 H193      5.6306   -3.7051   -1.1424   H         1 RES1   0.0000
   321 H194      6.7704   -4.3242   -2.3314   H         1 RES1   0.0000
   322 H195      1.7519    3.1556   -2.9957   H         1 RES1   0.0000
   323 H196      3.0131    2.7174   -1.8105   H         1 RES1   0.0000
   324 H197      0.1077    4.3212   -1.7520   H         1 RES1   0.0000
   325 H198      2.4383    5.0550   -1.5768   H         1 RES1   0.0000
   326 H199      2.5385    4.4634    0.0883   H         1 RES1   0.0000
   327 H200      1.6076    7.0663   -0.8845   H         1 RES1   0.0000
   328 H201      1.9234    6.5540    0.7704   H         1 RES1   0.0000
   329 H202     -0.6425    6.3326   -0.8322   H         1 RES1   0.0000
   330 H203     -0.3663    7.1690    0.7046   H         1 RES1   0.0000
   331 H204     -0.7453    6.1983    2.6036   H         1 RES1   0.0000
   332 H205     -1.2279    4.4963    2.7107   H         1 RES1   0.0000
   333 H206     -3.2203    4.8569    1.4596   H         1 RES1   0.0000
   334 H207     -2.7331    6.4829    0.9689   H         1 RES1   0.0000
   335 H208     -3.0559    7.3895    3.1202   H         1 RES1   0.0000
   336 H209     -3.0501    5.8229    3.9133   H         1 RES1   0.0000
   337 H210     -5.1397    6.2156    1.8102   H         1 RES1   0.0000
   338 H211     -5.3755    7.1291    3.2887   H         1 RES1   0.0000
   339 H212     -5.3389    5.1246    4.6474   H         1 RES1   0.0000
   340 H213     -4.8506    4.1282    3.2749   H         1 RES1   0.0000
   341 H214     -7.4674    5.6957    3.3673   H         1 RES1   0.0000
   342 H215     -7.3374    4.0082    3.8651   H         1 RES1   0.0000
   343 H216     -7.0293    4.4576    2.1897   H         1 RES1   0.0000
@<TRIPOS>BOND
     1     1    28    1
     2     1    30    1
     3     1    43    1
     4     1   142    1
     5     1   144    1
     6     1   157    1
     7     1   256    1
     8     1   258    1
     9     1   271    1
    10     2     3    1
    11     2    44    1
    12     2    45    1
    13     2    46    1
    14     3     4    1
    15     3    47    1
    16     3    48    1
    17     4     5    1
    18     4    49    1
    19     4    50    1
    20     5     6    1
    21     5    51    1
    22     5    52    1
    23     6     7    1
    24     6    53    1
    25     6    54    1
    26     7     8    1
    27     7    55    1
    28     7    56    1
    29     8     9    1
    30     8    57    1
    31     8    58    1
    32     9    10    1
    33     9    59    1
    34     9    60    1
    35    10    11    1
    36    10    61    1
    37    10    62    1
    38    11    12    1
    39    11    63    1
    40    11    64    1
    41    12    13    1
    42    12    65    1
    43    12    66    1
    44    13    14    1
    45    13    67    1
    46    13    68    1
    47    14    15    1
    48    14    27    1
    49    15    16    1
    50    15    69    1
    51    15    70    1
    52    16    17    1
    53    16    71    1
    54    16    72    1
    55    17    18    1
    56    17    73    1
    57    17    74    1
    58    18    19    1
    59    18    75    1
    60    18    76    1
    61    19    20    1
    62    19    77    1
    63    19    78    1
    64    20    21    1
    65    20    79    1
    66    20    80    1
    67    21    22    1
    68    21    81    1
    69    21    82    1
    70    22    23    1
    71    22    83    1
    72    22    84    1
    73    23    24    1
    74    23    85    1
    75    23    86    1
    76    24    25    1
    77    24    87    1
    78    24    88    1
    79    25    26    1
    80    25    89    1
    81    25    90    1
    82    26    91    1
    83    26    92    1
    84    26    93    1
    85    27    28    2
    86    27    29    1
    87    29    30    1
    88    29    94    1
    89    29    95    1
    90    30    31    1
    91    31    32    1
    92    31    42    1
    93    31    96    1
    94    32    33    1
    95    32    97    1
    96    32    98    1
    97    33    34    1
    98    33    99    1
    99    33   100    1
   100    34    35    1
   101    34   101    1
   102    34   102    1
   103    35    36    1
   104    35    42    1
   105    36    37    1
   106    36   103    1
   107    36   104    1
   108    37    38    1
   109    37   105    1
   110    37   106    1
   111    38    39    1
   112    38   107    1
   113    38   108    1
   114    39    40    1
   115    39   109    1
   116    39   110    1
   117    40    41    1
   118    40   111    1
   119    40   112    1
   120    41   113    1
   121    41   114    1
   122    41   115    1
   123    42    43    2
   124   116   117    1
   125   116   158    1
   126   116   159    1
   127   116   160    1
   128   117   118    1
   129   117   161    1
   130   117   162    1
   131   118   119    1
   132   118   163    1
   133   118   164    1
   134   119   120    1
   135   119   165    1
   136   119   166    1
   137   120   121    1
   138   120   167    1
   139   120   168    1
   140   121   122    1
   141   121   169    1
   142   121   170    1
   143   122   123    1
   144   122   171    1
   145   122   172    1
   146   123   124    1
   147   123   173    1
   148   123   174    1
   149   124   125    1
   150   124   175    1
   151   124   176    1
   152   125   126    1
   153   125   177    1
   154   125   178    1
   155   126   127    1
   156   126   179    1
   157   126   180    1
   158   127   128    1
   159   127   181    1
   160   127   182    1
   161   128   129    1
   162   128   141    1
   163   129   130    1
   164   129   183    1
   165   129   184    1
   166   130   131    1
   167   130   185    1
   168   130   186    1
   169   131   132    1
   170   131   187    1
   171   131   188    1
   172   132   133    1
   173   132   189    1
   174   132   190    1
   175   133   134    1
   176   133   191    1
   177   133   192    1
   178   134   135    1
   179   134   193    1
   180   134   194    1
   181   135   136    1
   182   135   195    1
   183   135   196    1
   184   136   137    1
   185   136   197    1
   186   136   198    1
   187   137   138    1
   188   137   199    1
   189   137   200    1
   190   138   139    1
   191   138   201    1
   192   138   202    1
   193   139   140    1
   194   139   203    1
   195   139   204    1
   196   140   205    1
   197   140   206    1
   198   140   207    1
   199   141   142    2
   200   141   143    1
   201   143   144    1
   202   143   208    1
   203   143   209    1
   204   144   145    1
   205   145   146    1
   206   145   156    1
   207   145   210    1
   208   146   147    1
   209   146   211    1
   210   146   212    1
   211   147   148    1
   212   147   213    1
   213   147   214    1
   214   148   149    1
   215   148   215    1
   216   148   216    1
   217   149   150    1
   218   149   156    1
   219   150   151    1
   220   150   217    1
   221   150   218    1
   222   151   152    1
   223   151   219    1
   224   151   220    1
   225   152   153    1
   226   152   221    1
   227   152   222    1
   228   153   154    1
   229   153   223    1
   230   153   224    1
   231   154   155    1
   232   154   225    1
   233   154   226    1
   234   155   227    1
   235   155   228    1
   236   155   229    1
   237   156   157    2
   238   230   231    1
   239   230   272    1
   240   230   273    1
   241   230   274    1
   242   231   232    1
   243   231   275    1
   244   231   276    1
   245   232   233    1
   246   232   277    1
   247   232   278    1
   248   233   234    1
   249   233   279    1
   250   233   280    1
   251   234   235    1
   252   234   281    1
   253   234   282    1
   254   235   236    1
   255   235   283    1
   256   235   284    1
   257   236   237    1
   258   236   285    1
   259   236   286    1
   260   237   238    1
   261   237   287    1
   262   237   288    1
   263   238   239    1
   264   238   289    1
   265   238   290    1
   266   239   240    1
   267   239   291    1
   268   239   292    1
   269   240   241    1
   270   240   293    1
   271   240   294    1
   272   241   242    1
   273   241   295    1
   274   241   296    1
   275   242   243    1
   276   242   255    1
   277   243   244    1
   278   243   297    1
   279   243   298    1
   280   244   245    1
   281   244   299    1
   282   244   300    1
   283   245   246    1
   284   245   301    1
   285   245   302    1
   286   246   247    1
   287   246   303    1
   288   246   304    1
   289   247   248    1
   290   247   305    1
   291   247   306    1
   292   248   249    1
   293   248   307    1
   294   248   308    1
   295   249   250    1
   296   249   309    1
   297   249   310    1
   298   250   251    1
   299   250   311    1
   300   250   312    1
   301   251   252    1
   302   251   313    1
   303   251   314    1
   304   252   253    1
   305   252   315    1
   306   252   316    1
   307   253   254    1
   308   253   317    1
   309   253   318    1
   310   254   319    1
   311   254   320    1
   312   254   321    1
   313   255   256    2
   314   255   257    1
   315   257   258    1
   316   257   322    1
   317   257   323    1
   318   258   259    1
   319   259   260    1
   320   259   270    1
   321   259   324    1
   322   260   261    1
   323   260   325    1
   324   260   326    1
   325   261   262    1
   326   261   327    1
   327   261   328    1
   328   262   263    1
   329   262   329    1
   330   262   330    1
   331   263   264    1
   332   263   270    1
   333   264   265    1
   334   264   331    1
   335   264   332    1
   336   265   266    1
   337   265   333    1
   338   265   334    1
   339   266   267    1
   340   266   335    1
   341   266   336    1
   342   267   268    1
   343   267   337    1
   344   267   338    1
   345   268   269    1
   346   268   339    1
   347   268   340    1
   348   269   341    1
   349   269   342    1
   350   269   343    1
   351   270   271    2
@<TRIPOS>SUBSTRUCTURE
     1 RES1      343 GROUP             0 ****  ****    0  
