@<TRIPOS>MOLECULE
am_c3_9H2O_c0_0_nunpairedes_0_charge_2 Charge: 2 Unpaired_Electrons: 0 XTB_Unpaired_Electrons: 0 XTB_Charge: 2
    60    69     1     0     0
SMALL
NoCharges
****
Generated from Architector

@<TRIPOS>ATOM
     1 La1       0.1165   -0.2033    0.2054   La        1 RES1   0.0000
     2 C1       -1.8178    2.5261    4.1180   C.ar      1 RES1   0.0000
     3 C2       -2.6124    1.6230    3.4310   C.ar      1 RES1   0.0000
     4 C3       -2.1182    1.0198    2.2785   C.ar      1 RES1   0.0000
     5 N1       -0.8942    1.2869    1.8078   N.ar      1 RES1   0.0000
     6 C4       -0.1387    2.1799    2.4647   C.ar      1 RES1   0.0000
     7 C5       -0.5568    2.8149    3.6221   C.ar      1 RES1   0.0000
     8 C6        1.2144    2.4854    1.8663   C.3       1 RES1   0.0000
     9 O1        1.2499    2.1522    0.4752   O.3       1 RES1   0.0000
    10 C7        0.8759    3.2128   -0.3681   C.ar      1 RES1   0.0000
    11 C8        1.3103    4.5219   -0.1798   C.ar      1 RES1   0.0000
    12 C9        0.9457    5.5140   -1.0713   C.ar      1 RES1   0.0000
    13 C10       0.1517    5.2178   -2.1670   C.ar      1 RES1   0.0000
    14 C11      -0.2726    3.9189   -2.3746   C.ar      1 RES1   0.0000
    15 C12       0.0851    2.9128   -1.4823   C.ar      1 RES1   0.0000
    16 O2       -0.3500    1.5856   -1.6641   O.3       1 RES1   0.0000
    17 C13      -0.0011    1.0650   -2.9578   C.3       1 RES1   0.0000
    18 C14       1.4188    0.4943   -2.9005   C.3       1 RES1   0.0000
    19 O3        1.5331   -0.4851   -1.8647   O.3       1 RES1   0.0000
    20 C15       1.4242   -1.8384   -2.3027   C.3       1 RES1   0.0000
    21 C16      -0.0353   -2.2964   -2.4891   C.3       1 RES1   0.0000
    22 O4       -0.8429   -1.5936   -1.5308   O.3       1 RES1   0.0000
    23 C17      -2.1580   -2.0475   -1.3735   C.ar      1 RES1   0.0000
    24 C18      -2.7180   -3.0451   -2.1554   C.ar      1 RES1   0.0000
    25 C19      -4.0399   -3.4156   -1.9748   C.ar      1 RES1   0.0000
    26 C20      -4.7961   -2.8156   -0.9872   C.ar      1 RES1   0.0000
    27 C21      -4.2462   -1.8254   -0.1893   C.ar      1 RES1   0.0000
    28 C22      -2.9387   -1.4091   -0.3929   C.ar      1 RES1   0.0000
    29 O5       -2.3498   -0.3314    0.2817   O.3       1 RES1   0.0000
    30 C23      -2.9781    0.0463    1.5113   C.3       1 RES1   0.0000
    31 H1       -2.1630    3.0019    5.0207   H         1 RES1   0.0000
    32 H2       -3.5983    1.3833    3.7936   H         1 RES1   0.0000
    33 H3        0.0981    3.5218    4.1065   H         1 RES1   0.0000
    34 H4        1.9953    1.8920    2.3561   H         1 RES1   0.0000
    35 H5        1.4421    3.5423    2.0192   H         1 RES1   0.0000
    36 H6        1.9622    4.7795    0.6429   H         1 RES1   0.0000
    37 H7        1.2861    6.5217   -0.9056   H         1 RES1   0.0000
    38 H8       -0.1236    5.9917   -2.8650   H         1 RES1   0.0000
    39 H9       -0.9006    3.6985   -3.2264   H         1 RES1   0.0000
    40 H10      -0.0658    1.8457   -3.7205   H         1 RES1   0.0000
    41 H11      -0.7407    0.2941   -3.1807   H         1 RES1   0.0000
    42 H12       2.1104    1.3002   -2.6313   H         1 RES1   0.0000
    43 H13       1.7121    0.0793   -3.8687   H         1 RES1   0.0000
    44 H14       1.8868   -2.4274   -1.5069   H         1 RES1   0.0000
    45 H15       1.9791   -1.9807   -3.2331   H         1 RES1   0.0000
    46 H16      -0.0824   -3.3795   -2.3184   H         1 RES1   0.0000
    47 H17      -0.4080   -2.0762   -3.4984   H         1 RES1   0.0000
    48 H18      -2.1388   -3.5354   -2.9190   H         1 RES1   0.0000
    49 H19      -4.4672   -4.1669   -2.6171   H         1 RES1   0.0000
    50 H20      -5.8236   -3.1004   -0.8450   H         1 RES1   0.0000
    51 H21      -4.8582   -1.3748    0.5738   H         1 RES1   0.0000
    52 H22      -3.1566   -0.8439    2.1330   H         1 RES1   0.0000
    53 H23      -3.9400    0.5390    1.3156   H         1 RES1   0.0000
    54 N2        0.2325   -2.5818    1.4449   N.3       1 RES1   0.0000
    55 O6        0.2532   -3.6613    1.9237   O.2       1 RES1   0.0000
    56 O7       -0.4947   -1.6623    1.8775   O.co2     1 RES1   0.0000
    57 O8        0.9459   -2.2799    0.4612   O.co2     1 RES1   0.0000
    58 O9        2.0215   -0.4025    1.9783   O.3       1 RES1   0.0000
    59 H24       2.8084   -0.9465    1.8096   H         1 RES1   0.0000
    60 H25       1.7165   -0.6835    2.8564   H         1 RES1   0.0000
@<TRIPOS>BOND
     1     1     5    1
     2     1     9    1
     3     1    16    1
     4     1    19    1
     5     1    22    1
     6     1    29    1
     7     1    56    1
     8     1    57    1
     9     1    58    1
    10     2     3    1
    11     2     7    2
    12     2    31    1
    13     3     4    2
    14     3    32    1
    15     4     5    1
    16     4    30    1
    17     5     6    2
    18     6     7    1
    19     6     8    1
    20     7    33    1
    21     8     9    1
    22     8    34    1
    23     8    35    1
    24     9    10    1
    25    10    11    1
    26    10    15    2
    27    11    12    2
    28    11    36    1
    29    12    13    1
    30    12    37    1
    31    13    14    2
    32    13    38    1
    33    14    15    1
    34    14    39    1
    35    15    16    1
    36    16    17    1
    37    17    18    1
    38    17    40    1
    39    17    41    1
    40    18    19    1
    41    18    42    1
    42    18    43    1
    43    19    20    1
    44    20    21    1
    45    20    44    1
    46    20    45    1
    47    21    22    1
    48    21    46    1
    49    21    47    1
    50    22    23    1
    51    23    24    1
    52    23    28    2
    53    24    25    2
    54    24    48    1
    55    25    26    1
    56    25    49    1
    57    26    27    2
    58    26    50    1
    59    27    28    1
    60    27    51    1
    61    28    29    1
    62    29    30    1
    63    30    52    1
    64    30    53    1
    65    54    55    2
    66    54    56    1
    67    54    57    1
    68    58    59    1
    69    58    60    1
@<TRIPOS>SUBSTRUCTURE
     1 RES1       60 GROUP             0 ****  ****    0  
