@<TRIPOS>MOLECULE
am_c3_9H2O_c0_0_nunpairedes_0_charge_3 Charge: 3 Unpaired_Electrons: 0 XTB_Unpaired_Electrons: 0 XTB_Charge: 3
   205   210     1     0     0
SMALL
NoCharges
****
Generated from Architector

@<TRIPOS>ATOM
     1 La1      -0.0412    0.0831    0.2235   La        1 RES1   0.0000
     2 C1        6.2245   -2.3698   -3.7187   C.3       1 RES1   0.0000
     3 C2        5.5427   -1.1546   -3.1033   C.3       1 RES1   0.0000
     4 C3        4.7011   -0.3379   -4.0952   C.3       1 RES1   0.0000
     5 C4        3.2168   -0.6995   -4.2149   C.3       1 RES1   0.0000
     6 C5        2.3779   -0.1936   -3.0311   C.3       1 RES1   0.0000
     7 C6        0.8925   -0.2081   -3.4013   C.3       1 RES1   0.0000
     8 O1        0.0034   -0.4854   -2.2962   O.3       1 RES1   0.0000
     9 C7       -1.1147   -1.3220   -2.6321   C.3       1 RES1   0.0000
    10 C8       -2.3542   -0.8398   -1.8691   C.3       1 RES1   0.0000
    11 C9       -2.8511   -1.7099   -0.6849   C.3       1 RES1   0.0000
    12 C10      -3.2340   -0.8266    0.5193   C.2       1 RES1   0.0000
    13 O2       -2.3403   -0.2505    1.1660   O.2       1 RES1   0.0000
    14 N1       -4.5046   -0.7486    0.8932   N.am      1 RES1   0.0000
    15 C11      -5.6570   -1.3415    0.2437   C.3       1 RES1   0.0000
    16 C12      -4.8239   -0.0700    2.1525   C.3       1 RES1   0.0000
    17 C13      -4.5275    1.4354    2.1894   C.3       1 RES1   0.0000
    18 C14      -5.5204    2.1332    3.1271   C.3       1 RES1   0.0000
    19 C15      -5.2440    3.6259    3.2636   C.3       1 RES1   0.0000
    20 C16      -1.8063   -2.6498   -0.0636   C.2       1 RES1   0.0000
    21 O3       -0.8368   -2.1684    0.5463   O.2       1 RES1   0.0000
    22 N2       -2.0230   -3.9624   -0.1013   N.am      1 RES1   0.0000
    23 C17      -3.1477   -4.5894   -0.7675   C.3       1 RES1   0.0000
    24 C18      -1.0958   -4.8513    0.5930   C.3       1 RES1   0.0000
    25 C19      -1.6160   -5.2711    1.9729   C.3       1 RES1   0.0000
    26 C20      -0.5898   -6.0810    2.7776   C.3       1 RES1   0.0000
    27 C21      -0.2629   -7.4541    2.2061   C.3       1 RES1   0.0000
    28 H1        6.8051   -2.0793   -4.5886   H         1 RES1   0.0000
    29 H2        5.5056   -3.1215   -4.0335   H         1 RES1   0.0000
    30 H3        6.9178   -2.8196   -3.0111   H         1 RES1   0.0000
    31 H4        6.3345   -0.5095   -2.7193   H         1 RES1   0.0000
    32 H5        4.9169   -1.4584   -2.2613   H         1 RES1   0.0000
    33 H6        5.1473   -0.4329   -5.0832   H         1 RES1   0.0000
    34 H7        4.7437    0.7161   -3.8150   H         1 RES1   0.0000
    35 H8        3.0635   -1.7729   -4.3379   H         1 RES1   0.0000
    36 H9        2.8393   -0.2152   -5.1176   H         1 RES1   0.0000
    37 H10       2.6938    0.8216   -2.7714   H         1 RES1   0.0000
    38 H11       2.5391   -0.8234   -2.1579   H         1 RES1   0.0000
    39 H12       0.7482   -0.9620   -4.1798   H         1 RES1   0.0000
    40 H13       0.6127    0.7701   -3.8015   H         1 RES1   0.0000
    41 H14      -0.8803   -2.3608   -2.3643   H         1 RES1   0.0000
    42 H15      -1.2938   -1.2775   -3.7133   H         1 RES1   0.0000
    43 H16      -3.1746   -0.7219   -2.5751   H         1 RES1   0.0000
    44 H17      -2.1140    0.1608   -1.4966   H         1 RES1   0.0000
    45 H18      -3.6979   -2.2939   -1.0225   H         1 RES1   0.0000
    46 H19      -5.4123   -1.8040   -0.7044   H         1 RES1   0.0000
    47 H20      -6.3982   -0.5685    0.0451   H         1 RES1   0.0000
    48 H21      -6.1097   -2.0920    0.8953   H         1 RES1   0.0000
    49 H22      -4.2686   -0.5632    2.9535   H         1 RES1   0.0000
    50 H23      -5.8890   -0.2180    2.3312   H         1 RES1   0.0000
    51 H24      -4.6065    1.8812    1.1979   H         1 RES1   0.0000
    52 H25      -3.5076    1.6151    2.5296   H         1 RES1   0.0000
    53 H26      -5.4865    1.6597    4.1117   H         1 RES1   0.0000
    54 H27      -6.5314    1.9925    2.7395   H         1 RES1   0.0000
    55 H28      -4.2485    3.7934    3.6658   H         1 RES1   0.0000
    56 H29      -5.9605    4.0784    3.9444   H         1 RES1   0.0000
    57 H30      -5.3196    4.1263    2.2996   H         1 RES1   0.0000
    58 H31      -3.1489   -4.3614   -1.8337   H         1 RES1   0.0000
    59 H32      -4.0913   -4.2857   -0.3185   H         1 RES1   0.0000
    60 H33      -3.0688   -5.6661   -0.6560   H         1 RES1   0.0000
    61 H34      -0.1472   -4.3185    0.6932   H         1 RES1   0.0000
    62 H35      -0.9453   -5.7324   -0.0312   H         1 RES1   0.0000
    63 H36      -2.5299   -5.8558    1.8520   H         1 RES1   0.0000
    64 H37      -1.8671   -4.3691    2.5400   H         1 RES1   0.0000
    65 H38      -0.9931   -6.2217    3.7805   H         1 RES1   0.0000
    66 H39       0.3269   -5.4957    2.8793   H         1 RES1   0.0000
    67 H40      -1.1691   -8.0322    2.0565   H         1 RES1   0.0000
    68 H41       0.3636   -7.9987    2.9059   H         1 RES1   0.0000
    69 H42       0.2706   -7.3838    1.2634   H         1 RES1   0.0000
    70 C22      -2.6204    1.2938    6.8835   C.3       1 RES1   0.0000
    71 C23      -1.6484    0.2262    6.3901   C.3       1 RES1   0.0000
    72 C24      -2.2766   -0.6061    5.2712   C.3       1 RES1   0.0000
    73 C25      -1.3909   -1.7353    4.7363   C.3       1 RES1   0.0000
    74 C26      -0.2041   -1.2357    3.9122   C.3       1 RES1   0.0000
    75 C27       0.6675   -2.3798    3.4100   C.3       1 RES1   0.0000
    76 O4        1.7507   -1.8474    2.6497   O.3       1 RES1   0.0000
    77 C28       2.8263   -2.7574    2.4727   C.3       1 RES1   0.0000
    78 C29       2.7645   -3.5069    1.1353   C.3       1 RES1   0.0000
    79 C30       3.1982   -2.6967   -0.1259   C.3       1 RES1   0.0000
    80 C31       3.2683   -1.2159    0.2514   C.2       1 RES1   0.0000
    81 O5        2.2559   -0.4763    0.2836   O.2       1 RES1   0.0000
    82 N3        4.4493   -0.7223    0.6212   N.am      1 RES1   0.0000
    83 C32       5.7283   -1.3979    0.7149   C.3       1 RES1   0.0000
    84 C33       4.4961    0.6535    1.1157   C.3       1 RES1   0.0000
    85 C34       4.1336    1.6783    0.0439   C.3       1 RES1   0.0000
    86 C35       4.3739    3.1046    0.5372   C.3       1 RES1   0.0000
    87 C36       3.8702    4.1242   -0.4768   C.3       1 RES1   0.0000
    88 C37       2.1310   -3.0487   -1.1650   C.2       1 RES1   0.0000
    89 O6        1.0329   -2.4893   -1.1203   O.2       1 RES1   0.0000
    90 N4        2.3608   -4.0624   -2.0196   N.am      1 RES1   0.0000
    91 C38       3.6036   -4.7839   -2.2136   C.3       1 RES1   0.0000
    92 C39       1.2081   -4.6602   -2.7012   C.3       1 RES1   0.0000
    93 C40       0.7919   -3.9560   -3.9946   C.3       1 RES1   0.0000
    94 C41       1.6812   -4.2001   -5.2099   C.3       1 RES1   0.0000
    95 C42       1.1781   -3.4082   -6.4143   C.3       1 RES1   0.0000
    96 H43      -2.1646    1.8910    7.6677   H         1 RES1   0.0000
    97 H44      -3.5197    0.8380    7.2905   H         1 RES1   0.0000
    98 H45      -2.9082    1.9535    6.0668   H         1 RES1   0.0000
    99 H46      -1.3845   -0.4298    7.2222   H         1 RES1   0.0000
   100 H47      -0.7368    0.7142    6.0322   H         1 RES1   0.0000
   101 H48      -2.5480    0.0576    4.4457   H         1 RES1   0.0000
   102 H49      -3.1954   -1.0490    5.6640   H         1 RES1   0.0000
   103 H50      -2.0013   -2.3977    4.1181   H         1 RES1   0.0000
   104 H51      -1.0228   -2.3250    5.5781   H         1 RES1   0.0000
   105 H52       0.4113   -0.5996    4.5459   H         1 RES1   0.0000
   106 H53      -0.5633   -0.6543    3.0369   H         1 RES1   0.0000
   107 H54       0.0773   -3.0659    2.7932   H         1 RES1   0.0000
   108 H55       1.0633   -2.9375    4.2685   H         1 RES1   0.0000
   109 H56       2.8374   -3.5040    3.2783   H         1 RES1   0.0000
   110 H57       3.7488   -2.1817    2.5607   H         1 RES1   0.0000
   111 H58       1.7224   -3.8056    1.0127   H         1 RES1   0.0000
   112 H59       3.3699   -4.4091    1.2024   H         1 RES1   0.0000
   113 H60       4.1734   -3.0248   -0.4718   H         1 RES1   0.0000
   114 H61       5.7116   -2.4078    0.3265   H         1 RES1   0.0000
   115 H62       6.0485   -1.4432    1.7590   H         1 RES1   0.0000
   116 H63       6.4684   -0.8310    0.1542   H         1 RES1   0.0000
   117 H64       5.5065    0.8492    1.4733   H         1 RES1   0.0000
   118 H65       3.8038    0.7370    1.9575   H         1 RES1   0.0000
   119 H66       3.0785    1.5667   -0.2348   H         1 RES1   0.0000
   120 H67       4.7344    1.5028   -0.8504   H         1 RES1   0.0000
   121 H68       5.4394    3.2559    0.7188   H         1 RES1   0.0000
   122 H69       3.8620    3.2537    1.4913   H         1 RES1   0.0000
   123 H70       4.3586    3.9756   -1.4346   H         1 RES1   0.0000
   124 H71       4.0879    5.1354   -0.1500   H         1 RES1   0.0000
   125 H72       2.7952    4.0238   -0.6185   H         1 RES1   0.0000
   126 H73       4.4761   -4.2017   -1.9336   H         1 RES1   0.0000
   127 H74       3.6989   -5.0450   -3.2680   H         1 RES1   0.0000
   128 H75       3.6055   -5.7197   -1.6482   H         1 RES1   0.0000
   129 H76       0.3662   -4.5921   -2.0066   H         1 RES1   0.0000
   130 H77       1.4320   -5.7128   -2.8859   H         1 RES1   0.0000
   131 H78       0.7732   -2.8922   -3.7780   H         1 RES1   0.0000
   132 H79      -0.2282   -4.2680   -4.2312   H         1 RES1   0.0000
   133 H80       1.6844   -5.2613   -5.4584   H         1 RES1   0.0000
   134 H81       2.7063   -3.9000   -4.9783   H         1 RES1   0.0000
   135 H82       0.2063   -3.7673   -6.7474   H         1 RES1   0.0000
   136 H83       1.8657   -3.4998   -7.2506   H         1 RES1   0.0000
   137 H84       1.0868   -2.3508   -6.1648   H         1 RES1   0.0000
   138 C43       3.0060   -0.7783    6.9231   C.3       1 RES1   0.0000
   139 C44       2.6815    0.6111    6.3888   C.3       1 RES1   0.0000
   140 C45       3.2397    0.7934    4.9763   C.3       1 RES1   0.0000
   141 C46       2.7307    2.0527    4.2662   C.3       1 RES1   0.0000
   142 C47       1.4222    1.7830    3.5189   C.3       1 RES1   0.0000
   143 C48       0.9198    2.9658    2.7095   C.3       1 RES1   0.0000
   144 O7       -0.1856    2.5256    1.8992   O.3       1 RES1   0.0000
   145 C49      -0.9378    3.6264    1.3769   C.3       1 RES1   0.0000
   146 C50      -0.4854    3.9717   -0.0502   C.3       1 RES1   0.0000
   147 C51      -1.5765    3.9200   -1.1298   C.3       1 RES1   0.0000
   148 C52      -2.6319    2.8549   -0.8690   C.2       1 RES1   0.0000
   149 O8       -2.2437    1.7687   -0.3965   O.2       1 RES1   0.0000
   150 N5       -3.8890    3.0150   -1.2981   N.am      1 RES1   0.0000
   151 C53      -4.4304    4.2289   -1.8662   C.3       1 RES1   0.0000
   152 C54      -4.6636    1.7831   -1.5190   C.3       1 RES1   0.0000
   153 C55      -6.1841    1.8488   -1.6867   C.3       1 RES1   0.0000
   154 C56      -7.0633    2.0488   -0.4456   C.3       1 RES1   0.0000
   155 C57      -8.4685    1.5099   -0.7195   C.3       1 RES1   0.0000
   156 C58      -0.9591    3.2477   -2.3793   C.2       1 RES1   0.0000
   157 O9       -0.3107    2.2119   -2.1857   O.2       1 RES1   0.0000
   158 N6       -1.2456    3.7080   -3.5962   N.am      1 RES1   0.0000
   159 C59      -1.7714    5.0186   -3.9248   C.3       1 RES1   0.0000
   160 C60      -0.8740    2.8791   -4.7468   C.3       1 RES1   0.0000
   161 C61      -1.7836    1.6511   -4.8592   C.3       1 RES1   0.0000
   162 C62      -3.1823    1.9894   -5.3708   C.3       1 RES1   0.0000
   163 C63      -4.0270    0.7447   -5.6195   C.3       1 RES1   0.0000
   164 H85       2.6829   -0.8782    7.9544   H         1 RES1   0.0000
   165 H86       4.0769   -0.9604    6.8885   H         1 RES1   0.0000
   166 H87       2.5106   -1.5436    6.3275   H         1 RES1   0.0000
   167 H88       3.1188    1.3623    7.0475   H         1 RES1   0.0000
   168 H89       1.5998    0.7586    6.3987   H         1 RES1   0.0000
   169 H90       2.9833   -0.0791    4.3689   H         1 RES1   0.0000
   170 H91       4.3269    0.8396    5.0490   H         1 RES1   0.0000
   171 H92       3.4833    2.4066    3.5590   H         1 RES1   0.0000
   172 H93       2.5813    2.8405    5.0061   H         1 RES1   0.0000
   173 H94       0.6456    1.5420    4.2450   H         1 RES1   0.0000
   174 H95       1.5439    0.9262    2.8236   H         1 RES1   0.0000
   175 H96       1.7110    3.3857    2.0738   H         1 RES1   0.0000
   176 H97       0.5683    3.7510    3.3892   H         1 RES1   0.0000
   177 H98      -0.8226    4.4900    2.0363   H         1 RES1   0.0000
   178 H99      -1.9873    3.3252    1.4231   H         1 RES1   0.0000
   179 H100      0.2855    3.2332   -0.3167   H         1 RES1   0.0000
   180 H101     -0.0128    4.9531   -0.0778   H         1 RES1   0.0000
   181 H102     -1.9945    4.9023   -1.3029   H         1 RES1   0.0000
   182 H103     -3.9741    5.1133   -1.4353   H         1 RES1   0.0000
   183 H104     -5.4923    4.2833   -1.6424   H         1 RES1   0.0000
   184 H105     -4.3043    4.2368   -2.9496   H         1 RES1   0.0000
   185 H106     -4.4072    1.1082   -0.7047   H         1 RES1   0.0000
   186 H107     -4.2815    1.3551   -2.4520   H         1 RES1   0.0000
   187 H108     -6.4481    0.8732   -2.1060   H         1 RES1   0.0000
   188 H109     -6.4552    2.5859   -2.4413   H         1 RES1   0.0000
   189 H110     -7.1383    3.1052   -0.1813   H         1 RES1   0.0000
   190 H111     -6.6373    1.5317    0.4153   H         1 RES1   0.0000
   191 H112     -8.9523    2.0833   -1.5051   H         1 RES1   0.0000
   192 H113     -9.0889    1.5709    0.1695   H         1 RES1   0.0000
   193 H114     -8.4405    0.4688   -1.0374   H         1 RES1   0.0000
   194 H115     -2.0271    5.5956   -3.0426   H         1 RES1   0.0000
   195 H116     -2.6589    4.9244   -4.5540   H         1 RES1   0.0000
   196 H117     -1.0158    5.5790   -4.4808   H         1 RES1   0.0000
   197 H118      0.1685    2.5698   -4.6297   H         1 RES1   0.0000
   198 H119     -0.9458    3.4778   -5.6551   H         1 RES1   0.0000
   199 H120     -1.8473    1.1764   -3.8786   H         1 RES1   0.0000
   200 H121     -1.3289    0.9417   -5.5495   H         1 RES1   0.0000
   201 H122     -3.1066    2.5371   -6.3099   H         1 RES1   0.0000
   202 H123     -3.6846    2.6373   -4.6488   H         1 RES1   0.0000
   203 H124     -3.5796    0.1155   -6.3848   H         1 RES1   0.0000
   204 H125     -5.0188    1.0241   -5.9649   H         1 RES1   0.0000
   205 H126     -4.1288    0.1569   -4.7093   H         1 RES1   0.0000
@<TRIPOS>BOND
     1     1     8    1
     2     1    13    1
     3     1    21    1
     4     1    76    1
     5     1    81    1
     6     1    89    1
     7     1   144    1
     8     1   149    1
     9     1   157    1
    10     2     3    1
    11     2    28    1
    12     2    29    1
    13     2    30    1
    14     3     4    1
    15     3    31    1
    16     3    32    1
    17     4     5    1
    18     4    33    1
    19     4    34    1
    20     5     6    1
    21     5    35    1
    22     5    36    1
    23     6     7    1
    24     6    37    1
    25     6    38    1
    26     7     8    1
    27     7    39    1
    28     7    40    1
    29     8     9    1
    30     9    10    1
    31     9    41    1
    32     9    42    1
    33    10    11    1
    34    10    43    1
    35    10    44    1
    36    11    12    1
    37    11    20    1
    38    11    45    1
    39    12    13    2
    40    12    14    1
    41    14    15    1
    42    14    16    1
    43    15    46    1
    44    15    47    1
    45    15    48    1
    46    16    17    1
    47    16    49    1
    48    16    50    1
    49    17    18    1
    50    17    51    1
    51    17    52    1
    52    18    19    1
    53    18    53    1
    54    18    54    1
    55    19    55    1
    56    19    56    1
    57    19    57    1
    58    20    21    2
    59    20    22    1
    60    22    23    1
    61    22    24    1
    62    23    58    1
    63    23    59    1
    64    23    60    1
    65    24    25    1
    66    24    61    1
    67    24    62    1
    68    25    26    1
    69    25    63    1
    70    25    64    1
    71    26    27    1
    72    26    65    1
    73    26    66    1
    74    27    67    1
    75    27    68    1
    76    27    69    1
    77    70    71    1
    78    70    96    1
    79    70    97    1
    80    70    98    1
    81    71    72    1
    82    71    99    1
    83    71   100    1
    84    72    73    1
    85    72   101    1
    86    72   102    1
    87    73    74    1
    88    73   103    1
    89    73   104    1
    90    74    75    1
    91    74   105    1
    92    74   106    1
    93    75    76    1
    94    75   107    1
    95    75   108    1
    96    76    77    1
    97    77    78    1
    98    77   109    1
    99    77   110    1
   100    78    79    1
   101    78   111    1
   102    78   112    1
   103    79    80    1
   104    79    88    1
   105    79   113    1
   106    80    81    2
   107    80    82    1
   108    82    83    1
   109    82    84    1
   110    83   114    1
   111    83   115    1
   112    83   116    1
   113    84    85    1
   114    84   117    1
   115    84   118    1
   116    85    86    1
   117    85   119    1
   118    85   120    1
   119    86    87    1
   120    86   121    1
   121    86   122    1
   122    87   123    1
   123    87   124    1
   124    87   125    1
   125    88    89    2
   126    88    90    1
   127    90    91    1
   128    90    92    1
   129    91   126    1
   130    91   127    1
   131    91   128    1
   132    92    93    1
   133    92   129    1
   134    92   130    1
   135    93    94    1
   136    93   131    1
   137    93   132    1
   138    94    95    1
   139    94   133    1
   140    94   134    1
   141    95   135    1
   142    95   136    1
   143    95   137    1
   144   138   139    1
   145   138   164    1
   146   138   165    1
   147   138   166    1
   148   139   140    1
   149   139   167    1
   150   139   168    1
   151   140   141    1
   152   140   169    1
   153   140   170    1
   154   141   142    1
   155   141   171    1
   156   141   172    1
   157   142   143    1
   158   142   173    1
   159   142   174    1
   160   143   144    1
   161   143   175    1
   162   143   176    1
   163   144   145    1
   164   145   146    1
   165   145   177    1
   166   145   178    1
   167   146   147    1
   168   146   179    1
   169   146   180    1
   170   147   148    1
   171   147   156    1
   172   147   181    1
   173   148   149    2
   174   148   150    1
   175   150   151    1
   176   150   152    1
   177   151   182    1
   178   151   183    1
   179   151   184    1
   180   152   153    1
   181   152   185    1
   182   152   186    1
   183   153   154    1
   184   153   187    1
   185   153   188    1
   186   154   155    1
   187   154   189    1
   188   154   190    1
   189   155   191    1
   190   155   192    1
   191   155   193    1
   192   156   157    2
   193   156   158    1
   194   158   159    1
   195   158   160    1
   196   159   194    1
   197   159   195    1
   198   159   196    1
   199   160   161    1
   200   160   197    1
   201   160   198    1
   202   161   162    1
   203   161   199    1
   204   161   200    1
   205   162   163    1
   206   162   201    1
   207   162   202    1
   208   163   203    1
   209   163   204    1
   210   163   205    1
@<TRIPOS>SUBSTRUCTURE
     1 RES1      205 GROUP             0 ****  ****    0  
