@<TRIPOS>MOLECULE
am_c3_9H2O_c0_0_nunpairedes_0_charge_3 Charge: 3 Unpaired_Electrons: 0 XTB_Unpaired_Electrons: 0 XTB_Charge: 3
   214   219     1     0     0
SMALL
NoCharges
****
Generated from Architector

@<TRIPOS>ATOM
     1 La1      -0.1193    0.1718    0.3856   La        1 RES1   0.0000
     2 C1       -3.0701   -0.4608    8.0862   C.3       1 RES1   0.0000
     3 C2       -2.2450    0.7740    7.7370   C.3       1 RES1   0.0000
     4 C3       -2.9891    1.6809    6.7535   C.3       1 RES1   0.0000
     5 C4       -2.3236    3.0443    6.5359   C.3       1 RES1   0.0000
     6 C5       -1.3811    3.1904    5.3310   C.3       1 RES1   0.0000
     7 C6       -0.2760    2.1386    5.2844   C.3       1 RES1   0.0000
     8 C7        0.9214    2.5848    4.4556   C.3       1 RES1   0.0000
     9 C8       -2.0678    3.4137    3.9711   C.3       1 RES1   0.0000
    10 N1       -2.9035    2.3974    3.3154   N.am      1 RES1   0.0000
    11 C9       -4.3235    2.5150    3.6088   C.3       1 RES1   0.0000
    12 C10      -2.4250    1.6572    2.3242   C.2       1 RES1   0.0000
    13 O1       -1.2065    1.4866    2.1177   O.2       1 RES1   0.0000
    14 C11      -3.4174    0.9698    1.3651   C.3       1 RES1   0.0000
    15 O2       -2.7256    0.5157    0.1983   O.3       1 RES1   0.0000
    16 C12      -3.2590    0.9775   -1.0410   C.3       1 RES1   0.0000
    17 C13      -2.1731    1.6684   -1.8887   C.2       1 RES1   0.0000
    18 O3       -0.9814    1.5895   -1.5254   O.2       1 RES1   0.0000
    19 N2       -2.5390    2.3025   -3.0006   N.am      1 RES1   0.0000
    20 C14      -3.8790    2.2851   -3.5629   C.3       1 RES1   0.0000
    21 C15      -1.5175    2.8700   -3.8928   C.3       1 RES1   0.0000
    22 C16      -1.0044    4.2891   -3.5721   C.3       1 RES1   0.0000
    23 C17       0.1165    4.6596   -4.5574   C.3       1 RES1   0.0000
    24 C18       1.2694    3.6612   -4.6562   C.3       1 RES1   0.0000
    25 C19      -2.1126    5.3597   -3.6205   C.3       1 RES1   0.0000
    26 C20      -1.8938    6.6047   -2.7413   C.3       1 RES1   0.0000
    27 C21      -1.0538    7.7532   -3.2991   C.3       1 RES1   0.0000
    28 C22      -0.9994    8.8849   -2.2755   C.3       1 RES1   0.0000
    29 H1       -2.5115   -1.1169    8.7500   H         1 RES1   0.0000
    30 H2       -3.9836   -0.1682    8.5971   H         1 RES1   0.0000
    31 H3       -3.3440   -1.0163    7.1911   H         1 RES1   0.0000
    32 H4       -2.0475    1.3288    8.6553   H         1 RES1   0.0000
    33 H5       -1.2823    0.4648    7.3238   H         1 RES1   0.0000
    34 H6       -3.9909    1.8413    7.1589   H         1 RES1   0.0000
    35 H7       -3.1003    1.1672    5.7992   H         1 RES1   0.0000
    36 H8       -3.0932    3.8167    6.4553   H         1 RES1   0.0000
    37 H9       -1.7406    3.2837    7.4259   H         1 RES1   0.0000
    38 H10      -0.8872    4.1578    5.4865   H         1 RES1   0.0000
    39 H11       0.0587    1.9689    6.3067   H         1 RES1   0.0000
    40 H12      -0.6692    1.2068    4.8832   H         1 RES1   0.0000
    41 H13       1.2433    3.5790    4.7561   H         1 RES1   0.0000
    42 H14       1.7455    1.9003    4.6185   H         1 RES1   0.0000
    43 H15       0.6953    2.5826    3.3915   H         1 RES1   0.0000
    44 H16      -2.7121    4.2844    4.0988   H         1 RES1   0.0000
    45 H17      -1.2737    3.6576    3.2680   H         1 RES1   0.0000
    46 H18      -4.4267    2.7359    4.6703   H         1 RES1   0.0000
    47 H19      -4.7689    3.3409    3.0490   H         1 RES1   0.0000
    48 H20      -4.8702    1.5987    3.3922   H         1 RES1   0.0000
    49 H21      -3.8631    0.0962    1.8618   H         1 RES1   0.0000
    50 H22      -4.2193    1.6601    1.0881   H         1 RES1   0.0000
    51 H23      -3.6295    0.1045   -1.5999   H         1 RES1   0.0000
    52 H24      -4.0884    1.6642   -0.8603   H         1 RES1   0.0000
    53 H25      -4.6117    1.8058   -2.9238   H         1 RES1   0.0000
    54 H26      -4.2143    3.3014   -3.7734   H         1 RES1   0.0000
    55 H27      -3.8593    1.7421   -4.5096   H         1 RES1   0.0000
    56 H28      -0.6613    2.1932   -3.8585   H         1 RES1   0.0000
    57 H29      -1.9241    2.8736   -4.9037   H         1 RES1   0.0000
    58 H30      -0.5788    4.2486   -2.5675   H         1 RES1   0.0000
    59 H31      -0.3142    4.7981   -5.5491   H         1 RES1   0.0000
    60 H32       0.5092    5.6271   -4.2496   H         1 RES1   0.0000
    61 H33       1.0601    2.8857   -5.3864   H         1 RES1   0.0000
    62 H34       2.1687    4.1795   -4.9787   H         1 RES1   0.0000
    63 H35       1.4666    3.1862   -3.6960   H         1 RES1   0.0000
    64 H36      -2.2619    5.6757   -4.6543   H         1 RES1   0.0000
    65 H37      -3.0452    4.9051   -3.2799   H         1 RES1   0.0000
    66 H38      -2.8803    7.0174   -2.5202   H         1 RES1   0.0000
    67 H39      -1.4541    6.3051   -1.7895   H         1 RES1   0.0000
    68 H40      -0.0355    7.4290   -3.5186   H         1 RES1   0.0000
    69 H41      -1.4893    8.1240   -4.2274   H         1 RES1   0.0000
    70 H42      -0.5551    8.5382   -1.3427   H         1 RES1   0.0000
    71 H43      -0.4052    9.7141   -2.6471   H         1 RES1   0.0000
    72 H44      -1.9966    9.2583   -2.0553   H         1 RES1   0.0000
    73 C23       1.9290   -7.9284    0.1307   C.3       1 RES1   0.0000
    74 C24       2.5842   -6.5629   -0.0567   C.3       1 RES1   0.0000
    75 C25       3.3774   -6.2027    1.2014   C.3       1 RES1   0.0000
    76 C26       3.9526   -4.7726    1.2258   C.3       1 RES1   0.0000
    77 C27       3.6617   -4.0283    2.5407   C.3       1 RES1   0.0000
    78 C28       4.3702   -4.6926    3.7292   C.3       1 RES1   0.0000
    79 C29       3.8572   -4.1982    5.0768   C.3       1 RES1   0.0000
    80 C30       4.0291   -2.5208    2.5259   C.3       1 RES1   0.0000
    81 N3        4.1119   -1.8495    1.2344   N.am      1 RES1   0.0000
    82 C31       5.3479   -2.0427    0.4982   C.3       1 RES1   0.0000
    83 C32       3.2060   -0.9541    0.8529   C.2       1 RES1   0.0000
    84 O4        2.1382   -0.7223    1.4500   O.2       1 RES1   0.0000
    85 C33       3.5415   -0.1634   -0.4259   C.3       1 RES1   0.0000
    86 O5        2.4850    0.7434   -0.6967   O.3       1 RES1   0.0000
    87 C34       2.8652    2.1119   -0.7552   C.3       1 RES1   0.0000
    88 C35       1.7025    2.9537   -0.2298   C.2       1 RES1   0.0000
    89 O6        0.7747    2.3928    0.3809   O.2       1 RES1   0.0000
    90 N4        1.7434    4.2554   -0.4491   N.am      1 RES1   0.0000
    91 C36       2.8185    4.8996   -1.1809   C.3       1 RES1   0.0000
    92 C37       0.5479    5.0509   -0.1778   C.3       1 RES1   0.0000
    93 C38       0.1128    5.3029    1.2754   C.3       1 RES1   0.0000
    94 C39       1.1616    6.0255    2.1324   C.3       1 RES1   0.0000
    95 C40       2.4907    5.2922    2.2807   C.3       1 RES1   0.0000
    96 C41      -1.1660    6.1732    1.2105   C.3       1 RES1   0.0000
    97 C42      -2.5366    5.4893    1.2145   C.3       1 RES1   0.0000
    98 C43      -2.8128    4.4506    0.1273   C.3       1 RES1   0.0000
    99 C44      -4.3165    4.2885   -0.0652   C.3       1 RES1   0.0000
   100 H45       1.2320   -8.1516   -0.6730   H         1 RES1   0.0000
   101 H46       2.6890   -8.7045    0.1472   H         1 RES1   0.0000
   102 H47       1.3909   -7.9658    1.0777   H         1 RES1   0.0000
   103 H48       3.2410   -6.5888   -0.9287   H         1 RES1   0.0000
   104 H49       1.8108   -5.8089   -0.2458   H         1 RES1   0.0000
   105 H50       2.7258   -6.3627    2.0615   H         1 RES1   0.0000
   106 H51       4.1942   -6.9149    1.2924   H         1 RES1   0.0000
   107 H52       5.0301   -4.8373    1.0802   H         1 RES1   0.0000
   108 H53       3.5350   -4.1971    0.3919   H         1 RES1   0.0000
   109 H54       2.5870   -4.1046    2.7281   H         1 RES1   0.0000
   110 H55       4.2216   -5.7700    3.6688   H         1 RES1   0.0000
   111 H56       5.4425   -4.5091    3.6575   H         1 RES1   0.0000
   112 H57       2.7718   -4.1390    5.0856   H         1 RES1   0.0000
   113 H58       4.1595   -4.8796    5.8640   H         1 RES1   0.0000
   114 H59       4.2506   -3.2173    5.3192   H         1 RES1   0.0000
   115 H60       3.2935   -1.9777    3.1146   H         1 RES1   0.0000
   116 H61       5.0065   -2.3992    2.9996   H         1 RES1   0.0000
   117 H62       5.8643   -2.9025    0.9152   H         1 RES1   0.0000
   118 H63       5.1560   -2.2444   -0.5544   H         1 RES1   0.0000
   119 H64       6.0114   -1.1793    0.5894   H         1 RES1   0.0000
   120 H65       4.4973    0.3544   -0.2846   H         1 RES1   0.0000
   121 H66       3.6645   -0.8319   -1.2914   H         1 RES1   0.0000
   122 H67       3.7426    2.3132   -0.1278   H         1 RES1   0.0000
   123 H68       3.0989    2.3878   -1.7935   H         1 RES1   0.0000
   124 H69       3.7897    4.4975   -0.9015   H         1 RES1   0.0000
   125 H70       2.6803    4.7775   -2.2583   H         1 RES1   0.0000
   126 H71       2.8181    5.9641   -0.9582   H         1 RES1   0.0000
   127 H72       0.6920    6.0119   -0.6702   H         1 RES1   0.0000
   128 H73      -0.2821    4.5245   -0.6503   H         1 RES1   0.0000
   129 H74      -0.1108    4.3327    1.7322   H         1 RES1   0.0000
   130 H75       1.3358    7.0224    1.7206   H         1 RES1   0.0000
   131 H76       0.7258    6.1649    3.1221   H         1 RES1   0.0000
   132 H77       3.1391    5.4682    1.4312   H         1 RES1   0.0000
   133 H78       3.0105    5.6534    3.1629   H         1 RES1   0.0000
   134 H79       2.3298    4.2223    2.3903   H         1 RES1   0.0000
   135 H80      -1.1598    6.8440    2.0703   H         1 RES1   0.0000
   136 H81      -1.1062    6.8137    0.3289   H         1 RES1   0.0000
   137 H82      -2.7175    5.0360    2.1850   H         1 RES1   0.0000
   138 H83      -3.2647    6.2944    1.1034   H         1 RES1   0.0000
   139 H84      -2.4009    4.7875   -0.8199   H         1 RES1   0.0000
   140 H85      -2.3389    3.4947    0.3783   H         1 RES1   0.0000
   141 H86      -4.7681    5.2531   -0.2768   H         1 RES1   0.0000
   142 H87      -4.5531    3.6394   -0.9041   H         1 RES1   0.0000
   143 H88      -4.7956    3.8999    0.8296   H         1 RES1   0.0000
   144 C45       3.1405   -0.4913    5.6386   C.3       1 RES1   0.0000
   145 C46       1.8529   -1.1691    6.0885   C.3       1 RES1   0.0000
   146 C47       0.9079   -1.5907    4.9571   C.3       1 RES1   0.0000
   147 C48      -0.2176   -2.4219    5.5772   C.3       1 RES1   0.0000
   148 C49      -1.5642   -2.5289    4.8493   C.3       1 RES1   0.0000
   149 C50      -2.1360   -1.1685    4.4437   C.3       1 RES1   0.0000
   150 C51      -3.6340   -1.2272    4.1527   C.3       1 RES1   0.0000
   151 C52      -1.6539   -3.5673    3.7159   C.3       1 RES1   0.0000
   152 N5       -0.5473   -3.7694    2.7702   N.am      1 RES1   0.0000
   153 C53       0.0338   -5.1008    2.8734   C.3       1 RES1   0.0000
   154 C54      -0.3305   -2.9235    1.7772   C.2       1 RES1   0.0000
   155 O7       -0.8712   -1.8024    1.6907   O.2       1 RES1   0.0000
   156 C55       0.5442   -3.3967    0.6123   C.3       1 RES1   0.0000
   157 O8        0.8832   -2.3073   -0.2378   O.3       1 RES1   0.0000
   158 C56       0.9334   -2.6421   -1.6155   C.3       1 RES1   0.0000
   159 C57      -0.3782   -2.1831   -2.2717   C.2       1 RES1   0.0000
   160 O9       -0.9922   -1.2558   -1.7086   O.2       1 RES1   0.0000
   161 N6       -0.7712   -2.7772   -3.3841   N.am      1 RES1   0.0000
   162 C58       0.0232   -3.7390   -4.1288   C.3       1 RES1   0.0000
   163 C59      -2.0518   -2.4374   -4.0019   C.3       1 RES1   0.0000
   164 C60      -3.2959   -2.8067   -3.1754   C.3       1 RES1   0.0000
   165 C61      -4.5331   -2.6915   -4.0769   C.3       1 RES1   0.0000
   166 C62      -4.8211   -1.2727   -4.5429   C.3       1 RES1   0.0000
   167 C63      -3.2204   -4.2087   -2.5416   C.3       1 RES1   0.0000
   168 C64      -3.5641   -4.1979   -1.0497   C.3       1 RES1   0.0000
   169 C65      -5.0307   -3.8694   -0.7719   C.3       1 RES1   0.0000
   170 C66      -5.3824   -4.0393    0.7025   C.3       1 RES1   0.0000
   171 H89       3.7000   -0.1532    6.5088   H         1 RES1   0.0000
   172 H90       3.7795   -1.1720    5.0821   H         1 RES1   0.0000
   173 H91       2.9299    0.3697    5.0083   H         1 RES1   0.0000
   174 H92       2.1118   -2.0484    6.6815   H         1 RES1   0.0000
   175 H93       1.3152   -0.4800    6.7433   H         1 RES1   0.0000
   176 H94       0.5199   -0.7000    4.4612   H         1 RES1   0.0000
   177 H95       1.4450   -2.1734    4.2063   H         1 RES1   0.0000
   178 H96       0.1537   -3.4274    5.7779   H         1 RES1   0.0000
   179 H97      -0.4375   -1.9755    6.5480   H         1 RES1   0.0000
   180 H98      -2.2541   -2.9291    5.6039   H         1 RES1   0.0000
   181 H99      -1.9741   -0.4981    5.2830   H         1 RES1   0.0000
   182 H100     -1.6017   -0.7709    3.5783   H         1 RES1   0.0000
   183 H101     -4.1493   -1.8267    4.8974   H         1 RES1   0.0000
   184 H102     -4.0654   -0.2309    4.1872   H         1 RES1   0.0000
   185 H103     -3.8387   -1.6590    3.1761   H         1 RES1   0.0000
   186 H104     -1.8203   -4.5393    4.1795   H         1 RES1   0.0000
   187 H105     -2.5301   -3.3223    3.1138   H         1 RES1   0.0000
   188 H106      0.4535   -5.2261    3.8729   H         1 RES1   0.0000
   189 H107     -0.7495   -5.8524    2.7424   H         1 RES1   0.0000
   190 H108      0.8097   -5.2942    2.1425   H         1 RES1   0.0000
   191 H109      1.4710   -3.8567    0.9536   H         1 RES1   0.0000
   192 H110     -0.0581   -4.1311    0.0699   H         1 RES1   0.0000
   193 H111      1.7564   -2.0734   -2.0681   H         1 RES1   0.0000
   194 H112      1.1310   -3.7079   -1.7391   H         1 RES1   0.0000
   195 H113      1.0502   -3.7969   -3.7876   H         1 RES1   0.0000
   196 H114     -0.4318   -4.7299   -4.0838   H         1 RES1   0.0000
   197 H115      0.0514   -3.4289   -5.1726   H         1 RES1   0.0000
   198 H116     -2.0638   -1.3608   -4.1893   H         1 RES1   0.0000
   199 H117     -2.1013   -2.9567   -4.9582   H         1 RES1   0.0000
   200 H118     -3.3774   -2.0771   -2.3655   H         1 RES1   0.0000
   201 H119     -4.4079   -3.3408   -4.9437   H         1 RES1   0.0000
   202 H120     -5.3948   -3.0598   -3.5217   H         1 RES1   0.0000
   203 H121     -4.0537   -0.9120   -5.2216   H         1 RES1   0.0000
   204 H122     -5.7737   -1.2466   -5.0618   H         1 RES1   0.0000
   205 H123     -4.8807   -0.6036   -3.6873   H         1 RES1   0.0000
   206 H124     -3.9152   -4.8752   -3.0525   H         1 RES1   0.0000
   207 H125     -2.2240   -4.6368   -2.6658   H         1 RES1   0.0000
   208 H126     -3.3494   -5.1875   -0.6434   H         1 RES1   0.0000
   209 H127     -2.9226   -3.4775   -0.5287   H         1 RES1   0.0000
   210 H128     -5.2466   -2.8434   -1.0799   H         1 RES1   0.0000
   211 H129     -5.6642   -4.5334   -1.3633   H         1 RES1   0.0000
   212 H130     -4.7466   -3.4080    1.3248   H         1 RES1   0.0000
   213 H131     -6.4213   -3.7659    0.8715   H         1 RES1   0.0000
   214 H132     -5.2529   -5.0752    1.0086   H         1 RES1   0.0000
@<TRIPOS>BOND
     1     1    13    1
     2     1    15    1
     3     1    18    1
     4     1    84    1
     5     1    86    1
     6     1    89    1
     7     1   155    1
     8     1   157    1
     9     1   160    1
    10     2     3    1
    11     2    29    1
    12     2    30    1
    13     2    31    1
    14     3     4    1
    15     3    32    1
    16     3    33    1
    17     4     5    1
    18     4    34    1
    19     4    35    1
    20     5     6    1
    21     5    36    1
    22     5    37    1
    23     6     7    1
    24     6     9    1
    25     6    38    1
    26     7     8    1
    27     7    39    1
    28     7    40    1
    29     8    41    1
    30     8    42    1
    31     8    43    1
    32     9    10    1
    33     9    44    1
    34     9    45    1
    35    10    11    1
    36    10    12    1
    37    11    46    1
    38    11    47    1
    39    11    48    1
    40    12    13    2
    41    12    14    1
    42    14    15    1
    43    14    49    1
    44    14    50    1
    45    15    16    1
    46    16    17    1
    47    16    51    1
    48    16    52    1
    49    17    18    2
    50    17    19    1
    51    19    20    1
    52    19    21    1
    53    20    53    1
    54    20    54    1
    55    20    55    1
    56    21    22    1
    57    21    56    1
    58    21    57    1
    59    22    23    1
    60    22    25    1
    61    22    58    1
    62    23    24    1
    63    23    59    1
    64    23    60    1
    65    24    61    1
    66    24    62    1
    67    24    63    1
    68    25    26    1
    69    25    64    1
    70    25    65    1
    71    26    27    1
    72    26    66    1
    73    26    67    1
    74    27    28    1
    75    27    68    1
    76    27    69    1
    77    28    70    1
    78    28    71    1
    79    28    72    1
    80    73    74    1
    81    73   100    1
    82    73   101    1
    83    73   102    1
    84    74    75    1
    85    74   103    1
    86    74   104    1
    87    75    76    1
    88    75   105    1
    89    75   106    1
    90    76    77    1
    91    76   107    1
    92    76   108    1
    93    77    78    1
    94    77    80    1
    95    77   109    1
    96    78    79    1
    97    78   110    1
    98    78   111    1
    99    79   112    1
   100    79   113    1
   101    79   114    1
   102    80    81    1
   103    80   115    1
   104    80   116    1
   105    81    82    1
   106    81    83    1
   107    82   117    1
   108    82   118    1
   109    82   119    1
   110    83    84    2
   111    83    85    1
   112    85    86    1
   113    85   120    1
   114    85   121    1
   115    86    87    1
   116    87    88    1
   117    87   122    1
   118    87   123    1
   119    88    89    2
   120    88    90    1
   121    90    91    1
   122    90    92    1
   123    91   124    1
   124    91   125    1
   125    91   126    1
   126    92    93    1
   127    92   127    1
   128    92   128    1
   129    93    94    1
   130    93    96    1
   131    93   129    1
   132    94    95    1
   133    94   130    1
   134    94   131    1
   135    95   132    1
   136    95   133    1
   137    95   134    1
   138    96    97    1
   139    96   135    1
   140    96   136    1
   141    97    98    1
   142    97   137    1
   143    97   138    1
   144    98    99    1
   145    98   139    1
   146    98   140    1
   147    99   141    1
   148    99   142    1
   149    99   143    1
   150   144   145    1
   151   144   171    1
   152   144   172    1
   153   144   173    1
   154   145   146    1
   155   145   174    1
   156   145   175    1
   157   146   147    1
   158   146   176    1
   159   146   177    1
   160   147   148    1
   161   147   178    1
   162   147   179    1
   163   148   149    1
   164   148   151    1
   165   148   180    1
   166   149   150    1
   167   149   181    1
   168   149   182    1
   169   150   183    1
   170   150   184    1
   171   150   185    1
   172   151   152    1
   173   151   186    1
   174   151   187    1
   175   152   153    1
   176   152   154    1
   177   153   188    1
   178   153   189    1
   179   153   190    1
   180   154   155    2
   181   154   156    1
   182   156   157    1
   183   156   191    1
   184   156   192    1
   185   157   158    1
   186   158   159    1
   187   158   193    1
   188   158   194    1
   189   159   160    2
   190   159   161    1
   191   161   162    1
   192   161   163    1
   193   162   195    1
   194   162   196    1
   195   162   197    1
   196   163   164    1
   197   163   198    1
   198   163   199    1
   199   164   165    1
   200   164   167    1
   201   164   200    1
   202   165   166    1
   203   165   201    1
   204   165   202    1
   205   166   203    1
   206   166   204    1
   207   166   205    1
   208   167   168    1
   209   167   206    1
   210   167   207    1
   211   168   169    1
   212   168   208    1
   213   168   209    1
   214   169   170    1
   215   169   210    1
   216   169   211    1
   217   170   212    1
   218   170   213    1
   219   170   214    1
@<TRIPOS>SUBSTRUCTURE
     1 RES1      214 GROUP             0 ****  ****    0  
