@<TRIPOS>MOLECULE
am_c3_9H2O_c0_0_nunpairedes_0_charge_3 Charge: 3 Unpaired_Electrons: 0 XTB_Unpaired_Electrons: 0 XTB_Charge: 3
   340   345     1     0     0
SMALL
NoCharges
****
Generated from Architector

@<TRIPOS>ATOM
     1 La1       0.0184    0.1081    0.0616   La        1 RES1   0.0000
     2 C1       -5.0087   -7.6271    3.8686   C.3       1 RES1   0.0000
     3 C2       -4.8249   -6.1165    3.7512   C.3       1 RES1   0.0000
     4 C3       -6.0518   -5.3638    4.2700   C.3       1 RES1   0.0000
     5 C4       -5.9916   -3.8252    4.1815   C.3       1 RES1   0.0000
     6 C5       -6.5203   -3.3056    2.8382   C.3       1 RES1   0.0000
     7 C6       -6.7731   -1.7873    2.7352   C.3       1 RES1   0.0000
     8 C7       -5.6507   -0.8612    2.2219   C.3       1 RES1   0.0000
     9 C8       -5.3332   -0.9497    0.7142   C.3       1 RES1   0.0000
    10 N1       -4.9473    0.3479    0.1563   N.am      1 RES1   0.0000
    11 C9       -6.0777    1.1972   -0.1984   C.3       1 RES1   0.0000
    12 C10      -6.6665    0.8713   -1.5989   C.3       1 RES1   0.0000
    13 C11      -7.9324    1.7291   -1.7713   C.3       1 RES1   0.0000
    14 C12      -8.8195    1.3660   -2.9614   C.3       1 RES1   0.0000
    15 C13      -5.5943    1.1227   -2.6674   C.3       1 RES1   0.0000
    16 C14      -5.7904    0.4352   -4.0211   C.3       1 RES1   0.0000
    17 C15      -5.7718   -1.0925   -3.9931   C.3       1 RES1   0.0000
    18 C16      -4.4015   -1.6353   -3.6025   C.3       1 RES1   0.0000
    19 C17      -3.6709    0.6335   -0.0820   C.2       1 RES1   0.0000
    20 O1       -2.7411   -0.1962   -0.0317   O.2       1 RES1   0.0000
    21 C18      -3.3076    2.0967   -0.3348   C.3       1 RES1   0.0000
    22 O2       -1.9217    2.1836   -0.6693   O.3       1 RES1   0.0000
    23 C19      -1.3376    3.3010   -0.0234   C.3       1 RES1   0.0000
    24 C20      -1.1529    2.9107    1.4482   C.2       1 RES1   0.0000
    25 O3       -0.8670    1.7106    1.6647   O.2       1 RES1   0.0000
    26 N2       -1.3811    3.7731    2.4255   N.am      1 RES1   0.0000
    27 C21      -1.3000    3.2873    3.7992   C.3       1 RES1   0.0000
    28 C22       0.1178    3.2445    4.3614   C.3       1 RES1   0.0000
    29 C23       0.0932    2.4328    5.6528   C.3       1 RES1   0.0000
    30 C24       1.4000    2.4359    6.4380   C.3       1 RES1   0.0000
    31 C25       1.3315    1.3754    7.5354   C.3       1 RES1   0.0000
    32 C26       2.4700    1.4436    8.5468   C.3       1 RES1   0.0000
    33 C27       3.8366    1.1645    7.9264   C.3       1 RES1   0.0000
    34 C28       4.9244    1.0343    8.9871   C.3       1 RES1   0.0000
    35 C29      -1.6290    5.1872    2.2244   C.3       1 RES1   0.0000
    36 C30      -0.3598    6.0590    2.1449   C.3       1 RES1   0.0000
    37 C31       0.6577    5.5029    1.1442   C.3       1 RES1   0.0000
    38 C32       1.9520    6.3086    1.0999   C.3       1 RES1   0.0000
    39 C33      -0.7832    7.5182    1.8847   C.3       1 RES1   0.0000
    40 C34      -1.5471    7.8381    0.5900   C.3       1 RES1   0.0000
    41 C35      -0.7197    7.9181   -0.6954   C.3       1 RES1   0.0000
    42 C36      -1.5514    8.4396   -1.8611   C.3       1 RES1   0.0000
    43 H1       -4.1474   -8.1535    3.4625   H         1 RES1   0.0000
    44 H2       -5.8953   -7.9529    3.3293   H         1 RES1   0.0000
    45 H3       -5.1185   -7.9153    4.9110   H         1 RES1   0.0000
    46 H4       -4.6485   -5.8582    2.7039   H         1 RES1   0.0000
    47 H5       -3.9330   -5.8294    4.3187   H         1 RES1   0.0000
    48 H6       -6.1974   -5.6494    5.3108   H         1 RES1   0.0000
    49 H7       -6.9236   -5.7136    3.7141   H         1 RES1   0.0000
    50 H8       -4.9718   -3.4988    4.3625   H         1 RES1   0.0000
    51 H9       -6.6162   -3.4195    4.9806   H         1 RES1   0.0000
    52 H10      -7.4829   -3.8024    2.6848   H         1 RES1   0.0000
    53 H11      -5.8601   -3.6456    2.0406   H         1 RES1   0.0000
    54 H12      -7.0505   -1.4335    3.7287   H         1 RES1   0.0000
    55 H13      -7.6487   -1.6221    2.1019   H         1 RES1   0.0000
    56 H14      -4.7448   -1.0182    2.7999   H         1 RES1   0.0000
    57 H15      -5.9879    0.1582    2.4162   H         1 RES1   0.0000
    58 H16      -6.2261   -1.2755    0.1828   H         1 RES1   0.0000
    59 H17      -4.5142   -1.6374    0.5106   H         1 RES1   0.0000
    60 H18      -5.7933    2.2475   -0.1843   H         1 RES1   0.0000
    61 H19      -6.8497    1.0548    0.5617   H         1 RES1   0.0000
    62 H20      -6.9679   -0.1798   -1.6274   H         1 RES1   0.0000
    63 H21      -7.6429    2.7781   -1.8529   H         1 RES1   0.0000
    64 H22      -8.5303    1.6265   -0.8617   H         1 RES1   0.0000
    65 H23      -8.4290    1.7520   -3.8974   H         1 RES1   0.0000
    66 H24      -9.8009    1.8094   -2.8196   H         1 RES1   0.0000
    67 H25      -8.9378    0.2895   -3.0519   H         1 RES1   0.0000
    68 H26      -4.6282    0.7938   -2.2748   H         1 RES1   0.0000
    69 H27      -5.5286    2.1991   -2.8441   H         1 RES1   0.0000
    70 H28      -4.9767    0.7644   -4.6727   H         1 RES1   0.0000
    71 H29      -6.7192    0.7679   -4.4713   H         1 RES1   0.0000
    72 H30      -6.0127   -1.4517   -4.9940   H         1 RES1   0.0000
    73 H31      -6.5353   -1.4871   -3.3207   H         1 RES1   0.0000
    74 H32      -3.6546   -1.2745   -4.3084   H         1 RES1   0.0000
    75 H33      -4.3964   -2.7247   -3.6259   H         1 RES1   0.0000
    76 H34      -4.1274   -1.2948   -2.6029   H         1 RES1   0.0000
    77 H35      -3.5065    2.6299    0.6028   H         1 RES1   0.0000
    78 H36      -3.8949    2.5618   -1.1317   H         1 RES1   0.0000
    79 H37      -1.9645    4.1817   -0.1830   H         1 RES1   0.0000
    80 H38      -0.3641    3.4560   -0.4882   H         1 RES1   0.0000
    81 H39      -1.7097    2.2748    3.8105   H         1 RES1   0.0000
    82 H40      -1.9305    3.9191    4.4268   H         1 RES1   0.0000
    83 H41       0.4818    4.2531    4.5544   H         1 RES1   0.0000
    84 H42       0.7731    2.7660    3.6307   H         1 RES1   0.0000
    85 H43      -0.1667    1.4023    5.4051   H         1 RES1   0.0000
    86 H44      -0.7034    2.8148    6.2921   H         1 RES1   0.0000
    87 H45       1.5620    3.4141    6.8898   H         1 RES1   0.0000
    88 H46       2.2282    2.2273    5.7581   H         1 RES1   0.0000
    89 H47       1.3298    0.3921    7.0658   H         1 RES1   0.0000
    90 H48       0.3883    1.4797    8.0719   H         1 RES1   0.0000
    91 H49       2.2819    0.7057    9.3288   H         1 RES1   0.0000
    92 H50       2.4808    2.4228    9.0275   H         1 RES1   0.0000
    93 H51       4.1155    1.9692    7.2384   H         1 RES1   0.0000
    94 H52       3.7859    0.2311    7.3564   H         1 RES1   0.0000
    95 H53       4.9774    1.9288    9.6060   H         1 RES1   0.0000
    96 H54       5.8987    0.8756    8.5250   H         1 RES1   0.0000
    97 H55       4.7168    0.1891    9.6406   H         1 RES1   0.0000
    98 H56      -2.2374    5.5343    3.0606   H         1 RES1   0.0000
    99 H57      -2.2207    5.3310    1.3212   H         1 RES1   0.0000
   100 H58       0.1221    6.0452    3.1292   H         1 RES1   0.0000
   101 H59       0.2137    5.4860    0.1504   H         1 RES1   0.0000
   102 H60       0.8936    4.4723    1.4278   H         1 RES1   0.0000
   103 H61       1.7900    7.2774    0.6400   H         1 RES1   0.0000
   104 H62       2.7077    5.7828    0.5208   H         1 RES1   0.0000
   105 H63       2.3415    6.4625    2.1025   H         1 RES1   0.0000
   106 H64       0.1018    8.1519    1.9353   H         1 RES1   0.0000
   107 H65      -1.4228    7.8116    2.7216   H         1 RES1   0.0000
   108 H66      -2.0120    8.8145    0.7392   H         1 RES1   0.0000
   109 H67      -2.3655    7.1297    0.4450   H         1 RES1   0.0000
   110 H68      -0.3320    6.9373   -0.9759   H         1 RES1   0.0000
   111 H69       0.1327    8.5805   -0.5354   H         1 RES1   0.0000
   112 H70      -2.4148    7.8024   -2.0421   H         1 RES1   0.0000
   113 H71      -0.9508    8.4680   -2.7654   H         1 RES1   0.0000
   114 H72      -1.9068    9.4443   -1.6600   H         1 RES1   0.0000
   115 C37       0.2396   -2.4451    9.1473   C.3       1 RES1   0.0000
   116 C38       0.1012   -2.4172    7.6323   C.3       1 RES1   0.0000
   117 C39       1.4233   -2.6845    6.9149   C.3       1 RES1   0.0000
   118 C40       1.2493   -2.6918    5.3973   C.3       1 RES1   0.0000
   119 C41       2.4810   -3.1872    4.6443   C.3       1 RES1   0.0000
   120 C42       3.6878   -2.2503    4.6782   C.3       1 RES1   0.0000
   121 C43       3.6604   -1.1737    3.5866   C.3       1 RES1   0.0000
   122 C44       3.1208    0.1951    4.0115   C.3       1 RES1   0.0000
   123 N3        3.4012    1.1805    2.9627   N.am      1 RES1   0.0000
   124 C45       4.7091    1.8274    3.0176   C.3       1 RES1   0.0000
   125 C46       4.8765    3.0044    3.9994   C.3       1 RES1   0.0000
   126 C47       6.3753    3.3741    4.0178   C.3       1 RES1   0.0000
   127 C48       6.9200    3.6023    5.4239   C.3       1 RES1   0.0000
   128 C49       3.9967    4.2005    3.6044   C.3       1 RES1   0.0000
   129 C50       4.1992    5.4696    4.4455   C.3       1 RES1   0.0000
   130 C51       3.6800    5.3807    5.8895   C.3       1 RES1   0.0000
   131 C52       2.4811    6.2948    6.1263   C.3       1 RES1   0.0000
   132 C53       2.6140    1.1671    1.8993   C.2       1 RES1   0.0000
   133 O4        1.6226    0.4154    1.8002   O.2       1 RES1   0.0000
   134 C54       2.9381    2.1200    0.7482   C.3       1 RES1   0.0000
   135 O5        1.7729    2.2795   -0.0563   O.3       1 RES1   0.0000
   136 C55       2.0482    2.7641   -1.3726   C.3       1 RES1   0.0000
   137 C56       1.6226    1.6565   -2.3520   C.2       1 RES1   0.0000
   138 O6        0.7268    0.8678   -1.9776   O.2       1 RES1   0.0000
   139 N4        2.2685    1.5186   -3.4961   N.am      1 RES1   0.0000
   140 C57       2.2270    0.2384   -4.1987   C.3       1 RES1   0.0000
   141 C58       0.9415   -0.1579   -4.9239   C.3       1 RES1   0.0000
   142 C59       1.2359   -1.3851   -5.7932   C.3       1 RES1   0.0000
   143 C60      -0.0094   -2.1526   -6.2345   C.3       1 RES1   0.0000
   144 C61      -0.6966   -2.8426   -5.0522   C.3       1 RES1   0.0000
   145 C62      -1.3134   -4.1906   -5.4128   C.3       1 RES1   0.0000
   146 C63      -2.4628   -4.0863   -6.4083   C.3       1 RES1   0.0000
   147 C64      -2.9974   -5.4698   -6.7538   C.3       1 RES1   0.0000
   148 C65       2.9376    2.6313   -4.1386   C.3       1 RES1   0.0000
   149 C66       2.0622    3.2874   -5.2279   C.3       1 RES1   0.0000
   150 C67       0.6427    3.5859   -4.7260   C.3       1 RES1   0.0000
   151 C68      -0.2751    4.0558   -5.8488   C.3       1 RES1   0.0000
   152 C69       2.8356    4.4887   -5.8078   C.3       1 RES1   0.0000
   153 C70       3.2730    5.6345   -4.8822   C.3       1 RES1   0.0000
   154 C71       2.1731    6.5906   -4.4167   C.3       1 RES1   0.0000
   155 C72       2.7504    7.8064   -3.6988   C.3       1 RES1   0.0000
   156 H73      -0.7208   -2.2532    9.6161   H         1 RES1   0.0000
   157 H74       0.9432   -1.6912    9.4884   H         1 RES1   0.0000
   158 H75       0.5897   -3.4161    9.4837   H         1 RES1   0.0000
   159 H76      -0.2842   -1.4414    7.3279   H         1 RES1   0.0000
   160 H77      -0.6272   -3.1725    7.3288   H         1 RES1   0.0000
   161 H78       1.8087   -3.6543    7.2327   H         1 RES1   0.0000
   162 H79       2.1542   -1.9312    7.2125   H         1 RES1   0.0000
   163 H80       0.9600   -1.6991    5.0446   H         1 RES1   0.0000
   164 H81       0.4336   -3.3778    5.1616   H         1 RES1   0.0000
   165 H82       2.2110   -3.3723    3.6000   H         1 RES1   0.0000
   166 H83       2.7671   -4.1460    5.0770   H         1 RES1   0.0000
   167 H84       4.5845   -2.8530    4.5307   H         1 RES1   0.0000
   168 H85       3.7804   -1.7915    5.6602   H         1 RES1   0.0000
   169 H86       3.0678   -1.5281    2.7383   H         1 RES1   0.0000
   170 H87       4.6846   -1.0206    3.2412   H         1 RES1   0.0000
   171 H88       3.6097    0.5196    4.9288   H         1 RES1   0.0000
   172 H89       2.0381    0.1683    4.1564   H         1 RES1   0.0000
   173 H90       4.9881    2.1718    2.0224   H         1 RES1   0.0000
   174 H91       5.4265    1.0591    3.3146   H         1 RES1   0.0000
   175 H92       4.5885    2.6770    5.0007   H         1 RES1   0.0000
   176 H93       6.5348    4.2566    3.3972   H         1 RES1   0.0000
   177 H94       6.9580    2.5683    3.5699   H         1 RES1   0.0000
   178 H95       6.3782    4.3797    5.9529   H         1 RES1   0.0000
   179 H96       7.9654    3.8934    5.3685   H         1 RES1   0.0000
   180 H97       6.8521    2.6816    6.0015   H         1 RES1   0.0000
   181 H98       2.9447    3.9045    3.6597   H         1 RES1   0.0000
   182 H99       4.2191    4.4632    2.5644   H         1 RES1   0.0000
   183 H100      3.6756    6.2874    3.9442   H         1 RES1   0.0000
   184 H101      5.2550    5.7341    4.4388   H         1 RES1   0.0000
   185 H102      4.4634    5.6773    6.5838   H         1 RES1   0.0000
   186 H103      3.4120    4.3539    6.1314   H         1 RES1   0.0000
   187 H104      2.7580    7.3276    5.9233   H         1 RES1   0.0000
   188 H105      2.1485    6.2392    7.1606   H         1 RES1   0.0000
   189 H106      1.6459    6.0316    5.4756   H         1 RES1   0.0000
   190 H107      3.7521    1.6687    0.1643   H         1 RES1   0.0000
   191 H108      3.2475    3.0974    1.1323   H         1 RES1   0.0000
   192 H109      3.1097    3.0061   -1.4649   H         1 RES1   0.0000
   193 H110      1.4714    3.6828   -1.5438   H         1 RES1   0.0000
   194 H111      2.4304   -0.5278   -3.4448   H         1 RES1   0.0000
   195 H112      3.0510    0.2547   -4.9123   H         1 RES1   0.0000
   196 H113      0.5843    0.6540   -5.5523   H         1 RES1   0.0000
   197 H114      0.1705   -0.3858   -4.1892   H         1 RES1   0.0000
   198 H115      1.8725   -2.0738   -5.2320   H         1 RES1   0.0000
   199 H116      1.7925   -1.0679   -6.6761   H         1 RES1   0.0000
   200 H117      0.3046   -2.9089   -6.9551   H         1 RES1   0.0000
   201 H118     -0.7002   -1.4833   -6.7454   H         1 RES1   0.0000
   202 H119     -1.4687   -2.1952   -4.6341   H         1 RES1   0.0000
   203 H120      0.0543   -3.0091   -4.2770   H         1 RES1   0.0000
   204 H121     -1.6813   -4.6765   -4.5027   H         1 RES1   0.0000
   205 H122     -0.5396   -4.8341   -5.8343   H         1 RES1   0.0000
   206 H123     -2.1189   -3.5941   -7.3176   H         1 RES1   0.0000
   207 H124     -3.2584   -3.4743   -5.9783   H         1 RES1   0.0000
   208 H125     -2.2242   -6.0687   -7.2284   H         1 RES1   0.0000
   209 H126     -3.8376   -5.4022   -7.4397   H         1 RES1   0.0000
   210 H127     -3.3230   -5.9843   -5.8530   H         1 RES1   0.0000
   211 H128      3.8733    2.2775   -4.5797   H         1 RES1   0.0000
   212 H129      3.1761    3.3920   -3.3998   H         1 RES1   0.0000
   213 H130      1.9537    2.5709   -6.0497   H         1 RES1   0.0000
   214 H131      0.6691    4.3343   -3.9362   H         1 RES1   0.0000
   215 H132      0.2173    2.6751   -4.2938   H         1 RES1   0.0000
   216 H133      0.0310    5.0258   -6.2242   H         1 RES1   0.0000
   217 H134     -1.2994    4.1367   -5.4970   H         1 RES1   0.0000
   218 H135     -0.2591    3.3495   -6.6750   H         1 RES1   0.0000
   219 H136      2.2521    4.9118   -6.6246   H         1 RES1   0.0000
   220 H137      3.7445    4.0762   -6.2540   H         1 RES1   0.0000
   221 H138      3.9896    6.2260   -5.4568   H         1 RES1   0.0000
   222 H139      3.8174    5.2520   -4.0143   H         1 RES1   0.0000
   223 H140      1.4820    6.0928   -3.7353   H         1 RES1   0.0000
   224 H141      1.5998    6.9223   -5.2836   H         1 RES1   0.0000
   225 H142      3.3435    7.5102   -2.8343   H         1 RES1   0.0000
   226 H143      1.9485    8.4558   -3.3567   H         1 RES1   0.0000
   227 H144      3.3862    8.3761   -4.3691   H         1 RES1   0.0000
   228 C73       6.8427    1.3454   -3.6143   C.3       1 RES1   0.0000
   229 C74       6.1959    1.2516   -2.2379   C.3       1 RES1   0.0000
   230 C75       6.8441    0.1721   -1.3708   C.3       1 RES1   0.0000
   231 C76       6.2408    0.1475    0.0323   C.3       1 RES1   0.0000
   232 C77       6.8628   -0.8916    0.9654   C.3       1 RES1   0.0000
   233 C78       6.6176   -2.3565    0.5992   C.3       1 RES1   0.0000
   234 C79       5.1368   -2.7447    0.4918   C.3       1 RES1   0.0000
   235 C80       4.6126   -2.6239   -0.9401   C.3       1 RES1   0.0000
   236 N5        3.2719   -3.1645   -1.1214   N.am      1 RES1   0.0000
   237 C81       3.1932   -4.6163   -1.2434   C.3       1 RES1   0.0000
   238 C82       3.7149   -5.2356   -2.5587   C.3       1 RES1   0.0000
   239 C83       3.3605   -6.7297   -2.4814   C.3       1 RES1   0.0000
   240 C84       4.0119   -7.6215   -3.5326   C.3       1 RES1   0.0000
   241 C85       3.1244   -4.5313   -3.7878   C.3       1 RES1   0.0000
   242 C86       4.0152   -4.5426   -5.0352   C.3       1 RES1   0.0000
   243 C87       5.3173   -3.7517   -4.8965   C.3       1 RES1   0.0000
   244 C88       5.1160   -2.2484   -4.7266   C.3       1 RES1   0.0000
   245 C89       2.2192   -2.3601   -1.0487   C.2       1 RES1   0.0000
   246 O7        2.2598   -1.1787   -0.6552   O.2       1 RES1   0.0000
   247 C90       0.8927   -2.9355   -1.5411   C.3       1 RES1   0.0000
   248 O8       -0.0360   -1.8773   -1.7664   O.3       1 RES1   0.0000
   249 C91      -1.3560   -2.3652   -1.6187   C.3       1 RES1   0.0000
   250 C92      -1.5864   -2.5464   -0.1083   C.2       1 RES1   0.0000
   251 O9       -0.7231   -1.9807    0.6079   O.2       1 RES1   0.0000
   252 N6       -2.6056   -3.2650    0.3235   N.am      1 RES1   0.0000
   253 C93      -2.8916   -3.4400    1.7663   C.3       1 RES1   0.0000
   254 C94      -2.2263   -2.4331    2.7313   C.3       1 RES1   0.0000
   255 C95      -2.4635   -2.7458    4.2295   C.3       1 RES1   0.0000
   256 C96      -3.2229   -1.6981    5.0646   C.3       1 RES1   0.0000
   257 C97      -2.5509   -0.3251    5.1181   C.3       1 RES1   0.0000
   258 C98      -3.4207    0.7598    5.7693   C.3       1 RES1   0.0000
   259 C99      -4.4246    1.4027    4.8085   C.3       1 RES1   0.0000
   260 C100     -4.9767    2.7204    5.3497   C.3       1 RES1   0.0000
   261 C101     -3.3292   -4.0198   -0.7413   C.3       1 RES1   0.0000
   262 C102     -4.5509   -4.9282   -0.4827   C.3       1 RES1   0.0000
   263 C103     -5.8747   -4.1682   -0.5873   C.3       1 RES1   0.0000
   264 C104     -7.0745   -5.0492   -0.2540   C.3       1 RES1   0.0000
   265 C105     -4.5010   -6.1056   -1.4866   C.3       1 RES1   0.0000
   266 C106     -4.6732   -5.8170   -2.9920   C.3       1 RES1   0.0000
   267 C107     -6.1125   -5.7804   -3.5115   C.3       1 RES1   0.0000
   268 C108     -6.1469   -5.7286   -5.0323   C.3       1 RES1   0.0000
   269 H145      6.4177    2.1651   -4.1886   H         1 RES1   0.0000
   270 H146      6.7013    0.4242   -4.1734   H         1 RES1   0.0000
   271 H147      7.9103    1.5247   -3.5235   H         1 RES1   0.0000
   272 H148      5.1254    1.0341   -2.3498   H         1 RES1   0.0000
   273 H149      6.2972    2.2178   -1.7352   H         1 RES1   0.0000
   274 H150      7.9134    0.3721   -1.2930   H         1 RES1   0.0000
   275 H151      6.7291   -0.7973   -1.8560   H         1 RES1   0.0000
   276 H152      5.1609   -0.0170   -0.0264   H         1 RES1   0.0000
   277 H153      6.3990    1.1323    0.4801   H         1 RES1   0.0000
   278 H154      6.4740   -0.7262    1.9741   H         1 RES1   0.0000
   279 H155      7.9405   -0.7244    1.0059   H         1 RES1   0.0000
   280 H156      7.0817   -2.9627    1.3785   H         1 RES1   0.0000
   281 H157      7.1308   -2.5981   -0.3309   H         1 RES1   0.0000
   282 H158      4.5361   -2.1205    1.1527   H         1 RES1   0.0000
   283 H159      5.0198   -3.7785    0.8224   H         1 RES1   0.0000
   284 H160      5.2684   -3.1811   -1.6105   H         1 RES1   0.0000
   285 H161      4.5792   -1.5807   -1.2593   H         1 RES1   0.0000
   286 H162      2.1650   -4.9390   -1.0847   H         1 RES1   0.0000
   287 H163      3.7922   -5.0291   -0.4284   H         1 RES1   0.0000
   288 H164      4.8041   -5.1507   -2.5862   H         1 RES1   0.0000
   289 H165      2.2755   -6.8318   -2.5537   H         1 RES1   0.0000
   290 H166      3.6582   -7.0940   -1.4957   H         1 RES1   0.0000
   291 H167      3.5704   -7.4697   -4.5127   H         1 RES1   0.0000
   292 H168      3.8627   -8.6638   -3.2606   H         1 RES1   0.0000
   293 H169      5.0823   -7.4415   -3.5929   H         1 RES1   0.0000
   294 H170      2.9345   -3.4864   -3.5315   H         1 RES1   0.0000
   295 H171      2.1682   -4.9990   -4.0392   H         1 RES1   0.0000
   296 H172      3.4414   -4.1210   -5.8634   H         1 RES1   0.0000
   297 H173      4.2599   -5.5693   -5.2989   H         1 RES1   0.0000
   298 H174      5.9068   -3.9190   -5.7989   H         1 RES1   0.0000
   299 H175      5.9026   -4.1382   -4.0603   H         1 RES1   0.0000
   300 H176      4.5598   -1.8476   -5.5712   H         1 RES1   0.0000
   301 H177      6.0821   -1.7497   -4.6875   H         1 RES1   0.0000
   302 H178      4.5760   -2.0132   -3.8103   H         1 RES1   0.0000
   303 H179      0.5153   -3.6168   -0.7705   H         1 RES1   0.0000
   304 H180      1.0294   -3.4851   -2.4805   H         1 RES1   0.0000
   305 H181     -1.4744   -3.2708   -2.2197   H         1 RES1   0.0000
   306 H182     -2.0366   -1.5967   -1.9984   H         1 RES1   0.0000
   307 H183     -2.5781   -4.4505    2.0338   H         1 RES1   0.0000
   308 H184     -3.9748   -3.3828    1.8847   H         1 RES1   0.0000
   309 H185     -2.5604   -1.4202    2.4902   H         1 RES1   0.0000
   310 H186     -1.1483   -2.4495    2.5844   H         1 RES1   0.0000
   311 H187     -1.4886   -2.8700    4.7010   H         1 RES1   0.0000
   312 H188     -2.9849   -3.6996    4.3152   H         1 RES1   0.0000
   313 H189     -3.2745   -2.0849    6.0850   H         1 RES1   0.0000
   314 H190     -4.2456   -1.5798    4.7141   H         1 RES1   0.0000
   315 H191     -2.2845    0.0019    4.1084   H         1 RES1   0.0000
   316 H192     -1.6256   -0.4234    5.6873   H         1 RES1   0.0000
   317 H193     -2.7701    1.5475    6.1507   H         1 RES1   0.0000
   318 H194     -3.9599    0.3485    6.6227   H         1 RES1   0.0000
   319 H195     -5.2583    0.7237    4.6273   H         1 RES1   0.0000
   320 H196     -3.9395    1.5927    3.8425   H         1 RES1   0.0000
   321 H197     -5.4850    2.5677    6.2989   H         1 RES1   0.0000
   322 H198     -5.6896    3.1568    4.6502   H         1 RES1   0.0000
   323 H199     -4.1721    3.4367    5.5125   H         1 RES1   0.0000
   324 H200     -2.5797   -4.6769   -1.1943   H         1 RES1   0.0000
   325 H201     -3.6443   -3.2816   -1.4811   H         1 RES1   0.0000
   326 H202     -4.4666   -5.3874    0.5093   H         1 RES1   0.0000
   327 H203     -5.9735   -3.7630   -1.5951   H         1 RES1   0.0000
   328 H204     -5.8439   -3.3324    0.1017   H         1 RES1   0.0000
   329 H205     -7.3158   -5.7043   -1.0827   H         1 RES1   0.0000
   330 H206     -7.9483   -4.4387   -0.0507   H         1 RES1   0.0000
   331 H207     -6.8726   -5.6598    0.6213   H         1 RES1   0.0000
   332 H208     -5.2705   -6.8182   -1.1960   H         1 RES1   0.0000
   333 H209     -3.5408   -6.6125   -1.3494   H         1 RES1   0.0000
   334 H210     -4.1884   -6.6392   -3.5257   H         1 RES1   0.0000
   335 H211     -4.1409   -4.9047   -3.2802   H         1 RES1   0.0000
   336 H212     -6.6695   -4.9290   -3.1237   H         1 RES1   0.0000
   337 H213     -6.6197   -6.6858   -3.1809   H         1 RES1   0.0000
   338 H214     -5.6247   -4.8513   -5.4101   H         1 RES1   0.0000
   339 H215     -7.1752   -5.6945   -5.3808   H         1 RES1   0.0000
   340 H216     -5.6744   -6.6180   -5.4429   H         1 RES1   0.0000
@<TRIPOS>BOND
     1     1    20    1
     2     1    22    1
     3     1    25    1
     4     1   133    1
     5     1   135    1
     6     1   138    1
     7     1   246    1
     8     1   248    1
     9     1   251    1
    10     2     3    1
    11     2    43    1
    12     2    44    1
    13     2    45    1
    14     3     4    1
    15     3    46    1
    16     3    47    1
    17     4     5    1
    18     4    48    1
    19     4    49    1
    20     5     6    1
    21     5    50    1
    22     5    51    1
    23     6     7    1
    24     6    52    1
    25     6    53    1
    26     7     8    1
    27     7    54    1
    28     7    55    1
    29     8     9    1
    30     8    56    1
    31     8    57    1
    32     9    10    1
    33     9    58    1
    34     9    59    1
    35    10    11    1
    36    10    19    1
    37    11    12    1
    38    11    60    1
    39    11    61    1
    40    12    13    1
    41    12    15    1
    42    12    62    1
    43    13    14    1
    44    13    63    1
    45    13    64    1
    46    14    65    1
    47    14    66    1
    48    14    67    1
    49    15    16    1
    50    15    68    1
    51    15    69    1
    52    16    17    1
    53    16    70    1
    54    16    71    1
    55    17    18    1
    56    17    72    1
    57    17    73    1
    58    18    74    1
    59    18    75    1
    60    18    76    1
    61    19    20    2
    62    19    21    1
    63    21    22    1
    64    21    77    1
    65    21    78    1
    66    22    23    1
    67    23    24    1
    68    23    79    1
    69    23    80    1
    70    24    25    2
    71    24    26    1
    72    26    27    1
    73    26    35    1
    74    27    28    1
    75    27    81    1
    76    27    82    1
    77    28    29    1
    78    28    83    1
    79    28    84    1
    80    29    30    1
    81    29    85    1
    82    29    86    1
    83    30    31    1
    84    30    87    1
    85    30    88    1
    86    31    32    1
    87    31    89    1
    88    31    90    1
    89    32    33    1
    90    32    91    1
    91    32    92    1
    92    33    34    1
    93    33    93    1
    94    33    94    1
    95    34    95    1
    96    34    96    1
    97    34    97    1
    98    35    36    1
    99    35    98    1
   100    35    99    1
   101    36    37    1
   102    36    39    1
   103    36   100    1
   104    37    38    1
   105    37   101    1
   106    37   102    1
   107    38   103    1
   108    38   104    1
   109    38   105    1
   110    39    40    1
   111    39   106    1
   112    39   107    1
   113    40    41    1
   114    40   108    1
   115    40   109    1
   116    41    42    1
   117    41   110    1
   118    41   111    1
   119    42   112    1
   120    42   113    1
   121    42   114    1
   122   115   116    1
   123   115   156    1
   124   115   157    1
   125   115   158    1
   126   116   117    1
   127   116   159    1
   128   116   160    1
   129   117   118    1
   130   117   161    1
   131   117   162    1
   132   118   119    1
   133   118   163    1
   134   118   164    1
   135   119   120    1
   136   119   165    1
   137   119   166    1
   138   120   121    1
   139   120   167    1
   140   120   168    1
   141   121   122    1
   142   121   169    1
   143   121   170    1
   144   122   123    1
   145   122   171    1
   146   122   172    1
   147   123   124    1
   148   123   132    1
   149   124   125    1
   150   124   173    1
   151   124   174    1
   152   125   126    1
   153   125   128    1
   154   125   175    1
   155   126   127    1
   156   126   176    1
   157   126   177    1
   158   127   178    1
   159   127   179    1
   160   127   180    1
   161   128   129    1
   162   128   181    1
   163   128   182    1
   164   129   130    1
   165   129   183    1
   166   129   184    1
   167   130   131    1
   168   130   185    1
   169   130   186    1
   170   131   187    1
   171   131   188    1
   172   131   189    1
   173   132   133    2
   174   132   134    1
   175   134   135    1
   176   134   190    1
   177   134   191    1
   178   135   136    1
   179   136   137    1
   180   136   192    1
   181   136   193    1
   182   137   138    2
   183   137   139    1
   184   139   140    1
   185   139   148    1
   186   140   141    1
   187   140   194    1
   188   140   195    1
   189   141   142    1
   190   141   196    1
   191   141   197    1
   192   142   143    1
   193   142   198    1
   194   142   199    1
   195   143   144    1
   196   143   200    1
   197   143   201    1
   198   144   145    1
   199   144   202    1
   200   144   203    1
   201   145   146    1
   202   145   204    1
   203   145   205    1
   204   146   147    1
   205   146   206    1
   206   146   207    1
   207   147   208    1
   208   147   209    1
   209   147   210    1
   210   148   149    1
   211   148   211    1
   212   148   212    1
   213   149   150    1
   214   149   152    1
   215   149   213    1
   216   150   151    1
   217   150   214    1
   218   150   215    1
   219   151   216    1
   220   151   217    1
   221   151   218    1
   222   152   153    1
   223   152   219    1
   224   152   220    1
   225   153   154    1
   226   153   221    1
   227   153   222    1
   228   154   155    1
   229   154   223    1
   230   154   224    1
   231   155   225    1
   232   155   226    1
   233   155   227    1
   234   228   229    1
   235   228   269    1
   236   228   270    1
   237   228   271    1
   238   229   230    1
   239   229   272    1
   240   229   273    1
   241   230   231    1
   242   230   274    1
   243   230   275    1
   244   231   232    1
   245   231   276    1
   246   231   277    1
   247   232   233    1
   248   232   278    1
   249   232   279    1
   250   233   234    1
   251   233   280    1
   252   233   281    1
   253   234   235    1
   254   234   282    1
   255   234   283    1
   256   235   236    1
   257   235   284    1
   258   235   285    1
   259   236   237    1
   260   236   245    1
   261   237   238    1
   262   237   286    1
   263   237   287    1
   264   238   239    1
   265   238   241    1
   266   238   288    1
   267   239   240    1
   268   239   289    1
   269   239   290    1
   270   240   291    1
   271   240   292    1
   272   240   293    1
   273   241   242    1
   274   241   294    1
   275   241   295    1
   276   242   243    1
   277   242   296    1
   278   242   297    1
   279   243   244    1
   280   243   298    1
   281   243   299    1
   282   244   300    1
   283   244   301    1
   284   244   302    1
   285   245   246    2
   286   245   247    1
   287   247   248    1
   288   247   303    1
   289   247   304    1
   290   248   249    1
   291   249   250    1
   292   249   305    1
   293   249   306    1
   294   250   251    2
   295   250   252    1
   296   252   253    1
   297   252   261    1
   298   253   254    1
   299   253   307    1
   300   253   308    1
   301   254   255    1
   302   254   309    1
   303   254   310    1
   304   255   256    1
   305   255   311    1
   306   255   312    1
   307   256   257    1
   308   256   313    1
   309   256   314    1
   310   257   258    1
   311   257   315    1
   312   257   316    1
   313   258   259    1
   314   258   317    1
   315   258   318    1
   316   259   260    1
   317   259   319    1
   318   259   320    1
   319   260   321    1
   320   260   322    1
   321   260   323    1
   322   261   262    1
   323   261   324    1
   324   261   325    1
   325   262   263    1
   326   262   265    1
   327   262   326    1
   328   263   264    1
   329   263   327    1
   330   263   328    1
   331   264   329    1
   332   264   330    1
   333   264   331    1
   334   265   266    1
   335   265   332    1
   336   265   333    1
   337   266   267    1
   338   266   334    1
   339   266   335    1
   340   267   268    1
   341   267   336    1
   342   267   337    1
   343   268   338    1
   344   268   339    1
   345   268   340    1
@<TRIPOS>SUBSTRUCTURE
     1 RES1      340 GROUP             0 ****  ****    0  
