@<TRIPOS>MOLECULE
am_c3_9H2O_c0_0_nunpairedes_0_charge_3 Charge: 3 Unpaired_Electrons: 0 XTB_Unpaired_Electrons: 0 XTB_Charge: 3
   244   249     1     0     0
SMALL
NoCharges
****
Generated from Architector

@<TRIPOS>ATOM
     1 La1      -0.0318    0.1482    0.0910   La        1 RES1   0.0000
     2 C1        2.1288   -6.3540   -0.5071   C.3       1 RES1   0.0000
     3 C2        0.7052   -6.6772   -0.9251   C.3       1 RES1   0.0000
     4 C3       -0.2856   -5.6695   -0.3485   C.3       1 RES1   0.0000
     5 C4       -1.7241   -6.0652   -0.6673   C.3       1 RES1   0.0000
     6 C5       -2.7241   -4.9571   -0.3419   C.3       1 RES1   0.0000
     7 C6       -4.0299   -5.1671   -1.1061   C.3       1 RES1   0.0000
     8 C7       -4.8525   -3.8925   -1.2686   C.3       1 RES1   0.0000
     9 C8       -4.3865   -2.9908   -2.4256   C.3       1 RES1   0.0000
    10 N1       -2.9884   -2.5652   -2.4029   N.am      1 RES1   0.0000
    11 C9       -1.9653   -3.2409   -3.2203   C.3       1 RES1   0.0000
    12 C10      -2.4389   -4.0314   -4.4311   C.3       1 RES1   0.0000
    13 C11      -1.2512   -4.6248   -5.2048   C.3       1 RES1   0.0000
    14 C12      -0.4431   -5.6612   -4.4184   C.3       1 RES1   0.0000
    15 C13       0.3664   -6.6175   -5.3167   C.3       1 RES1   0.0000
    16 C14       1.8904   -6.4761   -5.2421   C.3       1 RES1   0.0000
    17 C15       2.4626   -5.2688   -6.0021   C.3       1 RES1   0.0000
    18 C16       2.7876   -4.0768   -5.1041   C.3       1 RES1   0.0000
    19 C17      -2.5430   -1.6222   -1.5897   C.2       1 RES1   0.0000
    20 O1       -1.3385   -1.2720   -1.5399   O.2       1 RES1   0.0000
    21 C18      -3.5331   -0.9025   -0.6852   C.3       1 RES1   0.0000
    22 O2       -2.7925    0.0460    0.0592   O.3       1 RES1   0.0000
    23 C19      -3.6299    0.8795    0.8527   C.3       1 RES1   0.0000
    24 C20      -2.7358    2.0171    1.3449   C.3       1 RES1   0.0000
    25 O3       -1.5621    1.4865    1.9529   O.3       1 RES1   0.0000
    26 C21      -1.7625    1.1070    3.3130   C.3       1 RES1   0.0000
    27 C22      -0.8669   -0.0944    3.6334   C.2       1 RES1   0.0000
    28 O4       -0.1981   -0.5894    2.6950   O.2       1 RES1   0.0000
    29 N2       -0.8588   -0.5090    4.8940   N.am      1 RES1   0.0000
    30 C23       0.0483   -1.5630    5.3630   C.3       1 RES1   0.0000
    31 C24       0.7505   -1.1834    6.6812   C.3       1 RES1   0.0000
    32 C25       1.8954   -2.1084    7.1195   C.3       1 RES1   0.0000
    33 C26       2.5787   -1.6187    8.4111   C.3       1 RES1   0.0000
    34 C27       3.6052   -0.4897    8.2417   C.3       1 RES1   0.0000
    35 C28       4.6917   -0.7995    7.2096   C.3       1 RES1   0.0000
    36 C29       5.6411   -1.9025    7.6738   C.3       1 RES1   0.0000
    37 C30       6.5709   -2.3474    6.5553   C.3       1 RES1   0.0000
    38 C31      -1.8242   -0.0167    5.8735   C.3       1 RES1   0.0000
    39 C32      -3.1652   -0.7586    5.8650   C.3       1 RES1   0.0000
    40 C33      -4.0632   -0.2687    7.0063   C.3       1 RES1   0.0000
    41 C34      -4.4932    1.1914    6.8549   C.3       1 RES1   0.0000
    42 C35      -5.3061    1.7177    8.0405   C.3       1 RES1   0.0000
    43 C36      -4.5722    1.7715    9.3847   C.3       1 RES1   0.0000
    44 C37      -3.3563    2.7053    9.4301   C.3       1 RES1   0.0000
    45 C38      -2.0181    2.0653    9.0661   C.3       1 RES1   0.0000
    46 H1        2.8422   -7.0143   -0.9882   H         1 RES1   0.0000
    47 H2        2.2348   -6.4681    0.5662   H         1 RES1   0.0000
    48 H3        2.3685   -5.3231   -0.7621   H         1 RES1   0.0000
    49 H4        0.4324   -7.6723   -0.5779   H         1 RES1   0.0000
    50 H5        0.6390   -6.6781   -2.0123   H         1 RES1   0.0000
    51 H6       -0.0782   -4.6754   -0.7658   H         1 RES1   0.0000
    52 H7       -0.1690   -5.6068    0.7359   H         1 RES1   0.0000
    53 H8       -1.9903   -6.9749   -0.1282   H         1 RES1   0.0000
    54 H9       -1.7865   -6.2907   -1.7341   H         1 RES1   0.0000
    55 H10      -2.2788   -4.0001   -0.6164   H         1 RES1   0.0000
    56 H11      -2.9236   -4.9257    0.7317   H         1 RES1   0.0000
    57 H12      -4.6254   -5.9010   -0.5722   H         1 RES1   0.0000
    58 H13      -3.8148   -5.5914   -2.0856   H         1 RES1   0.0000
    59 H14      -4.8821   -3.3643   -0.3147   H         1 RES1   0.0000
    60 H15      -5.8828   -4.1525   -1.5131   H         1 RES1   0.0000
    61 H16      -5.0251   -2.1030   -2.4808   H         1 RES1   0.0000
    62 H17      -4.5419   -3.5492   -3.3466   H         1 RES1   0.0000
    63 H18      -1.4161   -3.9202   -2.5626   H         1 RES1   0.0000
    64 H19      -1.2785   -2.4584   -3.5625   H         1 RES1   0.0000
    65 H20      -3.0046   -3.3815   -5.1008   H         1 RES1   0.0000
    66 H21      -3.0778   -4.8601   -4.1258   H         1 RES1   0.0000
    67 H22      -0.5933   -3.8269   -5.5490   H         1 RES1   0.0000
    68 H23      -1.6675   -5.1063   -6.0891   H         1 RES1   0.0000
    69 H24      -1.1388   -6.2581   -3.8261   H         1 RES1   0.0000
    70 H25       0.2319   -5.1570   -3.7237   H         1 RES1   0.0000
    71 H26       0.0623   -6.4978   -6.3571   H         1 RES1   0.0000
    72 H27       0.1254   -7.6435   -5.0386   H         1 RES1   0.0000
    73 H28       2.3185   -7.3806   -5.6765   H         1 RES1   0.0000
    74 H29       2.2123   -6.4473   -4.1973   H         1 RES1   0.0000
    75 H30       1.7534   -4.9579   -6.7722   H         1 RES1   0.0000
    76 H31       3.3805   -5.5652   -6.5127   H         1 RES1   0.0000
    77 H32       1.8969   -3.7422   -4.5716   H         1 RES1   0.0000
    78 H33       3.1687   -3.2519   -5.7056   H         1 RES1   0.0000
    79 H34       3.5527   -4.3456   -4.3748   H         1 RES1   0.0000
    80 H35      -4.0305   -1.6013   -0.0014   H         1 RES1   0.0000
    81 H36      -4.3059   -0.3985   -1.2850   H         1 RES1   0.0000
    82 H37      -4.0485    0.3012    1.6901   H         1 RES1   0.0000
    83 H38      -4.4639    1.2813    0.2623   H         1 RES1   0.0000
    84 H39      -3.2824    2.6764    2.0269   H         1 RES1   0.0000
    85 H40      -2.3755    2.5908    0.4847   H         1 RES1   0.0000
    86 H41      -2.8060    0.8458    3.4965   H         1 RES1   0.0000
    87 H42      -1.5057    1.9616    3.9492   H         1 RES1   0.0000
    88 H43       0.7796   -1.7108    4.5672   H         1 RES1   0.0000
    89 H44      -0.5185   -2.4914    5.4895   H         1 RES1   0.0000
    90 H45       0.0430   -1.2047    7.5095   H         1 RES1   0.0000
    91 H46       1.1234   -0.1619    6.5883   H         1 RES1   0.0000
    92 H47       2.6329   -2.2103    6.3246   H         1 RES1   0.0000
    93 H48       1.4974   -3.1058    7.3164   H         1 RES1   0.0000
    94 H49       3.0838   -2.4698    8.8726   H         1 RES1   0.0000
    95 H50       1.8085   -1.2847    9.1094   H         1 RES1   0.0000
    96 H51       4.0882   -0.3392    9.2099   H         1 RES1   0.0000
    97 H52       3.1017    0.4459    7.9801   H         1 RES1   0.0000
    98 H53       5.2538    0.1121    6.9905   H         1 RES1   0.0000
    99 H54       4.2247   -1.1013    6.2692   H         1 RES1   0.0000
   100 H55       5.0615   -2.7602    8.0199   H         1 RES1   0.0000
   101 H56       6.2296   -1.5413    8.5162   H         1 RES1   0.0000
   102 H57       5.9956   -2.6734    5.6886   H         1 RES1   0.0000
   103 H58       7.1914   -3.1733    6.8847   H         1 RES1   0.0000
   104 H59       7.2271   -1.5366    6.2514   H         1 RES1   0.0000
   105 H60      -1.9956    1.0448    5.7138   H         1 RES1   0.0000
   106 H61      -1.3812   -0.1277    6.8598   H         1 RES1   0.0000
   107 H62      -2.9851   -1.8257    5.9947   H         1 RES1   0.0000
   108 H63      -3.6635   -0.6175    4.9038   H         1 RES1   0.0000
   109 H64      -3.5295   -0.4011    7.9469   H         1 RES1   0.0000
   110 H65      -4.9497   -0.9037    7.0470   H         1 RES1   0.0000
   111 H66      -5.0958    1.2949    5.9462   H         1 RES1   0.0000
   112 H67      -3.6244    1.8397    6.7409   H         1 RES1   0.0000
   113 H68      -6.2008    1.1027    8.1638   H         1 RES1   0.0000
   114 H69      -5.6267    2.7337    7.7906   H         1 RES1   0.0000
   115 H70      -4.2867    0.7696    9.7112   H         1 RES1   0.0000
   116 H71      -5.3029    2.1412   10.1068   H         1 RES1   0.0000
   117 H72      -3.2755    3.0864   10.4479   H         1 RES1   0.0000
   118 H73      -3.5333    3.5600    8.7749   H         1 RES1   0.0000
   119 H74      -1.9067    1.1009    9.5572   H         1 RES1   0.0000
   120 H75      -1.2040    2.7086    9.3926   H         1 RES1   0.0000
   121 H76      -1.9148    1.9238    7.9929   H         1 RES1   0.0000
   122 C39      -1.4442   -8.8599    2.7798   C.3       1 RES1   0.0000
   123 C40      -0.3492   -7.8056    2.6332   C.3       1 RES1   0.0000
   124 C41       0.6848   -7.8505    3.7615   C.3       1 RES1   0.0000
   125 C42       1.8306   -6.8311    3.6144   C.3       1 RES1   0.0000
   126 C43       1.3498   -5.3793    3.4726   C.3       1 RES1   0.0000
   127 C44       2.1247   -4.3217    4.2647   C.3       1 RES1   0.0000
   128 C45       3.5481   -3.9466    3.8480   C.3       1 RES1   0.0000
   129 C46       3.7490   -3.2038    2.5211   C.3       1 RES1   0.0000
   130 N3        3.0528   -1.9233    2.3541   N.am      1 RES1   0.0000
   131 C47       3.3782   -0.9263    3.3809   C.3       1 RES1   0.0000
   132 C48       3.0238    0.5276    3.0719   C.3       1 RES1   0.0000
   133 C49       3.3012    1.4209    4.2813   C.3       1 RES1   0.0000
   134 C50       2.8281    2.8634    4.0619   C.3       1 RES1   0.0000
   135 C51       1.3103    3.0014    4.1580   C.3       1 RES1   0.0000
   136 C52       0.8151    4.4419    4.0635   C.3       1 RES1   0.0000
   137 C53       0.9455    5.0996    2.6918   C.3       1 RES1   0.0000
   138 C54       0.0768    4.4573    1.6114   C.3       1 RES1   0.0000
   139 C55       2.3553   -1.6636    1.2670   C.2       1 RES1   0.0000
   140 O5        1.9460   -0.5315    0.9155   O.2       1 RES1   0.0000
   141 C56       1.9919   -2.8096    0.3224   C.3       1 RES1   0.0000
   142 O6        1.0595   -2.3119   -0.6275   O.3       1 RES1   0.0000
   143 C57       1.3872   -2.5335   -1.9964   C.3       1 RES1   0.0000
   144 C58       1.9839   -1.2949   -2.6794   C.3       1 RES1   0.0000
   145 O7        1.3091   -0.1148   -2.2384   O.3       1 RES1   0.0000
   146 C59       1.8533    1.0419   -2.8672   C.3       1 RES1   0.0000
   147 C60       1.8218    2.2045   -1.8724   C.2       1 RES1   0.0000
   148 O8        1.2611    2.0129   -0.7599   O.2       1 RES1   0.0000
   149 N4        2.4086    3.3445   -2.1968   N.am      1 RES1   0.0000
   150 C61       2.5189    4.3951   -1.1888   C.3       1 RES1   0.0000
   151 C62       3.9567    4.6448   -0.7261   C.3       1 RES1   0.0000
   152 C63       4.6157    3.4300   -0.0685   C.3       1 RES1   0.0000
   153 C64       5.1555    2.3731   -1.0393   C.3       1 RES1   0.0000
   154 C65       6.2257    1.5211   -0.3564   C.3       1 RES1   0.0000
   155 C66       6.8952    0.4876   -1.2629   C.3       1 RES1   0.0000
   156 C67       6.0042   -0.6594   -1.7430   C.3       1 RES1   0.0000
   157 C68       5.3228   -1.4080   -0.6009   C.3       1 RES1   0.0000
   158 C69       2.9592    3.6861   -3.5051   C.3       1 RES1   0.0000
   159 C70       2.0639    4.6299   -4.3250   C.3       1 RES1   0.0000
   160 C71       0.7193    4.0109   -4.7049   C.3       1 RES1   0.0000
   161 C72       0.8409    3.0137   -5.8597   C.3       1 RES1   0.0000
   162 C73      -0.4492    2.2243   -6.0720   C.3       1 RES1   0.0000
   163 C74      -0.2970    1.0360   -7.0226   C.3       1 RES1   0.0000
   164 C75       0.3822   -0.1717   -6.3734   C.3       1 RES1   0.0000
   165 C76       0.3012   -1.4078   -7.2617   C.3       1 RES1   0.0000
   166 H77      -2.2057   -8.7159    2.0146   H         1 RES1   0.0000
   167 H78      -1.9256   -8.7906    3.7531   H         1 RES1   0.0000
   168 H79      -1.0420   -9.8629    2.6689   H         1 RES1   0.0000
   169 H80      -0.8299   -6.8225    2.6140   H         1 RES1   0.0000
   170 H81       0.1620   -7.9509    1.6792   H         1 RES1   0.0000
   171 H82       1.1229   -8.8507    3.8044   H         1 RES1   0.0000
   172 H83       0.1780   -7.6878    4.7168   H         1 RES1   0.0000
   173 H84       2.4560   -7.0968    2.7584   H         1 RES1   0.0000
   174 H85       2.4550   -6.9201    4.5035   H         1 RES1   0.0000
   175 H86       0.3278   -5.3245    3.8513   H         1 RES1   0.0000
   176 H87       1.3130   -5.1035    2.4168   H         1 RES1   0.0000
   177 H88       2.1817   -4.6590    5.3026   H         1 RES1   0.0000
   178 H89       1.5129   -3.4219    4.2536   H         1 RES1   0.0000
   179 H90       4.1460   -4.8550    3.7902   H         1 RES1   0.0000
   180 H91       3.9698   -3.3409    4.6504   H         1 RES1   0.0000
   181 H92       3.5019   -3.8690    1.7014   H         1 RES1   0.0000
   182 H93       4.8158   -2.9729    2.4423   H         1 RES1   0.0000
   183 H94       4.4587   -0.9918    3.5563   H         1 RES1   0.0000
   184 H95       2.8753   -1.2315    4.3065   H         1 RES1   0.0000
   185 H96       1.9703    0.6294    2.8130   H         1 RES1   0.0000
   186 H97       3.6165    0.8759    2.2245   H         1 RES1   0.0000
   187 H98       4.3748    1.4116    4.4742   H         1 RES1   0.0000
   188 H99       2.7898    1.0111    5.1551   H         1 RES1   0.0000
   189 H100      3.1731    3.2050    3.0854   H         1 RES1   0.0000
   190 H101      3.2862    3.5075    4.8128   H         1 RES1   0.0000
   191 H102      0.9912    2.5932    5.1194   H         1 RES1   0.0000
   192 H103      0.8525    2.3961    3.3760   H         1 RES1   0.0000
   193 H104      1.3692    5.0387    4.7849   H         1 RES1   0.0000
   194 H105     -0.2353    4.4742    4.3550   H         1 RES1   0.0000
   195 H106      1.9855    5.1064    2.3656   H         1 RES1   0.0000
   196 H107      0.6324    6.1398    2.7879   H         1 RES1   0.0000
   197 H108      0.3996    3.4353    1.3818   H         1 RES1   0.0000
   198 H109      0.1292    5.0487    0.6972   H         1 RES1   0.0000
   199 H110     -0.9646    4.4311    1.9296   H         1 RES1   0.0000
   200 H111      1.4969   -3.6168    0.8770   H         1 RES1   0.0000
   201 H112      2.8862   -3.1918   -0.1781   H         1 RES1   0.0000
   202 H113      0.4431   -2.7969   -2.4728   H         1 RES1   0.0000
   203 H114      2.0844   -3.3761   -2.0934   H         1 RES1   0.0000
   204 H115      1.8850   -1.4026   -3.7686   H         1 RES1   0.0000
   205 H116      3.0491   -1.2240   -2.4349   H         1 RES1   0.0000
   206 H117      1.2730    1.2604   -3.7722   H         1 RES1   0.0000
   207 H118      2.8970    0.8592   -3.1591   H         1 RES1   0.0000
   208 H119      1.9238    4.0795   -0.3323   H         1 RES1   0.0000
   209 H120      2.0907    5.3101   -1.6030   H         1 RES1   0.0000
   210 H121      3.9049    5.4599   -0.0011   H         1 RES1   0.0000
   211 H122      4.5880    4.9946   -1.5434   H         1 RES1   0.0000
   212 H123      3.9034    2.9666    0.6196   H         1 RES1   0.0000
   213 H124      5.4572    3.7962    0.5204   H         1 RES1   0.0000
   214 H125      5.5967    2.8574   -1.9129   H         1 RES1   0.0000
   215 H126      4.3359    1.7400   -1.3826   H         1 RES1   0.0000
   216 H127      5.7880    1.0248    0.5121   H         1 RES1   0.0000
   217 H128      7.0078    2.1895    0.0099   H         1 RES1   0.0000
   218 H129      7.7294    0.0549   -0.7104   H         1 RES1   0.0000
   219 H130      7.3157    0.9921   -2.1342   H         1 RES1   0.0000
   220 H131      6.6316   -1.3619   -2.2941   H         1 RES1   0.0000
   221 H132      5.2517   -0.2842   -2.4412   H         1 RES1   0.0000
   222 H133      6.0432   -1.6099    0.1864   H         1 RES1   0.0000
   223 H134      4.9334   -2.3645   -0.9473   H         1 RES1   0.0000
   224 H135      4.5037   -0.8271   -0.1801   H         1 RES1   0.0000
   225 H136      3.1601    2.7859   -4.0820   H         1 RES1   0.0000
   226 H137      3.9088    4.1938   -3.3336   H         1 RES1   0.0000
   227 H138      2.6070    4.8803   -5.2374   H         1 RES1   0.0000
   228 H139      1.9111    5.5652   -3.7831   H         1 RES1   0.0000
   229 H140      0.0317    4.8089   -4.9904   H         1 RES1   0.0000
   230 H141      0.2974    3.5170   -3.8213   H         1 RES1   0.0000
   231 H142      1.6651    2.3225   -5.6768   H         1 RES1   0.0000
   232 H143      1.0809    3.5580   -6.7720   H         1 RES1   0.0000
   233 H144     -1.2075    2.9000   -6.4661   H         1 RES1   0.0000
   234 H145     -0.8121    1.8494   -5.1074   H         1 RES1   0.0000
   235 H146      0.2660    1.3447   -7.9025   H         1 RES1   0.0000
   236 H147     -1.2883    0.7330   -7.3633   H         1 RES1   0.0000
   237 H148     -0.1070   -0.3884   -5.4141   H         1 RES1   0.0000
   238 H149      1.4339    0.0549   -6.1750   H         1 RES1   0.0000
   239 H150     -0.7353   -1.6627   -7.4708   H         1 RES1   0.0000
   240 H151      0.7819   -2.2601   -6.7860   H         1 RES1   0.0000
   241 H152      0.7990   -1.2284   -8.2095   H         1 RES1   0.0000
   242 O9       -1.3899    1.7909   -1.5968   O.3       1 RES1   0.0000
   243 H153     -1.7415    1.3430   -2.3786   H         1 RES1   0.0000
   244 H154     -1.2153    2.7078   -1.8502   H         1 RES1   0.0000
@<TRIPOS>BOND
     1     1    20    1
     2     1    22    1
     3     1    25    1
     4     1    28    1
     5     1   140    1
     6     1   142    1
     7     1   145    1
     8     1   148    1
     9     1   242    1
    10     2     3    1
    11     2    46    1
    12     2    47    1
    13     2    48    1
    14     3     4    1
    15     3    49    1
    16     3    50    1
    17     4     5    1
    18     4    51    1
    19     4    52    1
    20     5     6    1
    21     5    53    1
    22     5    54    1
    23     6     7    1
    24     6    55    1
    25     6    56    1
    26     7     8    1
    27     7    57    1
    28     7    58    1
    29     8     9    1
    30     8    59    1
    31     8    60    1
    32     9    10    1
    33     9    61    1
    34     9    62    1
    35    10    11    1
    36    10    19    1
    37    11    12    1
    38    11    63    1
    39    11    64    1
    40    12    13    1
    41    12    65    1
    42    12    66    1
    43    13    14    1
    44    13    67    1
    45    13    68    1
    46    14    15    1
    47    14    69    1
    48    14    70    1
    49    15    16    1
    50    15    71    1
    51    15    72    1
    52    16    17    1
    53    16    73    1
    54    16    74    1
    55    17    18    1
    56    17    75    1
    57    17    76    1
    58    18    77    1
    59    18    78    1
    60    18    79    1
    61    19    20    2
    62    19    21    1
    63    21    22    1
    64    21    80    1
    65    21    81    1
    66    22    23    1
    67    23    24    1
    68    23    82    1
    69    23    83    1
    70    24    25    1
    71    24    84    1
    72    24    85    1
    73    25    26    1
    74    26    27    1
    75    26    86    1
    76    26    87    1
    77    27    28    2
    78    27    29    1
    79    29    30    1
    80    29    38    1
    81    30    31    1
    82    30    88    1
    83    30    89    1
    84    31    32    1
    85    31    90    1
    86    31    91    1
    87    32    33    1
    88    32    92    1
    89    32    93    1
    90    33    34    1
    91    33    94    1
    92    33    95    1
    93    34    35    1
    94    34    96    1
    95    34    97    1
    96    35    36    1
    97    35    98    1
    98    35    99    1
    99    36    37    1
   100    36   100    1
   101    36   101    1
   102    37   102    1
   103    37   103    1
   104    37   104    1
   105    38    39    1
   106    38   105    1
   107    38   106    1
   108    39    40    1
   109    39   107    1
   110    39   108    1
   111    40    41    1
   112    40   109    1
   113    40   110    1
   114    41    42    1
   115    41   111    1
   116    41   112    1
   117    42    43    1
   118    42   113    1
   119    42   114    1
   120    43    44    1
   121    43   115    1
   122    43   116    1
   123    44    45    1
   124    44   117    1
   125    44   118    1
   126    45   119    1
   127    45   120    1
   128    45   121    1
   129   122   123    1
   130   122   166    1
   131   122   167    1
   132   122   168    1
   133   123   124    1
   134   123   169    1
   135   123   170    1
   136   124   125    1
   137   124   171    1
   138   124   172    1
   139   125   126    1
   140   125   173    1
   141   125   174    1
   142   126   127    1
   143   126   175    1
   144   126   176    1
   145   127   128    1
   146   127   177    1
   147   127   178    1
   148   128   129    1
   149   128   179    1
   150   128   180    1
   151   129   130    1
   152   129   181    1
   153   129   182    1
   154   130   131    1
   155   130   139    1
   156   131   132    1
   157   131   183    1
   158   131   184    1
   159   132   133    1
   160   132   185    1
   161   132   186    1
   162   133   134    1
   163   133   187    1
   164   133   188    1
   165   134   135    1
   166   134   189    1
   167   134   190    1
   168   135   136    1
   169   135   191    1
   170   135   192    1
   171   136   137    1
   172   136   193    1
   173   136   194    1
   174   137   138    1
   175   137   195    1
   176   137   196    1
   177   138   197    1
   178   138   198    1
   179   138   199    1
   180   139   140    2
   181   139   141    1
   182   141   142    1
   183   141   200    1
   184   141   201    1
   185   142   143    1
   186   143   144    1
   187   143   202    1
   188   143   203    1
   189   144   145    1
   190   144   204    1
   191   144   205    1
   192   145   146    1
   193   146   147    1
   194   146   206    1
   195   146   207    1
   196   147   148    2
   197   147   149    1
   198   149   150    1
   199   149   158    1
   200   150   151    1
   201   150   208    1
   202   150   209    1
   203   151   152    1
   204   151   210    1
   205   151   211    1
   206   152   153    1
   207   152   212    1
   208   152   213    1
   209   153   154    1
   210   153   214    1
   211   153   215    1
   212   154   155    1
   213   154   216    1
   214   154   217    1
   215   155   156    1
   216   155   218    1
   217   155   219    1
   218   156   157    1
   219   156   220    1
   220   156   221    1
   221   157   222    1
   222   157   223    1
   223   157   224    1
   224   158   159    1
   225   158   225    1
   226   158   226    1
   227   159   160    1
   228   159   227    1
   229   159   228    1
   230   160   161    1
   231   160   229    1
   232   160   230    1
   233   161   162    1
   234   161   231    1
   235   161   232    1
   236   162   163    1
   237   162   233    1
   238   162   234    1
   239   163   164    1
   240   163   235    1
   241   163   236    1
   242   164   165    1
   243   164   237    1
   244   164   238    1
   245   165   239    1
   246   165   240    1
   247   165   241    1
   248   242   243    1
   249   242   244    1
@<TRIPOS>SUBSTRUCTURE
     1 RES1      244 GROUP             0 ****  ****    0  
