@<TRIPOS>MOLECULE
am_c3_9H2O_c0_0_nunpairedes_0_charge_3 Charge: 3 Unpaired_Electrons: 0 XTB_Unpaired_Electrons: 0 XTB_Charge: 3
   176   179     1     0     0
SMALL
NoCharges
****
Generated from Architector

@<TRIPOS>ATOM
     1 La1      -0.0058   -0.0097    0.1304   La        1 RES1   0.0000
     2 C1       -3.9918   -0.9968    4.4434   C.3       1 RES1   0.0000
     3 C2       -2.9863   -1.6228    5.4028   C.3       1 RES1   0.0000
     4 C3       -1.5769   -1.7012    4.8116   C.3       1 RES1   0.0000
     5 C4       -1.2892   -2.9557    3.9825   C.3       1 RES1   0.0000
     6 N1       -2.1312   -3.0958    2.7953   N.am      1 RES1   0.0000
     7 C5       -3.1296   -4.1508    2.7715   C.3       1 RES1   0.0000
     8 C6       -1.8357   -2.3170    1.7598   C.2       1 RES1   0.0000
     9 O1       -0.9120   -1.4856    1.8122   O.2       1 RES1   0.0000
    10 C7       -2.6167   -2.4606    0.4645   C.3       1 RES1   0.0000
    11 C8       -3.2128   -1.1126    0.0953   C.2       1 RES1   0.0000
    12 O2       -2.4785   -0.1145   -0.0004   O.2       1 RES1   0.0000
    13 N2       -4.5174   -1.0315   -0.1537   N.am      1 RES1   0.0000
    14 C9       -5.4451   -2.1402   -0.0517   C.3       1 RES1   0.0000
    15 C10      -5.0447    0.2772   -0.5264   C.3       1 RES1   0.0000
    16 C11      -5.3744    1.1055    0.7144   C.3       1 RES1   0.0000
    17 C12      -6.0957    2.4104    0.3841   C.3       1 RES1   0.0000
    18 C13      -5.2589    3.4061   -0.4100   C.3       1 RES1   0.0000
    19 H1       -4.9923   -1.0191    4.8653   H         1 RES1   0.0000
    20 H2       -4.0178   -1.5196    3.4921   H         1 RES1   0.0000
    21 H3       -3.7312    0.0402    4.2453   H         1 RES1   0.0000
    22 H4       -3.3281   -2.6139    5.7022   H         1 RES1   0.0000
    23 H5       -2.9525   -1.0122    6.3062   H         1 RES1   0.0000
    24 H6       -0.8497   -1.6998    5.6234   H         1 RES1   0.0000
    25 H7       -1.3953   -0.8227    4.1907   H         1 RES1   0.0000
    26 H8       -1.4081   -3.8475    4.5964   H         1 RES1   0.0000
    27 H9       -0.2530   -2.9049    3.6287   H         1 RES1   0.0000
    28 H10      -3.1470   -4.6351    3.7419   H         1 RES1   0.0000
    29 H11      -2.8859   -4.9019    2.0198   H         1 RES1   0.0000
    30 H12      -4.1309   -3.7654    2.5859   H         1 RES1   0.0000
    31 H13      -3.3466   -3.2559    0.4951   H         1 RES1   0.0000
    32 H14      -1.8591   -2.6740   -0.2962   H         1 RES1   0.0000
    33 H15      -5.1878   -2.9248   -0.7634   H         1 RES1   0.0000
    34 H16      -6.4435   -1.7821   -0.2822   H         1 RES1   0.0000
    35 H17      -5.4783   -2.5572    0.9542   H         1 RES1   0.0000
    36 H18      -5.9312    0.1326   -1.1451   H         1 RES1   0.0000
    37 H19      -4.2745    0.7796   -1.1169   H         1 RES1   0.0000
    38 H20      -4.4452    1.3072    1.2487   H         1 RES1   0.0000
    39 H21      -6.0183    0.5130    1.3635   H         1 RES1   0.0000
    40 H22      -6.3995    2.8801    1.3201   H         1 RES1   0.0000
    41 H23      -7.0052    2.1872   -0.1739   H         1 RES1   0.0000
    42 H24      -4.3193    3.6152    0.0965   H         1 RES1   0.0000
    43 H25      -5.8042    4.3412   -0.5038   H         1 RES1   0.0000
    44 H26      -5.0493    3.0450   -1.4141   H         1 RES1   0.0000
    45 C14       6.3278    2.8563   -0.5611   C.3       1 RES1   0.0000
    46 C15       4.8628    2.9836   -0.1642   C.3       1 RES1   0.0000
    47 C16       4.3185    4.3743   -0.4928   C.3       1 RES1   0.0000
    48 C17       2.7926    4.4380   -0.4686   C.3       1 RES1   0.0000
    49 N3        2.2644    4.1304    0.8523   N.am      1 RES1   0.0000
    50 C18       2.5593    5.1144    1.8771   C.3       1 RES1   0.0000
    51 C19       1.6715    2.9624    1.0819   C.2       1 RES1   0.0000
    52 O3        1.4850    2.1161    0.1887   O.2       1 RES1   0.0000
    53 C20       1.2373    2.6713    2.5000   C.3       1 RES1   0.0000
    54 C21      -0.2486    2.3796    2.5910   C.2       1 RES1   0.0000
    55 O4       -0.8118    1.6837    1.7276   O.2       1 RES1   0.0000
    56 N4       -0.8962    2.8702    3.6427   N.am      1 RES1   0.0000
    57 C22      -0.2635    3.6161    4.7130   C.3       1 RES1   0.0000
    58 C23      -2.3318    2.6299    3.7087   C.3       1 RES1   0.0000
    59 C24      -3.0890    3.5025    2.7062   C.3       1 RES1   0.0000
    60 C25      -2.8375    5.0035    2.8450   C.3       1 RES1   0.0000
    61 C26      -3.3609    5.5858    4.1517   C.3       1 RES1   0.0000
    62 H27       6.6973    1.8538   -0.3658   H         1 RES1   0.0000
    63 H28       6.9399    3.5557   -0.0023   H         1 RES1   0.0000
    64 H29       6.4534    3.0724   -1.6173   H         1 RES1   0.0000
    65 H30       4.7590    2.7889    0.9075   H         1 RES1   0.0000
    66 H31       4.2730    2.2309   -0.6919   H         1 RES1   0.0000
    67 H32       4.6453    4.6611   -1.4894   H         1 RES1   0.0000
    68 H33       4.7365    5.0978    0.2044   H         1 RES1   0.0000
    69 H34       2.3838    3.7091   -1.1701   H         1 RES1   0.0000
    70 H35       2.4469    5.4373   -0.7484   H         1 RES1   0.0000
    71 H36       3.0350    5.9663    1.4008   H         1 RES1   0.0000
    72 H37       3.2513    4.7177    2.6207   H         1 RES1   0.0000
    73 H38       1.6518    5.4665    2.3662   H         1 RES1   0.0000
    74 H39       1.5302    3.4477    3.1872   H         1 RES1   0.0000
    75 H40       1.7097    1.7283    2.7736   H         1 RES1   0.0000
    76 H41       0.5289    3.0268    5.1713   H         1 RES1   0.0000
    77 H42      -1.0054    3.8406    5.4715   H         1 RES1   0.0000
    78 H43       0.1408    4.5682    4.3702   H         1 RES1   0.0000
    79 H44      -2.6806    2.8020    4.7252   H         1 RES1   0.0000
    80 H45      -2.4936    1.5784    3.4485   H         1 RES1   0.0000
    81 H46      -4.1551    3.3109    2.8223   H         1 RES1   0.0000
    82 H47      -2.7863    3.1828    1.7081   H         1 RES1   0.0000
    83 H48      -3.3455    5.5073    2.0208   H         1 RES1   0.0000
    84 H49      -1.7703    5.2168    2.7420   H         1 RES1   0.0000
    85 H50      -4.4249    5.3895    4.2517   H         1 RES1   0.0000
    86 H51      -3.2147    6.6628    4.1723   H         1 RES1   0.0000
    87 H52      -2.8518    5.1666    5.0150   H         1 RES1   0.0000
    88 C27       2.9263   -3.1745    4.5197   C.3       1 RES1   0.0000
    89 C28       2.5184   -2.1446    5.5656   C.3       1 RES1   0.0000
    90 C29       1.9580   -0.8630    4.9547   C.3       1 RES1   0.0000
    91 C30       3.0191    0.0538    4.3478   C.3       1 RES1   0.0000
    92 N5        3.5984   -0.3858    3.0725   N.am      1 RES1   0.0000
    93 C31       5.0450   -0.4772    2.9856   C.3       1 RES1   0.0000
    94 C32       2.7985   -0.4578    2.0053   C.2       1 RES1   0.0000
    95 O5        1.5845   -0.2089    2.0863   O.2       1 RES1   0.0000
    96 C33       3.3669   -0.8038    0.6388   C.3       1 RES1   0.0000
    97 C34       2.6366   -2.0509    0.1500   C.2       1 RES1   0.0000
    98 O6        1.4052   -2.0115   -0.0103   O.2       1 RES1   0.0000
    99 N6        3.3423   -3.1527   -0.0816   N.am      1 RES1   0.0000
   100 C35       4.7762   -3.2593    0.1033   C.3       1 RES1   0.0000
   101 C36       2.6145   -4.3658   -0.4421   C.3       1 RES1   0.0000
   102 C37       2.1740   -5.0962    0.8254   C.3       1 RES1   0.0000
   103 C38       1.6205   -6.4960    0.5756   C.3       1 RES1   0.0000
   104 C39       0.3801   -6.5177   -0.3071   C.3       1 RES1   0.0000
   105 H53       3.2770   -4.0832    5.0012   H         1 RES1   0.0000
   106 H54       3.7295   -2.8002    3.8917   H         1 RES1   0.0000
   107 H55       2.0814   -3.4319    3.8823   H         1 RES1   0.0000
   108 H56       3.3755   -1.9068    6.1985   H         1 RES1   0.0000
   109 H57       1.7573   -2.5868    6.2105   H         1 RES1   0.0000
   110 H58       1.4659   -0.2912    5.7433   H         1 RES1   0.0000
   111 H59       1.2130   -1.0998    4.1981   H         1 RES1   0.0000
   112 H60       3.8302    0.1776    5.0626   H         1 RES1   0.0000
   113 H61       2.5630    1.0344    4.1887   H         1 RES1   0.0000
   114 H62       5.4662   -0.3087    3.9718   H         1 RES1   0.0000
   115 H63       5.4336    0.2808    2.3056   H         1 RES1   0.0000
   116 H64       5.3836   -1.4572    2.6545   H         1 RES1   0.0000
   117 H65       4.4418   -0.9038    0.6304   H         1 RES1   0.0000
   118 H66       3.0711    0.0143   -0.0295   H         1 RES1   0.0000
   119 H67       5.3073   -2.5732   -0.5570   H         1 RES1   0.0000
   120 H68       5.0791   -4.2714   -0.1442   H         1 RES1   0.0000
   121 H69       5.0695   -3.0746    1.1362   H         1 RES1   0.0000
   122 H70       3.2688   -4.9891   -1.0514   H         1 RES1   0.0000
   123 H71       1.7466   -4.0686   -1.0331   H         1 RES1   0.0000
   124 H72       1.4245   -4.4797    1.3256   H         1 RES1   0.0000
   125 H73       3.0352   -5.1874    1.4865   H         1 RES1   0.0000
   126 H74       1.3759   -6.9360    1.5424   H         1 RES1   0.0000
   127 H75       2.3912   -7.1197    0.1219   H         1 RES1   0.0000
   128 H76      -0.3454   -5.7733    0.0196   H         1 RES1   0.0000
   129 H77      -0.0896   -7.4965   -0.2643   H         1 RES1   0.0000
   130 H78       0.6403   -6.3220   -1.3418   H         1 RES1   0.0000
   131 C40       4.0279    4.0610   -4.1542   C.3       1 RES1   0.0000
   132 C41       3.6573    2.6457   -4.5844   C.3       1 RES1   0.0000
   133 C42       3.7807    1.6476   -3.4333   C.3       1 RES1   0.0000
   134 C43       3.3994    0.2145   -3.8043   C.3       1 RES1   0.0000
   135 N7        1.9949    0.1216   -4.1927   N.am      1 RES1   0.0000
   136 C44       1.6845    0.0760   -5.6101   C.3       1 RES1   0.0000
   137 C45       1.0823    0.1746   -3.2270   C.2       1 RES1   0.0000
   138 O7        1.4008    0.2012   -2.0218   O.2       1 RES1   0.0000
   139 C46      -0.3870    0.1676   -3.6181   C.3       1 RES1   0.0000
   140 C47      -0.9831   -1.1340   -3.1223   C.2       1 RES1   0.0000
   141 O8       -0.8954   -1.3858   -1.9042   O.2       1 RES1   0.0000
   142 N8       -1.5989   -1.9522   -3.9706   N.am      1 RES1   0.0000
   143 C48      -1.7618   -1.8021   -5.4022   C.3       1 RES1   0.0000
   144 C49      -2.2644   -3.1406   -3.4465   C.3       1 RES1   0.0000
   145 C50      -1.6611   -4.4627   -3.9161   C.3       1 RES1   0.0000
   146 C51      -0.2395   -4.7144   -3.4111   C.3       1 RES1   0.0000
   147 C52       0.8506   -3.9139   -4.1184   C.3       1 RES1   0.0000
   148 H79       3.9697    4.7385   -5.0009   H         1 RES1   0.0000
   149 H80       5.0431    4.0973   -3.7682   H         1 RES1   0.0000
   150 H81       3.3474    4.4245   -3.3880   H         1 RES1   0.0000
   151 H82       4.3148    2.3471   -5.4014   H         1 RES1   0.0000
   152 H83       2.6351    2.6602   -4.9671   H         1 RES1   0.0000
   153 H84       3.1428    1.9643   -2.6074   H         1 RES1   0.0000
   154 H85       4.8116    1.6356   -3.0839   H         1 RES1   0.0000
   155 H86       3.5491   -0.4408   -2.9405   H         1 RES1   0.0000
   156 H87       4.0142   -0.1503   -4.6262   H         1 RES1   0.0000
   157 H88       2.6164    0.0806   -6.1667   H         1 RES1   0.0000
   158 H89       1.1107    0.9479   -5.9251   H         1 RES1   0.0000
   159 H90       1.1409   -0.8349   -5.8616   H         1 RES1   0.0000
   160 H91      -0.5457    0.3562   -4.6678   H         1 RES1   0.0000
   161 H92      -0.8813    0.9533   -3.0413   H         1 RES1   0.0000
   162 H93      -1.3572   -0.8784   -5.7923   H         1 RES1   0.0000
   163 H94      -2.8245   -1.8388   -5.6400   H         1 RES1   0.0000
   164 H95      -1.2697   -2.6263   -5.9161   H         1 RES1   0.0000
   165 H96      -3.3163   -3.0901   -3.7466   H         1 RES1   0.0000
   166 H97      -2.2081   -3.0954   -2.3589   H         1 RES1   0.0000
   167 H98      -1.6884   -4.5311   -5.0019   H         1 RES1   0.0000
   168 H99      -2.3045   -5.2561   -3.5323   H         1 RES1   0.0000
   169 H100     -0.0239   -5.7752   -3.5524   H         1 RES1   0.0000
   170 H101     -0.1991   -4.5027   -2.3395   H         1 RES1   0.0000
   171 H102      0.7894   -4.0459   -5.1953   H         1 RES1   0.0000
   172 H103      1.8291   -4.2673   -3.8014   H         1 RES1   0.0000
   173 H104      0.7889   -2.8542   -3.8828   H         1 RES1   0.0000
   174 O9       -1.1201    2.0642   -1.3303   O.3       1 RES1   0.0000
   175 H105     -0.7060    2.9307   -1.4450   H         1 RES1   0.0000
   176 H106     -2.0335    2.2301   -1.0572   H         1 RES1   0.0000
@<TRIPOS>BOND
     1     1     9    1
     2     1    12    1
     3     1    52    1
     4     1    55    1
     5     1    95    1
     6     1    98    1
     7     1   138    1
     8     1   141    1
     9     1   174    1
    10     2     3    1
    11     2    19    1
    12     2    20    1
    13     2    21    1
    14     3     4    1
    15     3    22    1
    16     3    23    1
    17     4     5    1
    18     4    24    1
    19     4    25    1
    20     5     6    1
    21     5    26    1
    22     5    27    1
    23     6     7    1
    24     6     8    1
    25     7    28    1
    26     7    29    1
    27     7    30    1
    28     8     9    2
    29     8    10    1
    30    10    11    1
    31    10    31    1
    32    10    32    1
    33    11    12    2
    34    11    13    1
    35    13    14    1
    36    13    15    1
    37    14    33    1
    38    14    34    1
    39    14    35    1
    40    15    16    1
    41    15    36    1
    42    15    37    1
    43    16    17    1
    44    16    38    1
    45    16    39    1
    46    17    18    1
    47    17    40    1
    48    17    41    1
    49    18    42    1
    50    18    43    1
    51    18    44    1
    52    45    46    1
    53    45    62    1
    54    45    63    1
    55    45    64    1
    56    46    47    1
    57    46    65    1
    58    46    66    1
    59    47    48    1
    60    47    67    1
    61    47    68    1
    62    48    49    1
    63    48    69    1
    64    48    70    1
    65    49    50    1
    66    49    51    1
    67    50    71    1
    68    50    72    1
    69    50    73    1
    70    51    52    2
    71    51    53    1
    72    53    54    1
    73    53    74    1
    74    53    75    1
    75    54    55    2
    76    54    56    1
    77    56    57    1
    78    56    58    1
    79    57    76    1
    80    57    77    1
    81    57    78    1
    82    58    59    1
    83    58    79    1
    84    58    80    1
    85    59    60    1
    86    59    81    1
    87    59    82    1
    88    60    61    1
    89    60    83    1
    90    60    84    1
    91    61    85    1
    92    61    86    1
    93    61    87    1
    94    88    89    1
    95    88   105    1
    96    88   106    1
    97    88   107    1
    98    89    90    1
    99    89   108    1
   100    89   109    1
   101    90    91    1
   102    90   110    1
   103    90   111    1
   104    91    92    1
   105    91   112    1
   106    91   113    1
   107    92    93    1
   108    92    94    1
   109    93   114    1
   110    93   115    1
   111    93   116    1
   112    94    95    2
   113    94    96    1
   114    96    97    1
   115    96   117    1
   116    96   118    1
   117    97    98    2
   118    97    99    1
   119    99   100    1
   120    99   101    1
   121   100   119    1
   122   100   120    1
   123   100   121    1
   124   101   102    1
   125   101   122    1
   126   101   123    1
   127   102   103    1
   128   102   124    1
   129   102   125    1
   130   103   104    1
   131   103   126    1
   132   103   127    1
   133   104   128    1
   134   104   129    1
   135   104   130    1
   136   131   132    1
   137   131   148    1
   138   131   149    1
   139   131   150    1
   140   132   133    1
   141   132   151    1
   142   132   152    1
   143   133   134    1
   144   133   153    1
   145   133   154    1
   146   134   135    1
   147   134   155    1
   148   134   156    1
   149   135   136    1
   150   135   137    1
   151   136   157    1
   152   136   158    1
   153   136   159    1
   154   137   138    2
   155   137   139    1
   156   139   140    1
   157   139   160    1
   158   139   161    1
   159   140   141    2
   160   140   142    1
   161   142   143    1
   162   142   144    1
   163   143   162    1
   164   143   163    1
   165   143   164    1
   166   144   145    1
   167   144   165    1
   168   144   166    1
   169   145   146    1
   170   145   167    1
   171   145   168    1
   172   146   147    1
   173   146   169    1
   174   146   170    1
   175   147   171    1
   176   147   172    1
   177   147   173    1
   178   174   175    1
   179   174   176    1
@<TRIPOS>SUBSTRUCTURE
     1 RES1      176 GROUP             0 ****  ****    0  
