@<TRIPOS>MOLECULE
am_c3_9H2O_c0_0_nunpairedes_0_charge_2 Charge: 2 Unpaired_Electrons: 0 XTB_Unpaired_Electrons: 0 XTB_Charge: 2
    70    83     1     0     0
SMALL
NoCharges
****
Generated from Architector

@<TRIPOS>ATOM
     1 La1       0.1391    0.0049   -0.1267   La        1 RES1   0.0000
     2 C1       -1.9087   -6.2622   -0.5506   C.3       1 RES1   0.0000
     3 C2       -1.8296   -5.2096    0.5331   C.3       1 RES1   0.0000
     4 C3       -3.0334   -4.2126    0.4631   C.3       1 RES1   0.0000
     5 C4       -3.1355   -3.6013    1.8673   C.3       1 RES1   0.0000
     6 C5       -1.8740   -4.1477    2.5740   C.3       1 RES1   0.0000
     7 C6       -0.7733   -3.5381    1.7925   C.ar      1 RES1   0.0000
     8 N1       -0.1318   -2.4111    1.9096   N.ar      1 RES1   0.0000
     9 N2        0.7685   -2.0896    0.9703   N.ar      1 RES1   0.0000
    10 C7        1.0537   -2.9848    0.0194   C.ar      1 RES1   0.0000
    11 C8        1.8624   -2.5727   -1.1587   C.ar      1 RES1   0.0000
    12 C9        2.6865   -3.3222   -1.9854   C.ar      1 RES1   0.0000
    13 C10       2.8329   -2.9003   -3.3050   C.ar      1 RES1   0.0000
    14 C11       1.9662   -1.9375   -3.8189   C.ar      1 RES1   0.0000
    15 C12       1.1662   -1.2406   -2.9272   C.ar      1 RES1   0.0000
    16 C13      -0.1740   -0.6425   -3.1635   C.ar      1 RES1   0.0000
    17 N3       -0.5958    0.3575   -2.3821   N.ar      1 RES1   0.0000
    18 N4       -1.8564    0.7954   -2.5105   N.ar      1 RES1   0.0000
    19 C14      -2.6673    0.1177   -3.2701   C.ar      1 RES1   0.0000
    20 C15      -2.2637   -1.1750   -3.7588   C.ar      1 RES1   0.0000
    21 N5       -0.9920   -1.4774   -3.8027   N.ar      1 RES1   0.0000
    22 C16      -3.4729   -1.8771   -4.2410   C.3       1 RES1   0.0000
    23 C17      -3.4805   -3.3902   -4.2346   C.3       1 RES1   0.0000
    24 C18      -3.5830   -1.1710   -5.6326   C.3       1 RES1   0.0000
    25 C19      -3.8809    0.2982   -5.2767   C.3       1 RES1   0.0000
    26 C20      -4.0585    0.2919   -3.7308   C.3       1 RES1   0.0000
    27 C21      -4.6053   -1.1390   -3.4506   C.3       1 RES1   0.0000
    28 C22      -6.0115   -1.3410   -4.0026   C.3       1 RES1   0.0000
    29 C23      -4.6046   -1.4454   -1.9527   C.3       1 RES1   0.0000
    30 N6        1.2651   -1.4526   -1.6056   N.ar      1 RES1   0.0000
    31 N7        0.3089   -4.0562   -0.2585   N.ar      1 RES1   0.0000
    32 C24      -0.6608   -4.3053    0.5793   C.ar      1 RES1   0.0000
    33 C25      -1.8269   -5.6195    2.0529   C.3       1 RES1   0.0000
    34 C26      -0.5281   -6.3187    2.4440   C.3       1 RES1   0.0000
    35 C27      -2.9897   -6.5047    2.4754   C.3       1 RES1   0.0000
    36 H1       -2.0614   -5.7849   -1.5157   H         1 RES1   0.0000
    37 H2       -2.7591   -6.9095   -0.3593   H         1 RES1   0.0000
    38 H3       -1.0139   -6.8714   -0.5958   H         1 RES1   0.0000
    39 H4       -3.9237   -4.7719    0.1846   H         1 RES1   0.0000
    40 H5       -2.8638   -3.4585   -0.3094   H         1 RES1   0.0000
    41 H6       -4.0146   -3.9562    2.4000   H         1 RES1   0.0000
    42 H7       -3.1645   -2.5137    1.8542   H         1 RES1   0.0000
    43 H8       -1.8582   -3.9737    3.6453   H         1 RES1   0.0000
    44 H9        3.1399   -4.2402   -1.6407   H         1 RES1   0.0000
    45 H10       3.5071   -3.4180   -3.9733   H         1 RES1   0.0000
    46 H11       1.8832   -1.7693   -4.8799   H         1 RES1   0.0000
    47 H12      -2.5544   -3.7875   -4.6426   H         1 RES1   0.0000
    48 H13      -4.3129   -3.7680   -4.8225   H         1 RES1   0.0000
    49 H14      -3.6037   -3.7413   -3.2115   H         1 RES1   0.0000
    50 H15      -4.4111   -1.6349   -6.1658   H         1 RES1   0.0000
    51 H16      -2.6856   -1.3036   -6.2355   H         1 RES1   0.0000
    52 H17      -4.7821    0.6742   -5.7549   H         1 RES1   0.0000
    53 H18      -3.0571    0.9588   -5.5478   H         1 RES1   0.0000
    54 H19      -4.6197    1.1294   -3.3283   H         1 RES1   0.0000
    55 H20      -6.6828   -0.6318   -3.5254   H         1 RES1   0.0000
    56 H21      -6.3690   -2.3421   -3.7769   H         1 RES1   0.0000
    57 H22      -6.0724   -1.1904   -5.0754   H         1 RES1   0.0000
    58 H23      -3.6049   -1.3941   -1.5180   H         1 RES1   0.0000
    59 H24      -5.0126   -2.4325   -1.7585   H         1 RES1   0.0000
    60 H25      -5.2409   -0.7263   -1.4409   H         1 RES1   0.0000
    61 H26       0.3479   -5.7292    2.1836   H         1 RES1   0.0000
    62 H27      -0.4539   -7.2771    1.9396   H         1 RES1   0.0000
    63 H28      -0.5154   -6.4948    3.5146   H         1 RES1   0.0000
    64 H29      -3.9687   -6.0793    2.2713   H         1 RES1   0.0000
    65 H30      -2.9166   -6.6949    3.5450   H         1 RES1   0.0000
    66 H31      -2.9210   -7.4671    1.9697   H         1 RES1   0.0000
    67 N8       -2.1543   -0.0056    0.8342   N.3       1 RES1   0.0000
    68 O1       -3.1959   -0.1097    1.3559   O.2       1 RES1   0.0000
    69 O2       -1.3758    0.9423    1.0279   O.co2     1 RES1   0.0000
    70 O3       -1.7421   -0.8886    0.0169   O.co2     1 RES1   0.0000
@<TRIPOS>BOND
     1     1     8    1
     2     1     9    1
     3     1    17    1
     4     1    18    1
     5     1    21    1
     6     1    30    1
     7     1    31    1
     8     1    69    1
     9     1    70    1
    10     2     3    1
    11     2    36    1
    12     2    37    1
    13     2    38    1
    14     3     4    1
    15     3    32    1
    16     3    33    1
    17     4     5    1
    18     4    39    1
    19     4    40    1
    20     5     6    1
    21     5    41    1
    22     5    42    1
    23     6     7    1
    24     6    33    1
    25     6    43    1
    26     7     8    1
    27     7    32    2
    28     8     9    2
    29     9    10    1
    30    10    11    1
    31    10    31    2
    32    11    12    1
    33    11    30    2
    34    12    13    2
    35    12    44    1
    36    13    14    1
    37    13    45    1
    38    14    15    2
    39    14    46    1
    40    15    16    1
    41    15    30    1
    42    16    17    1
    43    16    21    2
    44    17    18    2
    45    18    19    1
    46    19    20    2
    47    19    26    1
    48    20    21    1
    49    20    22    1
    50    22    23    1
    51    22    24    1
    52    22    27    1
    53    23    47    1
    54    23    48    1
    55    23    49    1
    56    24    25    1
    57    24    50    1
    58    24    51    1
    59    25    26    1
    60    25    52    1
    61    25    53    1
    62    26    27    1
    63    26    54    1
    64    27    28    1
    65    27    29    1
    66    28    55    1
    67    28    56    1
    68    28    57    1
    69    29    58    1
    70    29    59    1
    71    29    60    1
    72    31    32    1
    73    33    34    1
    74    33    35    1
    75    34    61    1
    76    34    62    1
    77    34    63    1
    78    35    64    1
    79    35    65    1
    80    35    66    1
    81    67    68    2
    82    67    69    1
    83    67    70    1
@<TRIPOS>SUBSTRUCTURE
     1 RES1       70 GROUP             0 ****  ****    0  
