@<TRIPOS>MOLECULE
am_c3_9H2O_c0_0_nunpairedes_0_charge_3 Charge: 3 Unpaired_Electrons: 0 XTB_Unpaired_Electrons: 0 XTB_Charge: 3
   172   186     1     0     0
SMALL
NoCharges
****
Generated from Architector

@<TRIPOS>ATOM
     1 La1      -0.0529   -0.0006    0.0583   La        1 RES1   0.0000
     2 C1       -4.9502    2.3466   -4.0377   C.3       1 RES1   0.0000
     3 C2       -4.2202    2.6640   -2.7391   C.3       1 RES1   0.0000
     4 N1       -2.8106    2.2693   -2.7687   N.am      1 RES1   0.0000
     5 C3       -2.2955    1.4118   -1.8779   C.2       1 RES1   0.0000
     6 O1       -1.0696    1.3541   -1.6470   O.2       1 RES1   0.0000
     7 C4       -3.1662    0.4211   -1.1378   C.ar      1 RES1   0.0000
     8 C5       -4.3384   -0.1437   -1.6434   C.ar      1 RES1   0.0000
     9 C6       -4.9515   -1.1665   -0.9400   C.ar      1 RES1   0.0000
    10 C7       -4.3440   -1.6522    0.2068   C.ar      1 RES1   0.0000
    11 C8       -3.1628   -1.0519    0.6451   C.ar      1 RES1   0.0000
    12 C9       -2.2730   -1.6536    1.7061   C.2       1 RES1   0.0000
    13 O2       -1.0506   -1.6399    1.4585   O.2       1 RES1   0.0000
    14 N2       -2.7783   -2.2357    2.7950   N.am      1 RES1   0.0000
    15 C10      -4.1568   -2.0322    3.2313   C.3       1 RES1   0.0000
    16 C11      -4.9351   -3.3398    3.3005   C.3       1 RES1   0.0000
    17 C12      -1.9712   -3.0637    3.6418   C.ar      1 RES1   0.0000
    18 C13      -2.2395   -3.1273    5.0074   C.ar      1 RES1   0.0000
    19 C14      -1.5589   -4.0287    5.8016   C.ar      1 RES1   0.0000
    20 C15      -0.5818   -4.8454    5.2665   C.ar      1 RES1   0.0000
    21 C16      -0.2620   -4.7603    3.9181   C.ar      1 RES1   0.0000
    22 C17       0.8120   -5.6234    3.3315   C.3       1 RES1   0.0000
    23 C18      -0.9715   -3.8758    3.1122   C.ar      1 RES1   0.0000
    24 N3       -2.5953   -0.0454   -0.0212   N.ar      1 RES1   0.0000
    25 C19      -1.9824    2.9671   -3.7129   C.ar      1 RES1   0.0000
    26 C20      -2.3844    4.2171   -4.1851   C.ar      1 RES1   0.0000
    27 C21      -1.6645    4.8598   -5.1736   C.ar      1 RES1   0.0000
    28 C22      -0.5210    4.2894   -5.6910   C.ar      1 RES1   0.0000
    29 C23      -0.0848    3.0577   -5.2195   C.ar      1 RES1   0.0000
    30 C24       1.1803    2.4696   -5.7615   C.3       1 RES1   0.0000
    31 C25      -0.8231    2.4001   -4.2392   C.ar      1 RES1   0.0000
    32 H1       -5.9942    2.6316   -3.9413   H         1 RES1   0.0000
    33 H2       -4.5098    2.8932   -4.8666   H         1 RES1   0.0000
    34 H3       -4.9067    1.2869   -4.2738   H         1 RES1   0.0000
    35 H4       -4.2704    3.7394   -2.5563   H         1 RES1   0.0000
    36 H5       -4.7142    2.1947   -1.8905   H         1 RES1   0.0000
    37 H6       -4.7653    0.1807   -2.5754   H         1 RES1   0.0000
    38 H7       -5.8711   -1.6013   -1.3026   H         1 RES1   0.0000
    39 H8       -4.7573   -2.5019    0.7221   H         1 RES1   0.0000
    40 H9       -4.1349   -1.5666    4.2182   H         1 RES1   0.0000
    41 H10      -4.6488   -1.3268    2.5654   H         1 RES1   0.0000
    42 H11      -4.5001   -4.0020    4.0424   H         1 RES1   0.0000
    43 H12      -5.9674   -3.1390    3.5728   H         1 RES1   0.0000
    44 H13      -4.9254   -3.8585    2.3456   H         1 RES1   0.0000
    45 H14      -2.9818   -2.4994    5.4703   H         1 RES1   0.0000
    46 H15      -1.8139   -4.0914    6.8473   H         1 RES1   0.0000
    47 H16      -0.0679   -5.5494    5.9003   H         1 RES1   0.0000
    48 H17       1.2647   -6.2448    4.0981   H         1 RES1   0.0000
    49 H18       0.4036   -6.2777    2.5635   H         1 RES1   0.0000
    50 H19       1.5909   -5.0120    2.8770   H         1 RES1   0.0000
    51 H20      -0.7454   -3.8417    2.0584   H         1 RES1   0.0000
    52 H21      -3.2616    4.7121   -3.8119   H         1 RES1   0.0000
    53 H22      -2.0175    5.8130   -5.5316   H         1 RES1   0.0000
    54 H23       0.0356    4.8005   -6.4586   H         1 RES1   0.0000
    55 H24       1.5918    3.1090   -6.5373   H         1 RES1   0.0000
    56 H25       1.9137    2.3908   -4.9631   H         1 RES1   0.0000
    57 H26       1.0146    1.4801   -6.1823   H         1 RES1   0.0000
    58 H27      -0.4861    1.4311   -3.9033   H         1 RES1   0.0000
    59 C26       5.0811   -2.3467    3.7869   C.3       1 RES1   0.0000
    60 C27       4.7591   -1.2764    2.7522   C.3       1 RES1   0.0000
    61 N4        3.3818   -0.7977    2.8383   N.am      1 RES1   0.0000
    62 C28       2.4806   -0.9370    1.8499   C.2       1 RES1   0.0000
    63 O3        1.5600   -0.1072    1.7113   O.2       1 RES1   0.0000
    64 C29       2.4814   -2.0918    0.8748   C.ar      1 RES1   0.0000
    65 C30       3.3744   -3.1635    0.7984   C.ar      1 RES1   0.0000
    66 C31       3.2842   -4.0085   -0.2957   C.ar      1 RES1   0.0000
    67 C32       2.2462   -3.8653   -1.2040   C.ar      1 RES1   0.0000
    68 C33       1.2444   -2.9346   -0.9127   C.ar      1 RES1   0.0000
    69 C34      -0.0474   -2.7164   -1.6695   C.2       1 RES1   0.0000
    70 O4       -0.6393   -1.6410   -1.4632   O.2       1 RES1   0.0000
    71 N5       -0.5429   -3.6233   -2.5309   N.am      1 RES1   0.0000
    72 C35      -0.2486   -5.0539   -2.4362   C.3       1 RES1   0.0000
    73 C36       0.3665   -5.6223   -3.7072   C.3       1 RES1   0.0000
    74 C37      -1.5687   -3.2222   -3.4529   C.ar      1 RES1   0.0000
    75 C38      -1.5982   -1.9277   -3.9705   C.ar      1 RES1   0.0000
    76 C39      -2.5937   -1.5680   -4.8634   C.ar      1 RES1   0.0000
    77 C40      -3.5489   -2.4763   -5.2764   C.ar      1 RES1   0.0000
    78 C41      -3.5092   -3.7840   -4.8063   C.ar      1 RES1   0.0000
    79 C42      -4.4974   -4.7901   -5.2942   C.3       1 RES1   0.0000
    80 C43      -2.5244   -4.1346   -3.8920   C.ar      1 RES1   0.0000
    81 N6        1.4238   -2.0381    0.0580   N.ar      1 RES1   0.0000
    82 C44       3.0554   -0.0163    3.9946   C.ar      1 RES1   0.0000
    83 C45       4.0655    0.5685    4.7557   C.ar      1 RES1   0.0000
    84 C46       3.7656    1.1995    5.9475   C.ar      1 RES1   0.0000
    85 C47       2.4609    1.2840    6.3889   C.ar      1 RES1   0.0000
    86 C48       1.4334    0.7327    5.6319   C.ar      1 RES1   0.0000
    87 C49       0.0176    0.8145    6.1096   C.3       1 RES1   0.0000
    88 C50       1.7390    0.0808    4.4429   C.ar      1 RES1   0.0000
    89 H28       6.1076   -2.6805    3.6647   H         1 RES1   0.0000
    90 H29       4.9669   -1.9424    4.7890   H         1 RES1   0.0000
    91 H30       4.4246   -3.2065    3.6925   H         1 RES1   0.0000
    92 H31       5.4131   -0.4195    2.9218   H         1 RES1   0.0000
    93 H32       4.9649   -1.6060    1.7358   H         1 RES1   0.0000
    94 H33       4.1268   -3.3590    1.5414   H         1 RES1   0.0000
    95 H34       4.0276   -4.7779   -0.4341   H         1 RES1   0.0000
    96 H35       2.2343   -4.4643   -2.0975   H         1 RES1   0.0000
    97 H36       0.3868   -5.2365   -1.5713   H         1 RES1   0.0000
    98 H37      -1.1905   -5.5658   -2.2320   H         1 RES1   0.0000
    99 H38       1.3060   -5.1338   -3.9468   H         1 RES1   0.0000
   100 H39       0.5561   -6.6863   -3.5904   H         1 RES1   0.0000
   101 H40      -0.3112   -5.4902   -4.5446   H         1 RES1   0.0000
   102 H41      -0.8602   -1.1905   -3.6964   H         1 RES1   0.0000
   103 H42      -2.6079   -0.5637   -5.2529   H         1 RES1   0.0000
   104 H43      -4.3156   -2.1872   -5.9764   H         1 RES1   0.0000
   105 H44      -5.5123   -4.4854   -5.0415   H         1 RES1   0.0000
   106 H45      -4.4413   -4.8608   -6.3794   H         1 RES1   0.0000
   107 H46      -4.3075   -5.7732   -4.8712   H         1 RES1   0.0000
   108 H47      -2.5214   -5.1514   -3.5408   H         1 RES1   0.0000
   109 H48       5.0988    0.5405    4.4618   H         1 RES1   0.0000
   110 H49       4.5739    1.6104    6.5286   H         1 RES1   0.0000
   111 H50       2.2417    1.7687    7.3257   H         1 RES1   0.0000
   112 H51      -0.0353    1.3793    7.0364   H         1 RES1   0.0000
   113 H52      -0.6194    1.2959    5.3698   H         1 RES1   0.0000
   114 H53      -0.3828   -0.1817    6.2896   H         1 RES1   0.0000
   115 H54       0.9318   -0.3655    3.8812   H         1 RES1   0.0000
   116 C51       4.3407   -0.8069   -3.5960   C.3       1 RES1   0.0000
   117 C52       3.1526    0.1286   -3.7510   C.3       1 RES1   0.0000
   118 N7        3.1984    1.2511   -2.8053   N.am      1 RES1   0.0000
   119 C53       2.3306    1.2472   -1.7827   C.2       1 RES1   0.0000
   120 O5        1.6756    0.2168   -1.5255   O.2       1 RES1   0.0000
   121 C54       2.0247    2.4828   -0.9744   C.ar      1 RES1   0.0000
   122 C55       2.4787    3.7751   -1.2464   C.ar      1 RES1   0.0000
   123 C56       2.1202    4.7796   -0.3697   C.ar      1 RES1   0.0000
   124 C57       1.2653    4.5132    0.6914   C.ar      1 RES1   0.0000
   125 C58       0.7393    3.2253    0.8277   C.ar      1 RES1   0.0000
   126 C59      -0.3492    2.7148    1.7658   C.2       1 RES1   0.0000
   127 O6       -0.7267    1.5453    1.5527   O.2       1 RES1   0.0000
   128 N8       -0.9316    3.4281    2.7415   N.am      1 RES1   0.0000
   129 C60      -0.5487    4.7825    3.1206   C.3       1 RES1   0.0000
   130 C61       0.7579    4.8156    3.9075   C.3       1 RES1   0.0000
   131 C62      -2.0198    2.8644    3.4929   C.ar      1 RES1   0.0000
   132 C63      -2.9814    2.0590    2.8894   C.ar      1 RES1   0.0000
   133 C64      -4.0466    1.5904    3.6375   C.ar      1 RES1   0.0000
   134 C65      -4.1926    1.9380    4.9669   C.ar      1 RES1   0.0000
   135 C66      -3.2595    2.7655    5.5805   C.ar      1 RES1   0.0000
   136 C67      -3.4590    3.2224    6.9885   C.3       1 RES1   0.0000
   137 C68      -2.1635    3.1949    4.8381   C.ar      1 RES1   0.0000
   138 N9        1.1563    2.2462    0.0124   N.ar      1 RES1   0.0000
   139 C69       4.3267    2.1096   -2.9320   C.ar      1 RES1   0.0000
   140 C70       4.7486    2.5599   -4.1796   C.ar      1 RES1   0.0000
   141 C71       5.9033    3.3162   -4.2808   C.ar      1 RES1   0.0000
   142 C72       6.6237    3.6642   -3.1533   C.ar      1 RES1   0.0000
   143 C73       6.2130    3.2288   -1.8960   C.ar      1 RES1   0.0000
   144 C74       6.9606    3.5838   -0.6492   C.3       1 RES1   0.0000
   145 C75       5.0805    2.4263   -1.8061   C.ar      1 RES1   0.0000
   146 H55       4.2823   -1.5991   -4.3372   H         1 RES1   0.0000
   147 H56       5.2684   -0.2627   -3.7499   H         1 RES1   0.0000
   148 H57       4.3480   -1.2544   -2.6054   H         1 RES1   0.0000
   149 H58       3.1428    0.5400   -4.7622   H         1 RES1   0.0000
   150 H59       2.2195   -0.4113   -3.5859   H         1 RES1   0.0000
   151 H60       3.1067    4.0089   -2.0901   H         1 RES1   0.0000
   152 H61       2.4995    5.7810   -0.5057   H         1 RES1   0.0000
   153 H62       1.0496    5.3204    1.3644   H         1 RES1   0.0000
   154 H63      -0.5298    5.4003    2.2231   H         1 RES1   0.0000
   155 H64      -1.3420    5.1893    3.7447   H         1 RES1   0.0000
   156 H65       1.5754    4.3566    3.3603   H         1 RES1   0.0000
   157 H66       1.0302    5.8398    4.1466   H         1 RES1   0.0000
   158 H67       0.6386    4.2715    4.8405   H         1 RES1   0.0000
   159 H68      -2.9192    1.8138    1.8426   H         1 RES1   0.0000
   160 H69      -4.7988    0.9869    3.1554   H         1 RES1   0.0000
   161 H70      -5.0475    1.5962    5.5266   H         1 RES1   0.0000
   162 H71      -4.3466    2.7625    7.4134   H         1 RES1   0.0000
   163 H72      -2.6020    2.9827    7.6151   H         1 RES1   0.0000
   164 H73      -3.5977    4.3032    7.0197   H         1 RES1   0.0000
   165 H74      -1.4271    3.8078    5.3323   H         1 RES1   0.0000
   166 H75       4.1986    2.3335   -5.0766   H         1 RES1   0.0000
   167 H76       6.2359    3.6278   -5.2583   H         1 RES1   0.0000
   168 H77       7.5117    4.2676   -3.2502   H         1 RES1   0.0000
   169 H78       7.8115    4.2240   -0.8627   H         1 RES1   0.0000
   170 H79       6.3047    4.1054    0.0487   H         1 RES1   0.0000
   171 H80       7.3237    2.6833   -0.1542   H         1 RES1   0.0000
   172 H81       4.7855    2.0409   -0.8399   H         1 RES1   0.0000
@<TRIPOS>BOND
     1     1     6    1
     2     1    13    1
     3     1    24    1
     4     1    63    1
     5     1    70    1
     6     1    81    1
     7     1   120    1
     8     1   127    1
     9     1   138    1
    10     2     3    1
    11     2    32    1
    12     2    33    1
    13     2    34    1
    14     3     4    1
    15     3    35    1
    16     3    36    1
    17     4     5    1
    18     4    25    1
    19     5     6    2
    20     5     7    1
    21     7     8    1
    22     7    24    2
    23     8     9    2
    24     8    37    1
    25     9    10    1
    26     9    38    1
    27    10    11    2
    28    10    39    1
    29    11    12    1
    30    11    24    1
    31    12    13    2
    32    12    14    1
    33    14    15    1
    34    14    17    1
    35    15    16    1
    36    15    40    1
    37    15    41    1
    38    16    42    1
    39    16    43    1
    40    16    44    1
    41    17    18    1
    42    17    23    2
    43    18    19    2
    44    18    45    1
    45    19    20    1
    46    19    46    1
    47    20    21    2
    48    20    47    1
    49    21    22    1
    50    21    23    1
    51    22    48    1
    52    22    49    1
    53    22    50    1
    54    23    51    1
    55    25    26    1
    56    25    31    2
    57    26    27    2
    58    26    52    1
    59    27    28    1
    60    27    53    1
    61    28    29    2
    62    28    54    1
    63    29    30    1
    64    29    31    1
    65    30    55    1
    66    30    56    1
    67    30    57    1
    68    31    58    1
    69    59    60    1
    70    59    89    1
    71    59    90    1
    72    59    91    1
    73    60    61    1
    74    60    92    1
    75    60    93    1
    76    61    62    1
    77    61    82    1
    78    62    63    2
    79    62    64    1
    80    64    65    1
    81    64    81    2
    82    65    66    2
    83    65    94    1
    84    66    67    1
    85    66    95    1
    86    67    68    2
    87    67    96    1
    88    68    69    1
    89    68    81    1
    90    69    70    2
    91    69    71    1
    92    71    72    1
    93    71    74    1
    94    72    73    1
    95    72    97    1
    96    72    98    1
    97    73    99    1
    98    73   100    1
    99    73   101    1
   100    74    75    1
   101    74    80    2
   102    75    76    2
   103    75   102    1
   104    76    77    1
   105    76   103    1
   106    77    78    2
   107    77   104    1
   108    78    79    1
   109    78    80    1
   110    79   105    1
   111    79   106    1
   112    79   107    1
   113    80   108    1
   114    82    83    1
   115    82    88    2
   116    83    84    2
   117    83   109    1
   118    84    85    1
   119    84   110    1
   120    85    86    2
   121    85   111    1
   122    86    87    1
   123    86    88    1
   124    87   112    1
   125    87   113    1
   126    87   114    1
   127    88   115    1
   128   116   117    1
   129   116   146    1
   130   116   147    1
   131   116   148    1
   132   117   118    1
   133   117   149    1
   134   117   150    1
   135   118   119    1
   136   118   139    1
   137   119   120    2
   138   119   121    1
   139   121   122    1
   140   121   138    2
   141   122   123    2
   142   122   151    1
   143   123   124    1
   144   123   152    1
   145   124   125    2
   146   124   153    1
   147   125   126    1
   148   125   138    1
   149   126   127    2
   150   126   128    1
   151   128   129    1
   152   128   131    1
   153   129   130    1
   154   129   154    1
   155   129   155    1
   156   130   156    1
   157   130   157    1
   158   130   158    1
   159   131   132    1
   160   131   137    2
   161   132   133    2
   162   132   159    1
   163   133   134    1
   164   133   160    1
   165   134   135    2
   166   134   161    1
   167   135   136    1
   168   135   137    1
   169   136   162    1
   170   136   163    1
   171   136   164    1
   172   137   165    1
   173   139   140    1
   174   139   145    2
   175   140   141    2
   176   140   166    1
   177   141   142    1
   178   141   167    1
   179   142   143    2
   180   142   168    1
   181   143   144    1
   182   143   145    1
   183   144   169    1
   184   144   170    1
   185   144   171    1
   186   145   172    1
@<TRIPOS>SUBSTRUCTURE
     1 RES1      172 GROUP             0 ****  ****    0  
