@<TRIPOS>MOLECULE
am_c3_9H2O_c0_0_nunpairedes_0_charge_2 Charge: 2 Unpaired_Electrons: 0 XTB_Unpaired_Electrons: 0 XTB_Charge: 2
   118   132     1     0     0
SMALL
NoCharges
****
Generated from Architector

@<TRIPOS>ATOM
     1 La1      -1.4197    0.7465    0.3177   La        1 RES1   0.0000
     2 C1        5.4043    6.6243   -1.2302   C.3       1 RES1   0.0000
     3 C2        4.9782    6.6781    0.2358   C.3       1 RES1   0.0000
     4 C3        3.4449    6.7051    0.3468   C.3       1 RES1   0.0000
     5 C4        2.8185    6.0062    1.5672   C.3       1 RES1   0.0000
     6 C5        1.8922    4.8628    1.1416   C.3       1 RES1   0.0000
     7 C6        2.6606    3.5472    0.9090   C.3       1 RES1   0.0000
     8 N1        2.3266    2.9600   -0.3857   N.ar      1 RES1   0.0000
     9 C7        3.2935    2.9334   -1.3833   C.ar      1 RES1   0.0000
    10 C8        4.6583    2.4733   -0.9972   C.ar      1 RES1   0.0000
    11 C9        5.7488    3.1363   -0.4625   C.ar      1 RES1   0.0000
    12 C10       6.8885    2.4299   -0.1012   C.ar      1 RES1   0.0000
    13 C11       6.9515    1.0536   -0.2365   C.ar      1 RES1   0.0000
    14 C12       5.8739    0.3830   -0.7912   C.ar      1 RES1   0.0000
    15 C13       4.7463    1.0826   -1.1718   C.ar      1 RES1   0.0000
    16 C14       2.9512    2.7529   -2.7139   C.ar      1 RES1   0.0000
    17 C15       3.7438    3.3065   -3.8317   C.ar      1 RES1   0.0000
    18 C16       3.5609    4.6738   -4.0466   C.ar      1 RES1   0.0000
    19 C17       4.1517    5.2923   -5.1325   C.ar      1 RES1   0.0000
    20 C18       4.9244    4.5528   -6.0132   C.ar      1 RES1   0.0000
    21 C19       5.1113    3.1985   -5.7977   C.ar      1 RES1   0.0000
    22 C20       4.5285    2.5738   -4.7083   C.ar      1 RES1   0.0000
    23 C21       1.7619    2.0000   -2.9499   C.ar      1 RES1   0.0000
    24 C22       1.6164    1.1097   -4.0273   C.ar      1 RES1   0.0000
    25 C23       0.6475    0.1093   -3.9667   C.ar      1 RES1   0.0000
    26 C24       0.5607   -1.0441   -4.8099   C.ar      1 RES1   0.0000
    27 C25      -0.3137   -2.0577   -4.5652   C.ar      1 RES1   0.0000
    28 C26      -1.2862   -1.9976   -3.5137   C.ar      1 RES1   0.0000
    29 C27      -2.2206   -3.0069   -3.1657   C.ar      1 RES1   0.0000
    30 C28      -3.1228   -2.7555   -2.1541   C.ar      1 RES1   0.0000
    31 C29      -4.2895   -3.3598   -1.4519   C.ar      1 RES1   0.0000
    32 C30      -5.6147   -2.8995   -1.7121   C.ar      1 RES1   0.0000
    33 C31      -6.6469   -3.2973   -0.8388   C.ar      1 RES1   0.0000
    34 C32      -7.9221   -2.8016   -1.0022   C.ar      1 RES1   0.0000
    35 C33      -8.2015   -1.9125   -2.0311   C.ar      1 RES1   0.0000
    36 C34      -7.2068   -1.5743   -2.9423   C.ar      1 RES1   0.0000
    37 C35      -5.9328   -2.0774   -2.8088   C.ar      1 RES1   0.0000
    38 C36      -3.8694   -3.5450   -0.0856   C.ar      1 RES1   0.0000
    39 C37      -2.8925   -4.5601    0.1580   C.ar      1 RES1   0.0000
    40 C38      -2.9181   -5.6565   -0.7320   C.ar      1 RES1   0.0000
    41 C39      -1.8986   -6.5822   -0.7354   C.ar      1 RES1   0.0000
    42 C40      -0.8343   -6.4458    0.1463   C.ar      1 RES1   0.0000
    43 C41      -0.8438   -5.4265    1.0895   C.ar      1 RES1   0.0000
    44 C42      -1.8667   -4.5058    1.1143   C.ar      1 RES1   0.0000
    45 N2       -4.0256   -2.3254    0.6222   N.ar      1 RES1   0.0000
    46 C43      -4.1753   -2.2068    2.0807   C.3       1 RES1   0.0000
    47 C44      -4.6899   -0.8459    2.6071   C.3       1 RES1   0.0000
    48 C45      -3.5619    0.0953    3.0954   C.3       1 RES1   0.0000
    49 C46      -3.6653    1.5778    2.6689   C.3       1 RES1   0.0000
    50 C47      -4.4827    2.4791    3.6097   C.3       1 RES1   0.0000
    51 C48      -5.9920    2.2906    3.5052   C.3       1 RES1   0.0000
    52 C49      -3.6324   -1.2722   -0.1201   C.ar      1 RES1   0.0000
    53 O1       -3.5541   -0.0914    0.3019   O.2       1 RES1   0.0000
    54 C50      -2.9929   -1.5371   -1.4362   C.ar      1 RES1   0.0000
    55 N3       -2.1161   -0.6023   -1.7186   N.ar      1 RES1   0.0000
    56 C51      -1.2873   -0.8191   -2.7451   C.ar      1 RES1   0.0000
    57 C52      -0.2753    0.1778   -2.8945   C.ar      1 RES1   0.0000
    58 N4       -0.1961    1.0533   -1.8946   N.ar      1 RES1   0.0000
    59 C53       0.8446    1.8810   -1.8724   C.ar      1 RES1   0.0000
    60 C54       1.0663    2.5318   -0.5943   C.ar      1 RES1   0.0000
    61 O2        0.1789    2.5593    0.3025   O.2       1 RES1   0.0000
    62 H1        6.4859    6.6206   -1.3266   H         1 RES1   0.0000
    63 H2        5.0182    7.4881   -1.7600   H         1 RES1   0.0000
    64 H3        5.0166    5.7359   -1.7235   H         1 RES1   0.0000
    65 H4        5.4090    7.5783    0.6805   H         1 RES1   0.0000
    66 H5        5.3890    5.8208    0.7787   H         1 RES1   0.0000
    67 H6        3.0410    6.2278   -0.5469   H         1 RES1   0.0000
    68 H7        3.1226    7.7447    0.3347   H         1 RES1   0.0000
    69 H8        2.2301    6.7225    2.1381   H         1 RES1   0.0000
    70 H9        3.5907    5.6280    2.2364   H         1 RES1   0.0000
    71 H10       1.3950    5.1563    0.2161   H         1 RES1   0.0000
    72 H11       1.1004    4.7080    1.8727   H         1 RES1   0.0000
    73 H12       2.4384    2.8292    1.7027   H         1 RES1   0.0000
    74 H13       3.7340    3.7201    0.9026   H         1 RES1   0.0000
    75 H14       5.7579    4.2062   -0.3650   H         1 RES1   0.0000
    76 H15       7.7394    2.9562    0.3001   H         1 RES1   0.0000
    77 H16       7.8225    0.5048    0.0907   H         1 RES1   0.0000
    78 H17       5.8992   -0.6868   -0.9312   H         1 RES1   0.0000
    79 H18       3.9161    0.5476   -1.6129   H         1 RES1   0.0000
    80 H19       2.9425    5.2441   -3.3682   H         1 RES1   0.0000
    81 H20       4.0025    6.3505   -5.2858   H         1 RES1   0.0000
    82 H21       5.3737    5.0287   -6.8718   H         1 RES1   0.0000
    83 H22       5.7277    2.6182   -6.4657   H         1 RES1   0.0000
    84 H23       4.7015    1.5236   -4.5236   H         1 RES1   0.0000
    85 H24       2.3310    1.1241   -4.8314   H         1 RES1   0.0000
    86 H25       1.2531   -1.1143   -5.6338   H         1 RES1   0.0000
    87 H26      -0.2707   -2.9511   -5.1694   H         1 RES1   0.0000
    88 H27      -2.2080   -3.9459   -3.6988   H         1 RES1   0.0000
    89 H28      -6.4158   -4.0093   -0.0573   H         1 RES1   0.0000
    90 H29      -8.6999   -3.0900   -0.3165   H         1 RES1   0.0000
    91 H30      -9.1904   -1.4986   -2.1433   H         1 RES1   0.0000
    92 H31      -7.4239   -0.8968   -3.7541   H         1 RES1   0.0000
    93 H32      -5.1536   -1.8207   -3.5170   H         1 RES1   0.0000
    94 H33      -3.7450   -5.7406   -1.4255   H         1 RES1   0.0000
    95 H34      -1.9383   -7.4092   -1.4282   H         1 RES1   0.0000
    96 H35      -0.0066   -7.1344    0.1002   H         1 RES1   0.0000
    97 H36      -0.0390   -5.3471    1.8023   H         1 RES1   0.0000
    98 H37      -1.8356   -3.7110    1.8359   H         1 RES1   0.0000
    99 H38      -3.2092   -2.4258    2.5472   H         1 RES1   0.0000
   100 H39      -4.8596   -3.0072    2.3656   H         1 RES1   0.0000
   101 H40      -5.3598   -1.0712    3.4374   H         1 RES1   0.0000
   102 H41      -5.2981   -0.3722    1.8377   H         1 RES1   0.0000
   103 H42      -2.6046   -0.3047    2.7296   H         1 RES1   0.0000
   104 H43      -3.5379    0.0564    4.1861   H         1 RES1   0.0000
   105 H44      -4.1224    1.6521    1.6763   H         1 RES1   0.0000
   106 H45      -2.6479    2.0130    2.6371   H         1 RES1   0.0000
   107 H46      -4.2592    3.5181    3.3557   H         1 RES1   0.0000
   108 H47      -4.1735    2.3282    4.6466   H         1 RES1   0.0000
   109 H48      -6.3186    2.4048    2.4745   H         1 RES1   0.0000
   110 H49      -6.5028    3.0466    4.0991   H         1 RES1   0.0000
   111 H50      -6.2964    1.3131    3.8667   H         1 RES1   0.0000
   112 N5       -0.2022   -1.3677    0.1599   N.3       1 RES1   0.0000
   113 O3       -0.1125   -2.2125   -0.6761   O.2       1 RES1   0.0000
   114 O4        0.5817   -0.4223    0.2256   O.co2     1 RES1   0.0000
   115 O5       -1.1275   -1.3838    0.9857   O.co2     1 RES1   0.0000
   116 O6       -0.3925    0.9655    2.7824   O.3       1 RES1   0.0000
   117 H51       0.5305    0.6941    2.8799   H         1 RES1   0.0000
   118 H52      -0.6985    1.1725    3.6771   H         1 RES1   0.0000
@<TRIPOS>BOND
     1     1     8    1
     2     1    45    1
     3     1    53    1
     4     1    55    1
     5     1    58    1
     6     1    61    1
     7     1   114    1
     8     1   115    1
     9     1   116    1
    10     2     3    1
    11     2    62    1
    12     2    63    1
    13     2    64    1
    14     3     4    1
    15     3    65    1
    16     3    66    1
    17     4     5    1
    18     4    67    1
    19     4    68    1
    20     5     6    1
    21     5    69    1
    22     5    70    1
    23     6     7    1
    24     6    71    1
    25     6    72    1
    26     7     8    1
    27     7    73    1
    28     7    74    1
    29     8     9    1
    30     8    60    1
    31     9    10    1
    32     9    16    2
    33    10    11    1
    34    10    15    2
    35    11    12    2
    36    11    75    1
    37    12    13    1
    38    12    76    1
    39    13    14    2
    40    13    77    1
    41    14    15    1
    42    14    78    1
    43    15    79    1
    44    16    17    1
    45    16    23    1
    46    17    18    1
    47    17    22    2
    48    18    19    2
    49    18    80    1
    50    19    20    1
    51    19    81    1
    52    20    21    2
    53    20    82    1
    54    21    22    1
    55    21    83    1
    56    22    84    1
    57    23    24    1
    58    23    59    2
    59    24    25    2
    60    24    85    1
    61    25    26    1
    62    25    57    1
    63    26    27    2
    64    26    86    1
    65    27    28    1
    66    27    87    1
    67    28    29    1
    68    28    56    2
    69    29    30    2
    70    29    88    1
    71    30    31    1
    72    30    54    1
    73    31    32    1
    74    31    38    2
    75    32    33    1
    76    32    37    2
    77    33    34    2
    78    33    89    1
    79    34    35    1
    80    34    90    1
    81    35    36    2
    82    35    91    1
    83    36    37    1
    84    36    92    1
    85    37    93    1
    86    38    39    1
    87    38    45    1
    88    39    40    1
    89    39    44    2
    90    40    41    2
    91    40    94    1
    92    41    42    1
    93    41    95    1
    94    42    43    2
    95    42    96    1
    96    43    44    1
    97    43    97    1
    98    44    98    1
    99    45    46    1
   100    45    52    1
   101    46    47    1
   102    46    99    1
   103    46   100    1
   104    47    48    1
   105    47   101    1
   106    47   102    1
   107    48    49    1
   108    48   103    1
   109    48   104    1
   110    49    50    1
   111    49   105    1
   112    49   106    1
   113    50    51    1
   114    50   107    1
   115    50   108    1
   116    51   109    1
   117    51   110    1
   118    51   111    1
   119    52    53    2
   120    52    54    1
   121    54    55    2
   122    55    56    1
   123    56    57    1
   124    57    58    2
   125    58    59    1
   126    59    60    1
   127    60    61    2
   128   112   113    2
   129   112   114    1
   130   112   115    1
   131   116   117    1
   132   116   118    1
@<TRIPOS>SUBSTRUCTURE
     1 RES1      118 GROUP             0 ****  ****    0  
