@<TRIPOS>MOLECULE
cn9_YICLED_0_nunpairedes_0_charge_3 Charge: 3 Unpaired_Electrons: 0 XTB_Unpaired_Electrons: 0 XTB_Charge: 3
   148   161     1     0     0
SMALL
NoCharges
****
Generated from Architector

@<TRIPOS>ATOM
     1 La1      -0.1494   -0.1107    0.0588   La        1 RES1   0.0000
     2 C1       -5.6697    0.2692   -3.7439   C.3       1 RES1   0.0000
     3 C2       -4.5233    1.0567   -3.1175   C.3       1 RES1   0.0000
     4 N1       -4.0653    0.4592   -1.8708   N.am      1 RES1   0.0000
     5 C3       -2.8574   -0.0844   -1.7493   C.2       1 RES1   0.0000
     6 O1       -2.3441   -0.2538   -0.6139   O.2       1 RES1   0.0000
     7 C4       -2.0295   -0.5997   -2.8923   C.ar      1 RES1   0.0000
     8 C5       -2.3776   -0.8485   -4.2178   C.ar      1 RES1   0.0000
     9 C6       -1.3964   -1.3136   -5.0811   C.ar      1 RES1   0.0000
    10 C7       -0.1296   -1.6053   -4.6075   C.ar      1 RES1   0.0000
    11 C8        0.0867   -1.4807   -3.2391   C.ar      1 RES1   0.0000
    12 C9        1.2178   -2.0830   -2.5170   C.ar      1 RES1   0.0000
    13 C10       2.3602   -2.6287   -3.0959   C.ar      1 RES1   0.0000
    14 C11       3.2319   -3.3390   -2.2840   C.ar      1 RES1   0.0000
    15 C12       2.9015   -3.5529   -0.9546   C.ar      1 RES1   0.0000
    16 C13       1.7200   -3.0018   -0.4629   C.ar      1 RES1   0.0000
    17 C14       1.1662   -3.1515    0.9236   C.2       1 RES1   0.0000
    18 O2        0.7096   -2.1026    1.4439   O.2       1 RES1   0.0000
    19 N2        1.1589   -4.3548    1.4889   N.am      1 RES1   0.0000
    20 C15       1.4398   -5.5583    0.7019   C.3       1 RES1   0.0000
    21 C16       2.7344   -6.2382    1.1425   C.3       1 RES1   0.0000
    22 C17       0.9623   -4.5612    2.8862   C.ar      1 RES1   0.0000
    23 C18       0.5954   -5.8178    3.3510   C.ar      1 RES1   0.0000
    24 C19       0.6604   -6.1181    4.7079   C.ar      1 RES1   0.0000
    25 C20       0.4425   -7.5258    5.1510   C.3       1 RES1   0.0000
    26 C21       0.9944   -5.1126    5.6013   C.ar      1 RES1   0.0000
    27 C22       1.2792   -3.8243    5.1588   C.ar      1 RES1   0.0000
    28 C23       1.6151   -2.7662    6.1661   C.3       1 RES1   0.0000
    29 C24       1.2850   -3.5563    3.7968   C.ar      1 RES1   0.0000
    30 N3        0.9528   -2.2211   -1.2116   N.ar      1 RES1   0.0000
    31 N4       -0.8333   -0.9579   -2.4348   N.ar      1 RES1   0.0000
    32 C25      -4.9526    0.4896   -0.7441   C.ar      1 RES1   0.0000
    33 C26      -4.9151   -0.5277    0.2091   C.ar      1 RES1   0.0000
    34 C27      -5.8526   -0.5616    1.2347   C.ar      1 RES1   0.0000
    35 C28      -5.8541   -1.6762    2.2324   C.3       1 RES1   0.0000
    36 C29      -6.8224    0.4277    1.3010   C.ar      1 RES1   0.0000
    37 C30      -6.8788    1.4443    0.3550   C.ar      1 RES1   0.0000
    38 C31      -7.9611    2.4690    0.4086   C.3       1 RES1   0.0000
    39 C32      -5.9340    1.4742   -0.6591   C.ar      1 RES1   0.0000
    40 H1       -5.9386    0.6971   -4.7076   H         1 RES1   0.0000
    41 H2       -6.5391    0.3020   -3.0916   H         1 RES1   0.0000
    42 H3       -5.4008   -0.7750   -3.8910   H         1 RES1   0.0000
    43 H4       -4.8687    2.0697   -2.8983   H         1 RES1   0.0000
    44 H5       -3.6770    1.1499   -3.8000   H         1 RES1   0.0000
    45 H6       -3.3792   -0.7424   -4.5896   H         1 RES1   0.0000
    46 H7       -1.6381   -1.4662   -6.1185   H         1 RES1   0.0000
    47 H8        0.6525   -1.9540   -5.2586   H         1 RES1   0.0000
    48 H9        2.5827   -2.4956   -4.1423   H         1 RES1   0.0000
    49 H10       4.1347   -3.7649   -2.6944   H         1 RES1   0.0000
    50 H11       3.5603   -4.1111   -0.3160   H         1 RES1   0.0000
    51 H12       1.4888   -5.3060   -0.3565   H         1 RES1   0.0000
    52 H13       0.5992   -6.2461    0.8174   H         1 RES1   0.0000
    53 H14       3.5612   -5.5304    1.1684   H         1 RES1   0.0000
    54 H15       2.9865   -7.0438    0.4556   H         1 RES1   0.0000
    55 H16       2.6339   -6.6537    2.1414   H         1 RES1   0.0000
    56 H17       0.2953   -6.6122    2.6870   H         1 RES1   0.0000
    57 H18       1.1793   -8.1756    4.6798   H         1 RES1   0.0000
    58 H19      -0.5414   -7.8795    4.8529   H         1 RES1   0.0000
    59 H20       0.5453   -7.6204    6.2269   H         1 RES1   0.0000
    60 H21       1.0525   -5.3252    6.6594   H         1 RES1   0.0000
    61 H22       2.5092   -3.0473    6.7199   H         1 RES1   0.0000
    62 H23       0.8140   -2.6754    6.8988   H         1 RES1   0.0000
    63 H24       1.7888   -1.7950    5.7041   H         1 RES1   0.0000
    64 H25       1.5670   -2.5731    3.4470   H         1 RES1   0.0000
    65 H26      -4.1706   -1.3101    0.1648   H         1 RES1   0.0000
    66 H27      -4.8933   -1.7634    2.7324   H         1 RES1   0.0000
    67 H28      -6.0644   -2.6269    1.7471   H         1 RES1   0.0000
    68 H29      -6.6161   -1.5040    2.9854   H         1 RES1   0.0000
    69 H30      -7.5618    0.3968    2.0876   H         1 RES1   0.0000
    70 H31      -7.9263    3.0204    1.3441   H         1 RES1   0.0000
    71 H32      -8.9320    1.9837    0.3574   H         1 RES1   0.0000
    72 H33      -7.8828    3.1690   -0.4165   H         1 RES1   0.0000
    73 H34      -5.9907    2.2765   -1.3796   H         1 RES1   0.0000
    74 C33      -0.2102    5.5585   -1.7583   C.3       1 RES1   0.0000
    75 C34      -0.6026    4.6170   -2.8864   C.3       1 RES1   0.0000
    76 N5        0.0556    3.3109   -3.0006   N.am      1 RES1   0.0000
    77 C35       0.5334    2.5596   -2.0089   C.2       1 RES1   0.0000
    78 O3        0.5189    1.3055   -2.0557   O.2       1 RES1   0.0000
    79 C36       1.2667    3.1006   -0.8283   C.ar      1 RES1   0.0000
    80 C37       2.2708    4.0605   -0.9273   C.ar      1 RES1   0.0000
    81 C38       3.0643    4.2999    0.1822   C.ar      1 RES1   0.0000
    82 C39       2.8479    3.5674    1.3367   C.ar      1 RES1   0.0000
    83 C40       1.8368    2.6077    1.3497   C.ar      1 RES1   0.0000
    84 C41       1.5069    1.8012    2.5415   C.ar      1 RES1   0.0000
    85 C42       2.0854    2.0197    3.7887   C.ar      1 RES1   0.0000
    86 C43       1.5549    1.3740    4.8939   C.ar      1 RES1   0.0000
    87 C44       0.4452    0.5610    4.7371   C.ar      1 RES1   0.0000
    88 C45      -0.0325    0.3231    3.4484   C.ar      1 RES1   0.0000
    89 C46      -1.3898   -0.2383    3.1529   C.2       1 RES1   0.0000
    90 O4       -1.8676    0.0617    2.0435   O.2       1 RES1   0.0000
    91 N6       -2.0992   -0.8055    4.1587   N.am      1 RES1   0.0000
    92 C47      -1.5441   -1.9601    4.8487   C.3       1 RES1   0.0000
    93 C48      -1.9900   -3.2414    4.1350   C.3       1 RES1   0.0000
    94 C49      -3.4184   -0.3983    4.4613   C.ar      1 RES1   0.0000
    95 C50      -3.8166    0.8890    4.1010   C.ar      1 RES1   0.0000
    96 C51      -5.0265    1.3994    4.5444   C.ar      1 RES1   0.0000
    97 C52      -5.4196    2.8072    4.2259   C.3       1 RES1   0.0000
    98 C53      -5.8517    0.6014    5.3314   C.ar      1 RES1   0.0000
    99 C54      -5.4777   -0.6863    5.6886   C.ar      1 RES1   0.0000
   100 C55      -6.3533   -1.5499    6.5375   C.3       1 RES1   0.0000
   101 C56      -4.2530   -1.1811    5.2560   C.ar      1 RES1   0.0000
   102 N7        0.5230    0.9080    2.3788   N.ar      1 RES1   0.0000
   103 N8        1.0709    2.3796    0.2770   N.ar      1 RES1   0.0000
   104 C57      -0.1515    2.6494   -4.2572   C.ar      1 RES1   0.0000
   105 C58       0.9062    1.9209   -4.7976   C.ar      1 RES1   0.0000
   106 C59       0.7514    1.2849   -6.0204   C.ar      1 RES1   0.0000
   107 C60       1.8546    0.5134   -6.6743   C.3       1 RES1   0.0000
   108 C61      -0.4721    1.3797   -6.6798   C.ar      1 RES1   0.0000
   109 C62      -1.5239    2.1163   -6.1601   C.ar      1 RES1   0.0000
   110 C63      -2.8245    2.2224   -6.8902   C.3       1 RES1   0.0000
   111 C64      -1.3542    2.7597   -4.9368   C.ar      1 RES1   0.0000
   112 H35      -0.9429    6.3669   -1.7339   H         1 RES1   0.0000
   113 H36       0.7667    6.0081   -1.9182   H         1 RES1   0.0000
   114 H37      -0.2312    5.0637   -0.7895   H         1 RES1   0.0000
   115 H38      -0.4571    5.1263   -3.8413   H         1 RES1   0.0000
   116 H39      -1.6770    4.4214   -2.7779   H         1 RES1   0.0000
   117 H40       2.4594    4.5783   -1.8506   H         1 RES1   0.0000
   118 H41       3.8488    5.0378    0.1443   H         1 RES1   0.0000
   119 H42       3.4662    3.7225    2.2023   H         1 RES1   0.0000
   120 H43       2.9167    2.6914    3.9109   H         1 RES1   0.0000
   121 H44       1.9691    1.5592    5.8714   H         1 RES1   0.0000
   122 H45      -0.0605    0.1554    5.5950   H         1 RES1   0.0000
   123 H46      -1.8752   -1.9520    5.8884   H         1 RES1   0.0000
   124 H47      -0.4576   -1.9177    4.8117   H         1 RES1   0.0000
   125 H48      -3.0736   -3.3236    4.1088   H         1 RES1   0.0000
   126 H49      -1.5920   -4.1223    4.6344   H         1 RES1   0.0000
   127 H50      -1.6193   -3.2247    3.1112   H         1 RES1   0.0000
   128 H51      -3.1626    1.5122    3.5062   H         1 RES1   0.0000
   129 H52      -4.6849    3.5090    4.6172   H         1 RES1   0.0000
   130 H53      -6.3810    3.0412    4.6719   H         1 RES1   0.0000
   131 H54      -5.4815    2.9600    3.1504   H         1 RES1   0.0000
   132 H55      -6.7901    0.9987    5.6914   H         1 RES1   0.0000
   133 H56      -7.2689   -1.0364    6.8100   H         1 RES1   0.0000
   134 H57      -5.8367   -1.8344    7.4523   H         1 RES1   0.0000
   135 H58      -6.6120   -2.4624    6.0033   H         1 RES1   0.0000
   136 H59      -3.9736   -2.1740    5.5700   H         1 RES1   0.0000
   137 H60       1.8505    1.8719   -4.2709   H         1 RES1   0.0000
   138 H61       2.7492    0.4610   -6.0607   H         1 RES1   0.0000
   139 H62       2.1154    0.9854   -7.6202   H         1 RES1   0.0000
   140 H63       1.5190   -0.4951   -6.9101   H         1 RES1   0.0000
   141 H64      -0.5945    0.8872   -7.6352   H         1 RES1   0.0000
   142 H65      -2.8049    1.6402   -7.8062   H         1 RES1   0.0000
   143 H66      -3.0291    3.2585   -7.1531   H         1 RES1   0.0000
   144 H67      -3.6466    1.8717   -6.2679   H         1 RES1   0.0000
   145 H68      -2.1628    3.3557   -4.5392   H         1 RES1   0.0000
   146 O5        2.6394   -0.1791    0.3972   O.3       1 RES1   0.0000
   147 H69       2.9992   -0.4591    1.2491   H         1 RES1   0.0000
   148 H70       3.3559    0.2825   -0.0564   H         1 RES1   0.0000
@<TRIPOS>BOND
     1     1     6    1
     2     1    18    1
     3     1    30    1
     4     1    31    1
     5     1    78    1
     6     1    90    1
     7     1   102    1
     8     1   103    1
     9     1   146    1
    10     2     3    1
    11     2    40    1
    12     2    41    1
    13     2    42    1
    14     3     4    1
    15     3    43    1
    16     3    44    1
    17     4     5    1
    18     4    32    1
    19     5     6    2
    20     5     7    1
    21     7     8    1
    22     7    31    2
    23     8     9    2
    24     8    45    1
    25     9    10    1
    26     9    46    1
    27    10    11    2
    28    10    47    1
    29    11    12    1
    30    11    31    1
    31    12    13    1
    32    12    30    2
    33    13    14    2
    34    13    48    1
    35    14    15    1
    36    14    49    1
    37    15    16    2
    38    15    50    1
    39    16    17    1
    40    16    30    1
    41    17    18    2
    42    17    19    1
    43    19    20    1
    44    19    22    1
    45    20    21    1
    46    20    51    1
    47    20    52    1
    48    21    53    1
    49    21    54    1
    50    21    55    1
    51    22    23    1
    52    22    29    2
    53    23    24    2
    54    23    56    1
    55    24    25    1
    56    24    26    1
    57    25    57    1
    58    25    58    1
    59    25    59    1
    60    26    27    2
    61    26    60    1
    62    27    28    1
    63    27    29    1
    64    28    61    1
    65    28    62    1
    66    28    63    1
    67    29    64    1
    68    32    33    1
    69    32    39    2
    70    33    34    2
    71    33    65    1
    72    34    35    1
    73    34    36    1
    74    35    66    1
    75    35    67    1
    76    35    68    1
    77    36    37    2
    78    36    69    1
    79    37    38    1
    80    37    39    1
    81    38    70    1
    82    38    71    1
    83    38    72    1
    84    39    73    1
    85    74    75    1
    86    74   112    1
    87    74   113    1
    88    74   114    1
    89    75    76    1
    90    75   115    1
    91    75   116    1
    92    76    77    1
    93    76   104    1
    94    77    78    2
    95    77    79    1
    96    79    80    1
    97    79   103    2
    98    80    81    2
    99    80   117    1
   100    81    82    1
   101    81   118    1
   102    82    83    2
   103    82   119    1
   104    83    84    1
   105    83   103    1
   106    84    85    1
   107    84   102    2
   108    85    86    2
   109    85   120    1
   110    86    87    1
   111    86   121    1
   112    87    88    2
   113    87   122    1
   114    88    89    1
   115    88   102    1
   116    89    90    2
   117    89    91    1
   118    91    92    1
   119    91    94    1
   120    92    93    1
   121    92   123    1
   122    92   124    1
   123    93   125    1
   124    93   126    1
   125    93   127    1
   126    94    95    1
   127    94   101    2
   128    95    96    2
   129    95   128    1
   130    96    97    1
   131    96    98    1
   132    97   129    1
   133    97   130    1
   134    97   131    1
   135    98    99    2
   136    98   132    1
   137    99   100    1
   138    99   101    1
   139   100   133    1
   140   100   134    1
   141   100   135    1
   142   101   136    1
   143   104   105    1
   144   104   111    2
   145   105   106    2
   146   105   137    1
   147   106   107    1
   148   106   108    1
   149   107   138    1
   150   107   139    1
   151   107   140    1
   152   108   109    2
   153   108   141    1
   154   109   110    1
   155   109   111    1
   156   110   142    1
   157   110   143    1
   158   110   144    1
   159   111   145    1
   160   146   147    1
   161   146   148    1
@<TRIPOS>SUBSTRUCTURE
     1 RES1      148 GROUP             0 ****  ****    0  
