@<TRIPOS>MOLECULE
am_c3_9H2O_c0_0_nunpairedes_0_charge_3 Charge: 3 Unpaired_Electrons: 0 XTB_Unpaired_Electrons: 0 XTB_Charge: 3
   328   333     1     0     0
SMALL
NoCharges
****
Generated from Architector

@<TRIPOS>ATOM
     1 La1       0.1784   -0.0244   -0.0354   La        1 RES1   0.0000
     2 C1       -1.6052    2.2040    7.4417   C.3       1 RES1   0.0000
     3 C2       -1.3868    3.6106    6.9016   C.3       1 RES1   0.0000
     4 C3       -1.9296    3.8254    5.4866   C.3       1 RES1   0.0000
     5 C4       -1.3011    2.8838    4.4546   C.3       1 RES1   0.0000
     6 C5       -1.2862    3.4488    3.0337   C.3       1 RES1   0.0000
     7 C6       -2.6538    3.6261    2.3648   C.3       1 RES1   0.0000
     8 N1       -3.3628    2.3953    2.0067   N.am      1 RES1   0.0000
     9 C7       -4.8233    2.4779    2.1078   C.3       1 RES1   0.0000
    10 C8       -5.4020    3.0842    0.8227   C.3       1 RES1   0.0000
    11 C9       -6.9301    3.2832    0.7636   C.3       1 RES1   0.0000
    12 C10      -7.4404    4.2002    1.8728   C.3       1 RES1   0.0000
    13 C11      -7.7583    1.9923    0.6130   C.3       1 RES1   0.0000
    14 C12      -7.9854    1.1152    1.8528   C.3       1 RES1   0.0000
    15 C13      -7.1753   -0.1521    1.9002   C.2       1 RES1   0.0000
    16 C14      -7.3120   -1.1223    2.7985   C.2       1 RES1   0.0000
    17 C15      -6.5209   -2.4006    2.7199   C.3       1 RES1   0.0000
    18 C16      -8.2861   -1.0836    3.9333   C.3       1 RES1   0.0000
    19 C17      -2.7414    1.4303    1.3380   C.2       1 RES1   0.0000
    20 O1       -1.5464    1.4780    0.9726   O.2       1 RES1   0.0000
    21 C18      -3.5438    0.1879    0.9717   C.3       1 RES1   0.0000
    22 O2       -2.6356   -0.8929    0.8192   O.3       1 RES1   0.0000
    23 C19      -3.1499   -1.9103   -0.0218   C.3       1 RES1   0.0000
    24 C20      -2.7709   -1.5354   -1.4596   C.2       1 RES1   0.0000
    25 O3       -1.6482   -0.9861   -1.5996   O.2       1 RES1   0.0000
    26 N2       -3.6236   -1.7322   -2.4550   N.am      1 RES1   0.0000
    27 C21      -4.8754   -2.4737   -2.3403   C.3       1 RES1   0.0000
    28 C22      -4.7356   -4.0004   -2.4189   C.3       1 RES1   0.0000
    29 C23      -4.3213   -4.5163   -3.7990   C.3       1 RES1   0.0000
    30 C24      -4.5735   -6.0175   -3.9828   C.3       1 RES1   0.0000
    31 C25      -3.6498   -6.9142   -3.1584   C.3       1 RES1   0.0000
    32 C26      -4.0024   -8.3855   -3.3377   C.3       1 RES1   0.0000
    33 C27      -3.2116   -1.2935   -3.7942   C.3       1 RES1   0.0000
    34 C28      -4.2838   -0.7538   -4.7425   C.3       1 RES1   0.0000
    35 C29      -4.9808    0.5833   -4.3951   C.3       1 RES1   0.0000
    36 C30      -4.7292    1.0771   -2.9703   C.3       1 RES1   0.0000
    37 C31      -4.6367    1.6740   -5.4241   C.3       1 RES1   0.0000
    38 C32      -3.1342    1.9268   -5.6580   C.3       1 RES1   0.0000
    39 C33      -2.6216    1.2632   -6.9025   C.2       1 RES1   0.0000
    40 C34      -1.6642    0.3526   -7.0394   C.2       1 RES1   0.0000
    41 C35      -0.8785   -0.2693   -5.9285   C.3       1 RES1   0.0000
    42 C36      -1.2743   -0.1416   -8.4065   C.3       1 RES1   0.0000
    43 H1       -1.2255    2.1307    8.4562   H         1 RES1   0.0000
    44 H2       -1.0903    1.4606    6.8382   H         1 RES1   0.0000
    45 H3       -2.6637    1.9658    7.4591   H         1 RES1   0.0000
    46 H4       -0.3200    3.8433    6.9109   H         1 RES1   0.0000
    47 H5       -1.8766    4.3210    7.5678   H         1 RES1   0.0000
    48 H6       -1.7199    4.8596    5.2014   H         1 RES1   0.0000
    49 H7       -3.0138    3.7039    5.5014   H         1 RES1   0.0000
    50 H8       -1.8080    1.9189    4.4563   H         1 RES1   0.0000
    51 H9       -0.2615    2.7023    4.7395   H         1 RES1   0.0000
    52 H10      -0.6729    2.8001    2.4079   H         1 RES1   0.0000
    53 H11      -0.8299    4.4424    3.0688   H         1 RES1   0.0000
    54 H12      -2.5179    4.2192    1.4540   H         1 RES1   0.0000
    55 H13      -3.3033    4.1845    3.0367   H         1 RES1   0.0000
    56 H14      -5.0575    3.1140    2.9603   H         1 RES1   0.0000
    57 H15      -5.2664    1.5020    2.2962   H         1 RES1   0.0000
    58 H16      -5.1090    2.4579   -0.0250   H         1 RES1   0.0000
    59 H17      -4.9438    4.0665    0.6763   H         1 RES1   0.0000
    60 H18      -7.0884    3.8203   -0.1804   H         1 RES1   0.0000
    61 H19      -7.3170    3.7683    2.8613   H         1 RES1   0.0000
    62 H20      -8.4977    4.4018    1.7256   H         1 RES1   0.0000
    63 H21      -6.9115    5.1504    1.8474   H         1 RES1   0.0000
    64 H22      -7.3150    1.3921   -0.1858   H         1 RES1   0.0000
    65 H23      -8.7375    2.3123    0.2526   H         1 RES1   0.0000
    66 H24      -9.0383    0.8298    1.8747   H         1 RES1   0.0000
    67 H25      -7.8160    1.7016    2.7559   H         1 RES1   0.0000
    68 H26      -6.4814   -0.2962    1.0780   H         1 RES1   0.0000
    69 H27      -7.0634   -3.1323    2.1239   H         1 RES1   0.0000
    70 H28      -6.3891   -2.8227    3.7116   H         1 RES1   0.0000
    71 H29      -5.5409   -2.2539    2.2712   H         1 RES1   0.0000
    72 H30      -8.8047   -0.1344    4.0021   H         1 RES1   0.0000
    73 H31      -7.7724   -1.2718    4.8747   H         1 RES1   0.0000
    74 H32      -9.0245   -1.8745    3.8026   H         1 RES1   0.0000
    75 H33      -4.0672    0.3860    0.0275   H         1 RES1   0.0000
    76 H34      -4.2806   -0.0728    1.7395   H         1 RES1   0.0000
    77 H35      -4.2224   -2.0520    0.1344   H         1 RES1   0.0000
    78 H36      -2.6381   -2.8323    0.2740   H         1 RES1   0.0000
    79 H37      -5.5229   -2.1543   -3.1559   H         1 RES1   0.0000
    80 H38      -5.3907   -2.2133   -1.4123   H         1 RES1   0.0000
    81 H39      -5.7190   -4.4115   -2.1863   H         1 RES1   0.0000
    82 H40      -4.0418   -4.3587   -1.6595   H         1 RES1   0.0000
    83 H41      -3.2634   -4.3083   -3.9740   H         1 RES1   0.0000
    84 H42      -4.8960   -3.9898   -4.5633   H         1 RES1   0.0000
    85 H43      -4.4383   -6.2604   -5.0394   H         1 RES1   0.0000
    86 H44      -5.6118   -6.2473   -3.7322   H         1 RES1   0.0000
    87 H45      -3.7218   -6.6534   -2.0998   H         1 RES1   0.0000
    88 H46      -2.6155   -6.7528   -3.4750   H         1 RES1   0.0000
    89 H47      -5.0291   -8.5663   -3.0305   H         1 RES1   0.0000
    90 H48      -3.3433   -9.0097   -2.7402   H         1 RES1   0.0000
    91 H49      -3.9001   -8.6779   -4.3792   H         1 RES1   0.0000
    92 H50      -2.7403   -2.1473   -4.2886   H         1 RES1   0.0000
    93 H51      -2.4414   -0.5421   -3.6313   H         1 RES1   0.0000
    94 H52      -5.0322   -1.5209   -4.9399   H         1 RES1   0.0000
    95 H53      -3.7594   -0.6124   -5.6874   H         1 RES1   0.0000
    96 H54      -6.0606    0.4249   -4.4813   H         1 RES1   0.0000
    97 H55      -3.6704    1.2360   -2.7761   H         1 RES1   0.0000
    98 H56      -5.1197    0.3708   -2.2390   H         1 RES1   0.0000
    99 H57      -5.2401    2.0275   -2.8264   H         1 RES1   0.0000
   100 H58      -5.1135    2.6011   -5.0996   H         1 RES1   0.0000
   101 H59      -5.0871    1.3986   -6.3783   H         1 RES1   0.0000
   102 H60      -2.5606    1.6330   -4.7807   H         1 RES1   0.0000
   103 H61      -2.9917    3.0022   -5.7958   H         1 RES1   0.0000
   104 H62      -3.1045    1.6266   -7.8005   H         1 RES1   0.0000
   105 H63      -1.0418    0.2157   -4.9742   H         1 RES1   0.0000
   106 H64       0.1788   -0.2255   -6.1614   H         1 RES1   0.0000
   107 H65      -1.1383   -1.3232   -5.8427   H         1 RES1   0.0000
   108 H66      -2.1462   -0.3788   -9.0114   H         1 RES1   0.0000
   109 H67      -0.6596   -1.0342   -8.3237   H         1 RES1   0.0000
   110 H68      -0.7010    0.6177   -8.9401   H         1 RES1   0.0000
   111 C37       2.1910    2.0704    7.9786   C.3       1 RES1   0.0000
   112 C38       2.6494    0.6242    7.8447   C.3       1 RES1   0.0000
   113 C39       3.2267    0.2976    6.4667   C.3       1 RES1   0.0000
   114 C40       2.1721    0.3058    5.3592   C.3       1 RES1   0.0000
   115 C41       2.6463   -0.3678    4.0717   C.3       1 RES1   0.0000
   116 C42       3.7823    0.3653    3.3482   C.3       1 RES1   0.0000
   117 N3        3.3864    1.6815    2.8589   N.am      1 RES1   0.0000
   118 C43       3.7543    2.8726    3.6230   C.3       1 RES1   0.0000
   119 C44       5.2265    3.0437    4.0208   C.3       1 RES1   0.0000
   120 C45       6.1877    3.5755    2.9508   C.3       1 RES1   0.0000
   121 C46       7.5791    3.7117    3.5714   C.3       1 RES1   0.0000
   122 C47       5.7664    4.9161    2.3302   C.3       1 RES1   0.0000
   123 C48       5.2960    6.0037    3.3101   C.3       1 RES1   0.0000
   124 C49       3.8044    6.0247    3.4453   C.2       1 RES1   0.0000
   125 C50       3.0504    5.9666    4.5376   C.2       1 RES1   0.0000
   126 C51       1.5522    5.9928    4.4272   C.3       1 RES1   0.0000
   127 C52       3.5388    5.8432    5.9470   C.3       1 RES1   0.0000
   128 C53       2.4883    1.6644    1.8822   C.2       1 RES1   0.0000
   129 O4        2.0714    0.5929    1.3971   O.2       1 RES1   0.0000
   130 C54       1.9221    2.9686    1.3179   C.3       1 RES1   0.0000
   131 O5        0.9974    2.5572    0.3271   O.3       1 RES1   0.0000
   132 C55       0.6219    3.5195   -0.6453   C.3       1 RES1   0.0000
   133 C56       0.5011    2.7544   -1.9746   C.2       1 RES1   0.0000
   134 O6        0.3154    1.5179   -1.9117   O.2       1 RES1   0.0000
   135 N4        0.6332    3.4067   -3.1214   N.am      1 RES1   0.0000
   136 C57       0.5816    4.8611   -3.2179   C.3       1 RES1   0.0000
   137 C58      -0.7848    5.4725   -2.8850   C.3       1 RES1   0.0000
   138 C59      -1.9151    4.8210   -3.6809   C.3       1 RES1   0.0000
   139 C60      -3.2735    5.4937   -3.4719   C.3       1 RES1   0.0000
   140 C61      -3.8948    5.2207   -2.1025   C.3       1 RES1   0.0000
   141 C62      -5.2955    5.8152   -2.0149   C.3       1 RES1   0.0000
   142 C63       0.5891    2.6417   -4.3791   C.3       1 RES1   0.0000
   143 C64       1.6207    3.0256   -5.4513   C.3       1 RES1   0.0000
   144 C65       2.9275    2.2129   -5.5162   C.3       1 RES1   0.0000
   145 C66       3.6721    2.2699   -4.1896   C.3       1 RES1   0.0000
   146 C67       2.7478    0.7874   -6.0805   C.3       1 RES1   0.0000
   147 C68       2.6338   -0.3418   -5.0503   C.3       1 RES1   0.0000
   148 C69       2.1899   -1.6356   -5.6671   C.2       1 RES1   0.0000
   149 C70       1.5140   -2.6175   -5.0801   C.2       1 RES1   0.0000
   150 C71       1.0455   -2.6066   -3.6523   C.3       1 RES1   0.0000
   151 C72       1.1428   -3.8596   -5.8495   C.3       1 RES1   0.0000
   152 H69       1.8031    2.2478    8.9771   H         1 RES1   0.0000
   153 H70       1.4029    2.2982    7.2659   H         1 RES1   0.0000
   154 H71       3.0235    2.7522    7.8186   H         1 RES1   0.0000
   155 H72       1.8132   -0.0468    8.0515   H         1 RES1   0.0000
   156 H73       3.4180    0.4290    8.5931   H         1 RES1   0.0000
   157 H74       3.6802   -0.6954    6.5070   H         1 RES1   0.0000
   158 H75       4.0165    1.0146    6.2392   H         1 RES1   0.0000
   159 H76       1.8538    1.3264    5.1448   H         1 RES1   0.0000
   160 H77       1.2899   -0.2305    5.7148   H         1 RES1   0.0000
   161 H78       1.8053   -0.4681    3.3807   H         1 RES1   0.0000
   162 H79       3.0063   -1.3683    4.3165   H         1 RES1   0.0000
   163 H80       4.0856   -0.2224    2.4772   H         1 RES1   0.0000
   164 H81       4.6367    0.4815    4.0050   H         1 RES1   0.0000
   165 H82       3.1732    2.8591    4.5512   H         1 RES1   0.0000
   166 H83       3.4648    3.7577    3.0664   H         1 RES1   0.0000
   167 H84       5.6389    2.1148    4.4166   H         1 RES1   0.0000
   168 H85       5.2242    3.7622    4.8407   H         1 RES1   0.0000
   169 H86       6.2548    2.8434    2.1371   H         1 RES1   0.0000
   170 H87       7.5791    4.4548    4.3641   H         1 RES1   0.0000
   171 H88       8.2985    4.0240    2.8202   H         1 RES1   0.0000
   172 H89       7.9165    2.7663    3.9886   H         1 RES1   0.0000
   173 H90       4.9749    4.7448    1.5976   H         1 RES1   0.0000
   174 H91       6.6310    5.2867    1.7803   H         1 RES1   0.0000
   175 H92       5.5992    6.9748    2.9101   H         1 RES1   0.0000
   176 H93       5.7852    5.8907    4.2738   H         1 RES1   0.0000
   177 H94       3.2954    6.1406    2.4911   H         1 RES1   0.0000
   178 H95       1.2351    6.1102    3.3926   H         1 RES1   0.0000
   179 H96       1.1490    6.8207    5.0066   H         1 RES1   0.0000
   180 H97       1.1277    5.0730    4.8316   H         1 RES1   0.0000
   181 H98       4.6182    5.9099    6.0251   H         1 RES1   0.0000
   182 H99       3.2065    4.8971    6.3782   H         1 RES1   0.0000
   183 H100      3.1066    6.6402    6.5498   H         1 RES1   0.0000
   184 H101      2.7191    3.5844    0.8886   H         1 RES1   0.0000
   185 H102      1.4205    3.5247    2.1173   H         1 RES1   0.0000
   186 H103      1.3597    4.3236   -0.7168   H         1 RES1   0.0000
   187 H104     -0.3550    3.9421   -0.3721   H         1 RES1   0.0000
   188 H105      0.8041    5.1197   -4.2512   H         1 RES1   0.0000
   189 H106      1.3568    5.3142   -2.5946   H         1 RES1   0.0000
   190 H107     -0.7267    6.5287   -3.1511   H         1 RES1   0.0000
   191 H108     -0.9972    5.4163   -1.8178   H         1 RES1   0.0000
   192 H109     -2.0021    3.7682   -3.3976   H         1 RES1   0.0000
   193 H110     -1.6686    4.8735   -4.7441   H         1 RES1   0.0000
   194 H111     -3.9597    5.1250   -4.2376   H         1 RES1   0.0000
   195 H112     -3.1769    6.5716   -3.6126   H         1 RES1   0.0000
   196 H113     -3.2708    5.6577   -1.3187   H         1 RES1   0.0000
   197 H114     -3.9369    4.1394   -1.9341   H         1 RES1   0.0000
   198 H115     -5.2567    6.8857   -2.1965   H         1 RES1   0.0000
   199 H116     -5.7302    5.6498   -1.0324   H         1 RES1   0.0000
   200 H117     -5.9487    5.3687   -2.7607   H         1 RES1   0.0000
   201 H118     -0.4105    2.7668   -4.7984   H         1 RES1   0.0000
   202 H119      0.7161    1.5963   -4.1112   H         1 RES1   0.0000
   203 H120      1.9010    4.0737   -5.3483   H         1 RES1   0.0000
   204 H121      1.1244    2.9351   -6.4191   H         1 RES1   0.0000
   205 H122      3.5457    2.7444   -6.2488   H         1 RES1   0.0000
   206 H123      3.0836    1.8626   -3.3723   H         1 RES1   0.0000
   207 H124      3.9165    3.3013   -3.9592   H         1 RES1   0.0000
   208 H125      4.6005    1.7159   -4.2613   H         1 RES1   0.0000
   209 H126      3.6107    0.5633   -6.7102   H         1 RES1   0.0000
   210 H127      1.8766    0.7913   -6.7370   H         1 RES1   0.0000
   211 H128      1.9651   -0.0681   -4.2331   H         1 RES1   0.0000
   212 H129      3.6274   -0.4966   -4.6310   H         1 RES1   0.0000
   213 H130      2.4826   -1.7728   -6.6989   H         1 RES1   0.0000
   214 H131      1.2937   -1.6855   -3.1294   H         1 RES1   0.0000
   215 H132      1.5020   -3.4410   -3.1191   H         1 RES1   0.0000
   216 H133     -0.0362   -2.7379   -3.6134   H         1 RES1   0.0000
   217 H134      0.5127   -3.6087   -6.7014   H         1 RES1   0.0000
   218 H135      0.6041   -4.5657   -5.2216   H         1 RES1   0.0000
   219 H136      2.0278   -4.3583   -6.2400   H         1 RES1   0.0000
   220 C73       4.6205    4.3385   -1.3783   C.3       1 RES1   0.0000
   221 C74       5.6154    3.1923   -1.2360   C.3       1 RES1   0.0000
   222 C75       5.0174    1.9947   -0.4960   C.3       1 RES1   0.0000
   223 C76       5.9317    0.7678   -0.5031   C.3       1 RES1   0.0000
   224 C77       6.0456    0.1056   -1.8744   C.3       1 RES1   0.0000
   225 C78       4.8052   -0.6918   -2.2978   C.3       1 RES1   0.0000
   226 N5        4.3431   -1.7753   -1.4281   N.am      1 RES1   0.0000
   227 C79       5.1065   -3.0188   -1.4976   C.3       1 RES1   0.0000
   228 C80       6.4084   -2.9997   -0.6912   C.3       1 RES1   0.0000
   229 C81       7.3551   -4.1746   -1.0067   C.3       1 RES1   0.0000
   230 C82       7.6077   -4.3349   -2.5076   C.3       1 RES1   0.0000
   231 C83       6.9014   -5.5187   -0.4278   C.3       1 RES1   0.0000
   232 C84       7.0780   -5.6494    1.0889   C.3       1 RES1   0.0000
   233 C85       6.0433   -4.9233    1.8879   C.2       1 RES1   0.0000
   234 C86       6.2181   -3.9149    2.7342   C.2       1 RES1   0.0000
   235 C87       5.0430   -3.3694    3.5099   C.3       1 RES1   0.0000
   236 C88       7.5188   -3.2232    3.0045   C.3       1 RES1   0.0000
   237 C89       3.1294   -1.6727   -0.9031   C.2       1 RES1   0.0000
   238 O7        2.3905   -0.6763   -1.0535   O.2       1 RES1   0.0000
   239 C90       2.5886   -2.8472   -0.0820   C.3       1 RES1   0.0000
   240 O8        1.3181   -2.4634    0.4220   O.3       1 RES1   0.0000
   241 C91       0.8229   -3.3105    1.4514   C.3       1 RES1   0.0000
   242 C92      -0.0571   -2.4446    2.3467   C.2       1 RES1   0.0000
   243 O9       -0.2378   -1.2547    2.0198   O.2       1 RES1   0.0000
   244 N6       -0.5371   -2.9526    3.4740   N.am      1 RES1   0.0000
   245 C93      -1.1542   -2.0092    4.4031   C.3       1 RES1   0.0000
   246 C94      -2.6435   -1.7527    4.1770   C.3       1 RES1   0.0000
   247 C95      -3.1196   -0.7021    5.1755   C.3       1 RES1   0.0000
   248 C96      -4.5799   -0.2903    5.0033   C.3       1 RES1   0.0000
   249 C97      -4.8639    1.0029    5.7664   C.3       1 RES1   0.0000
   250 C98      -6.3066    1.4699    5.6564   C.3       1 RES1   0.0000
   251 C99      -0.3296   -4.3302    3.9100   C.3       1 RES1   0.0000
   252 C100     -1.1193   -5.4141    3.1617   C.3       1 RES1   0.0000
   253 C101     -2.6455   -5.2750    3.1977   C.3       1 RES1   0.0000
   254 C102     -3.1878   -5.4684    4.6149   C.3       1 RES1   0.0000
   255 C103     -3.3122   -6.3037    2.2730   C.3       1 RES1   0.0000
   256 C104     -3.0441   -6.1108    0.7769   C.3       1 RES1   0.0000
   257 C105     -1.7480   -6.7041    0.3176   C.2       1 RES1   0.0000
   258 C106     -0.8877   -6.2411   -0.5827   C.2       1 RES1   0.0000
   259 C107     -1.0124   -4.9317   -1.3097   C.3       1 RES1   0.0000
   260 C108      0.3040   -7.0536   -0.9961   C.3       1 RES1   0.0000
   261 H137      5.0093    5.0929   -2.0557   H         1 RES1   0.0000
   262 H138      3.6755    3.9682   -1.7715   H         1 RES1   0.0000
   263 H139      4.4355    4.8223   -0.4231   H         1 RES1   0.0000
   264 H140      5.9424    2.8906   -2.2309   H         1 RES1   0.0000
   265 H141      6.4975    3.5431   -0.6985   H         1 RES1   0.0000
   266 H142      4.8353    2.2808    0.5414   H         1 RES1   0.0000
   267 H143      4.0496    1.7298   -0.9307   H         1 RES1   0.0000
   268 H144      6.9268    1.0638   -0.1699   H         1 RES1   0.0000
   269 H145      5.5568    0.0307    0.2090   H         1 RES1   0.0000
   270 H146      6.1876    0.8701   -2.6397   H         1 RES1   0.0000
   271 H147      6.9390   -0.5145   -1.9184   H         1 RES1   0.0000
   272 H148      3.9613   -0.0053   -2.3784   H         1 RES1   0.0000
   273 H149      5.0162   -1.1310   -3.2782   H         1 RES1   0.0000
   274 H150      4.4899   -3.8526   -1.1676   H         1 RES1   0.0000
   275 H151      5.3392   -3.1771   -2.5524   H         1 RES1   0.0000
   276 H152      6.9573   -2.0875   -0.9073   H         1 RES1   0.0000
   277 H153      6.1767   -3.0061    0.3736   H         1 RES1   0.0000
   278 H154      8.3113   -3.9149   -0.5401   H         1 RES1   0.0000
   279 H155      6.7688   -4.8228   -2.9987   H         1 RES1   0.0000
   280 H156      7.7964   -3.3786   -2.9881   H         1 RES1   0.0000
   281 H157      8.4807   -4.9604   -2.6664   H         1 RES1   0.0000
   282 H158      5.8632   -5.7128   -0.7010   H         1 RES1   0.0000
   283 H159      7.5154   -6.2890   -0.8945   H         1 RES1   0.0000
   284 H160      6.9976   -6.7092    1.3441   H         1 RES1   0.0000
   285 H161      8.0834   -5.3314    1.3558   H         1 RES1   0.0000
   286 H162      5.0410   -5.3275    1.7703   H         1 RES1   0.0000
   287 H163      4.6036   -4.1530    4.1235   H         1 RES1   0.0000
   288 H164      5.3618   -2.5630    4.1628   H         1 RES1   0.0000
   289 H165      4.2686   -2.9850    2.8418   H         1 RES1   0.0000
   290 H166      8.3130   -3.5737    2.3549   H         1 RES1   0.0000
   291 H167      7.4049   -2.1476    2.8609   H         1 RES1   0.0000
   292 H168      7.8215   -3.3906    4.0375   H         1 RES1   0.0000
   293 H169      2.4862   -3.7385   -0.7178   H         1 RES1   0.0000
   294 H170      3.2773   -3.0799    0.7410   H         1 RES1   0.0000
   295 H171      0.2655   -4.1535    1.0242   H         1 RES1   0.0000
   296 H172      1.6527   -3.7086    2.0490   H         1 RES1   0.0000
   297 H173     -0.9861   -2.3689    5.4188   H         1 RES1   0.0000
   298 H174     -0.6299   -1.0564    4.2760   H         1 RES1   0.0000
   299 H175     -2.7741   -1.3920    3.1576   H         1 RES1   0.0000
   300 H176     -3.2195   -2.6669    4.2997   H         1 RES1   0.0000
   301 H177     -2.9817   -1.0753    6.1906   H         1 RES1   0.0000
   302 H178     -2.4875    0.1802    5.0678   H         1 RES1   0.0000
   303 H179     -4.8106   -0.1436    3.9450   H         1 RES1   0.0000
   304 H180     -5.2310   -1.0827    5.3728   H         1 RES1   0.0000
   305 H181     -4.6196    0.8501    6.8186   H         1 RES1   0.0000
   306 H182     -4.2034    1.7820    5.3792   H         1 RES1   0.0000
   307 H183     -6.9712    0.7805    6.1640   H         1 RES1   0.0000
   308 H184     -6.4221    2.4485    6.1123   H         1 RES1   0.0000
   309 H185     -6.6128    1.5371    4.6174   H         1 RES1   0.0000
   310 H186      0.7364   -4.5688    3.8303   H         1 RES1   0.0000
   311 H187     -0.5979   -4.3741    4.9654   H         1 RES1   0.0000
   312 H188     -0.7990   -5.4753    2.1222   H         1 RES1   0.0000
   313 H189     -0.8537   -6.3610    3.6348   H         1 RES1   0.0000
   314 H190     -2.9115   -4.2732    2.8390   H         1 RES1   0.0000
   315 H191     -2.8988   -6.4458    4.9938   H         1 RES1   0.0000
   316 H192     -2.8134   -4.7129    5.3017   H         1 RES1   0.0000
   317 H193     -4.2747   -5.4197    4.6151   H         1 RES1   0.0000
   318 H194     -3.0014   -7.3074    2.5639   H         1 RES1   0.0000
   319 H195     -4.3884   -6.2394    2.4369   H         1 RES1   0.0000
   320 H196     -3.8402   -6.6302    0.2344   H         1 RES1   0.0000
   321 H197     -3.1222   -5.0522    0.5201   H         1 RES1   0.0000
   322 H198     -1.5549   -7.6780    0.7492   H         1 RES1   0.0000
   323 H199     -1.6986   -4.2525   -0.8141   H         1 RES1   0.0000
   324 H200     -0.0424   -4.4436   -1.3970   H         1 RES1   0.0000
   325 H201     -1.3847   -5.1115   -2.3165   H         1 RES1   0.0000
   326 H202      0.3506   -7.9902   -0.4498   H         1 RES1   0.0000
   327 H203      0.2365   -7.2841   -2.0583   H         1 RES1   0.0000
   328 H204      1.2348   -6.5078   -0.8355   H         1 RES1   0.0000
@<TRIPOS>BOND
     1     1    20    1
     2     1    22    1
     3     1    25    1
     4     1   129    1
     5     1   131    1
     6     1   134    1
     7     1   238    1
     8     1   240    1
     9     1   243    1
    10     2     3    1
    11     2    43    1
    12     2    44    1
    13     2    45    1
    14     3     4    1
    15     3    46    1
    16     3    47    1
    17     4     5    1
    18     4    48    1
    19     4    49    1
    20     5     6    1
    21     5    50    1
    22     5    51    1
    23     6     7    1
    24     6    52    1
    25     6    53    1
    26     7     8    1
    27     7    54    1
    28     7    55    1
    29     8     9    1
    30     8    19    1
    31     9    10    1
    32     9    56    1
    33     9    57    1
    34    10    11    1
    35    10    58    1
    36    10    59    1
    37    11    12    1
    38    11    13    1
    39    11    60    1
    40    12    61    1
    41    12    62    1
    42    12    63    1
    43    13    14    1
    44    13    64    1
    45    13    65    1
    46    14    15    1
    47    14    66    1
    48    14    67    1
    49    15    16    2
    50    15    68    1
    51    16    17    1
    52    16    18    1
    53    17    69    1
    54    17    70    1
    55    17    71    1
    56    18    72    1
    57    18    73    1
    58    18    74    1
    59    19    20    2
    60    19    21    1
    61    21    22    1
    62    21    75    1
    63    21    76    1
    64    22    23    1
    65    23    24    1
    66    23    77    1
    67    23    78    1
    68    24    25    2
    69    24    26    1
    70    26    27    1
    71    26    33    1
    72    27    28    1
    73    27    79    1
    74    27    80    1
    75    28    29    1
    76    28    81    1
    77    28    82    1
    78    29    30    1
    79    29    83    1
    80    29    84    1
    81    30    31    1
    82    30    85    1
    83    30    86    1
    84    31    32    1
    85    31    87    1
    86    31    88    1
    87    32    89    1
    88    32    90    1
    89    32    91    1
    90    33    34    1
    91    33    92    1
    92    33    93    1
    93    34    35    1
    94    34    94    1
    95    34    95    1
    96    35    36    1
    97    35    37    1
    98    35    96    1
    99    36    97    1
   100    36    98    1
   101    36    99    1
   102    37    38    1
   103    37   100    1
   104    37   101    1
   105    38    39    1
   106    38   102    1
   107    38   103    1
   108    39    40    2
   109    39   104    1
   110    40    41    1
   111    40    42    1
   112    41   105    1
   113    41   106    1
   114    41   107    1
   115    42   108    1
   116    42   109    1
   117    42   110    1
   118   111   112    1
   119   111   152    1
   120   111   153    1
   121   111   154    1
   122   112   113    1
   123   112   155    1
   124   112   156    1
   125   113   114    1
   126   113   157    1
   127   113   158    1
   128   114   115    1
   129   114   159    1
   130   114   160    1
   131   115   116    1
   132   115   161    1
   133   115   162    1
   134   116   117    1
   135   116   163    1
   136   116   164    1
   137   117   118    1
   138   117   128    1
   139   118   119    1
   140   118   165    1
   141   118   166    1
   142   119   120    1
   143   119   167    1
   144   119   168    1
   145   120   121    1
   146   120   122    1
   147   120   169    1
   148   121   170    1
   149   121   171    1
   150   121   172    1
   151   122   123    1
   152   122   173    1
   153   122   174    1
   154   123   124    1
   155   123   175    1
   156   123   176    1
   157   124   125    2
   158   124   177    1
   159   125   126    1
   160   125   127    1
   161   126   178    1
   162   126   179    1
   163   126   180    1
   164   127   181    1
   165   127   182    1
   166   127   183    1
   167   128   129    2
   168   128   130    1
   169   130   131    1
   170   130   184    1
   171   130   185    1
   172   131   132    1
   173   132   133    1
   174   132   186    1
   175   132   187    1
   176   133   134    2
   177   133   135    1
   178   135   136    1
   179   135   142    1
   180   136   137    1
   181   136   188    1
   182   136   189    1
   183   137   138    1
   184   137   190    1
   185   137   191    1
   186   138   139    1
   187   138   192    1
   188   138   193    1
   189   139   140    1
   190   139   194    1
   191   139   195    1
   192   140   141    1
   193   140   196    1
   194   140   197    1
   195   141   198    1
   196   141   199    1
   197   141   200    1
   198   142   143    1
   199   142   201    1
   200   142   202    1
   201   143   144    1
   202   143   203    1
   203   143   204    1
   204   144   145    1
   205   144   146    1
   206   144   205    1
   207   145   206    1
   208   145   207    1
   209   145   208    1
   210   146   147    1
   211   146   209    1
   212   146   210    1
   213   147   148    1
   214   147   211    1
   215   147   212    1
   216   148   149    2
   217   148   213    1
   218   149   150    1
   219   149   151    1
   220   150   214    1
   221   150   215    1
   222   150   216    1
   223   151   217    1
   224   151   218    1
   225   151   219    1
   226   220   221    1
   227   220   261    1
   228   220   262    1
   229   220   263    1
   230   221   222    1
   231   221   264    1
   232   221   265    1
   233   222   223    1
   234   222   266    1
   235   222   267    1
   236   223   224    1
   237   223   268    1
   238   223   269    1
   239   224   225    1
   240   224   270    1
   241   224   271    1
   242   225   226    1
   243   225   272    1
   244   225   273    1
   245   226   227    1
   246   226   237    1
   247   227   228    1
   248   227   274    1
   249   227   275    1
   250   228   229    1
   251   228   276    1
   252   228   277    1
   253   229   230    1
   254   229   231    1
   255   229   278    1
   256   230   279    1
   257   230   280    1
   258   230   281    1
   259   231   232    1
   260   231   282    1
   261   231   283    1
   262   232   233    1
   263   232   284    1
   264   232   285    1
   265   233   234    2
   266   233   286    1
   267   234   235    1
   268   234   236    1
   269   235   287    1
   270   235   288    1
   271   235   289    1
   272   236   290    1
   273   236   291    1
   274   236   292    1
   275   237   238    2
   276   237   239    1
   277   239   240    1
   278   239   293    1
   279   239   294    1
   280   240   241    1
   281   241   242    1
   282   241   295    1
   283   241   296    1
   284   242   243    2
   285   242   244    1
   286   244   245    1
   287   244   251    1
   288   245   246    1
   289   245   297    1
   290   245   298    1
   291   246   247    1
   292   246   299    1
   293   246   300    1
   294   247   248    1
   295   247   301    1
   296   247   302    1
   297   248   249    1
   298   248   303    1
   299   248   304    1
   300   249   250    1
   301   249   305    1
   302   249   306    1
   303   250   307    1
   304   250   308    1
   305   250   309    1
   306   251   252    1
   307   251   310    1
   308   251   311    1
   309   252   253    1
   310   252   312    1
   311   252   313    1
   312   253   254    1
   313   253   255    1
   314   253   314    1
   315   254   315    1
   316   254   316    1
   317   254   317    1
   318   255   256    1
   319   255   318    1
   320   255   319    1
   321   256   257    1
   322   256   320    1
   323   256   321    1
   324   257   258    2
   325   257   322    1
   326   258   259    1
   327   258   260    1
   328   259   323    1
   329   259   324    1
   330   259   325    1
   331   260   326    1
   332   260   327    1
   333   260   328    1
@<TRIPOS>SUBSTRUCTURE
     1 RES1      328 GROUP             0 ****  ****    0  
