@<TRIPOS>MOLECULE
am_c3_9H2O_c0_0_nunpairedes_0_charge_3 Charge: 3 Unpaired_Electrons: 0 XTB_Unpaired_Electrons: 0 XTB_Charge: 3
   148   161     1     0     0
SMALL
NoCharges
****
Generated from Architector

@<TRIPOS>ATOM
     1 La1       0.0257    0.0453    0.0126   La        1 RES1   0.0000
     2 C1        0.2963   -6.7344    0.0931   C.3       1 RES1   0.0000
     3 C2       -0.5418   -5.7640    0.9257   C.3       1 RES1   0.0000
     4 N1        0.1444   -4.4979    1.1859   N.am      1 RES1   0.0000
     5 C3       -0.1230   -3.3190    0.6321   C.2       1 RES1   0.0000
     6 O1        0.3574   -2.2566    1.0946   O.2       1 RES1   0.0000
     7 C4       -1.0499   -3.1910   -0.5550   C.ar      1 RES1   0.0000
     8 C5       -1.3738   -4.1779   -1.4830   C.ar      1 RES1   0.0000
     9 C6       -2.3602   -3.9112   -2.4250   C.ar      1 RES1   0.0000
    10 C7       -2.9839   -2.6761   -2.4318   C.ar      1 RES1   0.0000
    11 C8       -2.5323   -1.6994   -1.5441   C.ar      1 RES1   0.0000
    12 C9       -3.1097   -0.3392   -1.4618   C.ar      1 RES1   0.0000
    13 C10      -4.1516    0.1450   -2.2515   C.ar      1 RES1   0.0000
    14 C11      -4.6562    1.4086   -1.9770   C.ar      1 RES1   0.0000
    15 C12      -4.1618    2.1367   -0.9026   C.ar      1 RES1   0.0000
    16 C13      -3.1268    1.5816   -0.1503   C.ar      1 RES1   0.0000
    17 C14      -2.4590    2.1095    1.0969   C.2       1 RES1   0.0000
    18 O2       -1.4679    1.4594    1.5110   O.2       1 RES1   0.0000
    19 N2       -2.8896    3.1994    1.7219   N.am      1 RES1   0.0000
    20 C15      -2.0997    3.7207    2.8367   C.3       1 RES1   0.0000
    21 C16      -2.7869    3.5124    4.1798   C.3       1 RES1   0.0000
    22 C17      -4.1397    3.8691    1.5137   C.ar      1 RES1   0.0000
    23 C18      -4.1166    5.2129    1.1525   C.ar      1 RES1   0.0000
    24 C19      -5.2901    5.9496    1.0535   C.ar      1 RES1   0.0000
    25 C20      -5.2845    7.4071    0.7326   C.3       1 RES1   0.0000
    26 C21      -6.4946    5.2951    1.2955   C.ar      1 RES1   0.0000
    27 C22      -6.5185    3.9598    1.6452   C.ar      1 RES1   0.0000
    28 C23      -5.3490    3.2187    1.7827   C.ar      1 RES1   0.0000
    29 C24      -5.4115    1.7892    2.2319   C.3       1 RES1   0.0000
    30 N3       -2.5953    0.4006   -0.4782   N.ar      1 RES1   0.0000
    31 N4       -1.5761   -1.9638   -0.6466   N.ar      1 RES1   0.0000
    32 C25       0.9049   -4.5433    2.4176   C.ar      1 RES1   0.0000
    33 C26       0.2069   -4.2275    3.5804   C.ar      1 RES1   0.0000
    34 C27       0.7577   -4.4498    4.8331   C.ar      1 RES1   0.0000
    35 C28      -0.0225   -4.2447    6.0904   C.3       1 RES1   0.0000
    36 C29       2.0581   -4.9476    4.8966   C.ar      1 RES1   0.0000
    37 C30       2.7669   -5.2071    3.7458   C.ar      1 RES1   0.0000
    38 C31       2.2040   -5.0365    2.4800   C.ar      1 RES1   0.0000
    39 C32       3.0373   -5.4497    1.3035   C.3       1 RES1   0.0000
    40 H1       -0.3181   -7.5689   -0.2350   H         1 RES1   0.0000
    41 H2        1.0962   -7.1478    0.6978   H         1 RES1   0.0000
    42 H3        0.7371   -6.2531   -0.7798   H         1 RES1   0.0000
    43 H4       -0.7329   -6.2315    1.8959   H         1 RES1   0.0000
    44 H5       -1.5092   -5.5728    0.4591   H         1 RES1   0.0000
    45 H6       -0.8669   -5.1258   -1.4971   H         1 RES1   0.0000
    46 H7       -2.6437   -4.6688   -3.1390   H         1 RES1   0.0000
    47 H8       -3.7858   -2.4766   -3.1198   H         1 RES1   0.0000
    48 H9       -4.5665   -0.4290   -3.0610   H         1 RES1   0.0000
    49 H10      -5.4516    1.8201   -2.5821   H         1 RES1   0.0000
    50 H11      -4.5957    3.0937   -0.6610   H         1 RES1   0.0000
    51 H12      -1.9479    4.7892    2.6685   H         1 RES1   0.0000
    52 H13      -1.1359    3.2090    2.8155   H         1 RES1   0.0000
    53 H14      -3.7522    4.0142    4.2004   H         1 RES1   0.0000
    54 H15      -2.1718    3.9215    4.9773   H         1 RES1   0.0000
    55 H16      -2.9311    2.4517    4.3676   H         1 RES1   0.0000
    56 H17      -3.1665    5.6883    0.9531   H         1 RES1   0.0000
    57 H18      -4.2747    7.7884    0.6232   H         1 RES1   0.0000
    58 H19      -5.7827    7.9623    1.5250   H         1 RES1   0.0000
    59 H20      -5.8342    7.6092   -0.1843   H         1 RES1   0.0000
    60 H21      -7.4176    5.8480    1.2229   H         1 RES1   0.0000
    61 H22      -7.4649    3.4786    1.8386   H         1 RES1   0.0000
    62 H23      -6.4441    1.4908    2.3890   H         1 RES1   0.0000
    63 H24      -4.8787    1.6566    3.1721   H         1 RES1   0.0000
    64 H25      -4.9745    1.1102    1.5000   H         1 RES1   0.0000
    65 H26      -0.8012   -3.8479    3.4886   H         1 RES1   0.0000
    66 H27      -1.0126   -3.8495    5.8858   H         1 RES1   0.0000
    67 H28       0.4949   -3.5707    6.7706   H         1 RES1   0.0000
    68 H29      -0.1304   -5.1966    6.6100   H         1 RES1   0.0000
    69 H30       2.4994   -5.1518    5.8598   H         1 RES1   0.0000
    70 H31       3.7718   -5.6000    3.8070   H         1 RES1   0.0000
    71 H32       3.1268   -6.5357    1.2708   H         1 RES1   0.0000
    72 H33       4.0502   -5.0706    1.4207   H         1 RES1   0.0000
    73 H34       2.6288   -5.1026    0.3590   H         1 RES1   0.0000
    74 C33       2.3831   -4.0173   -4.4487   C.3       1 RES1   0.0000
    75 C34       2.9399   -2.5937   -4.5241   C.3       1 RES1   0.0000
    76 N5        1.9837   -1.6263   -3.9869   N.am      1 RES1   0.0000
    77 C35       1.7039   -1.4178   -2.7026   C.2       1 RES1   0.0000
    78 O3        0.7411   -0.6833   -2.3550   O.2       1 RES1   0.0000
    79 C36       2.5804   -1.9516   -1.5841   C.ar      1 RES1   0.0000
    80 C37       3.5504   -2.9538   -1.6360   C.ar      1 RES1   0.0000
    81 C38       4.3320   -3.2055   -0.5167   C.ar      1 RES1   0.0000
    82 C39       4.1136   -2.4878    0.6432   C.ar      1 RES1   0.0000
    83 C40       3.0958   -1.5378    0.6461   C.ar      1 RES1   0.0000
    84 C41       2.8528   -0.6671    1.8156   C.ar      1 RES1   0.0000
    85 C42       3.3947   -0.8645    3.0850   C.ar      1 RES1   0.0000
    86 C43       3.1943    0.1137    4.0480   C.ar      1 RES1   0.0000
    87 C44       2.5318    1.2924    3.7215   C.ar      1 RES1   0.0000
    88 C45       2.0395    1.4262    2.4242   C.ar      1 RES1   0.0000
    89 C46       1.4243    2.6226    1.7411   C.2       1 RES1   0.0000
    90 O4        0.8161    2.4004    0.6648   O.2       1 RES1   0.0000
    91 N6        1.5841    3.8545    2.2027   N.am      1 RES1   0.0000
    92 C47       0.9776    4.9607    1.4631   C.3       1 RES1   0.0000
    93 C48       2.0256    5.7854    0.7263   C.3       1 RES1   0.0000
    94 C49       2.3846    4.2380    3.3266   C.ar      1 RES1   0.0000
    95 C50       1.7390    4.8531    4.3943   C.ar      1 RES1   0.0000
    96 C51       2.4534    5.3367    5.4820   C.ar      1 RES1   0.0000
    97 C52       1.7793    6.0521    6.6043   C.3       1 RES1   0.0000
    98 C53       3.8337    5.1568    5.4867   C.ar      1 RES1   0.0000
    99 C54       4.4727    4.5403    4.4292   C.ar      1 RES1   0.0000
   100 C55       3.7738    4.0843    3.3152   C.ar      1 RES1   0.0000
   101 C56       4.5183    3.4893    2.1559   C.3       1 RES1   0.0000
   102 N7        2.1455    0.4294    1.5372   N.ar      1 RES1   0.0000
   103 N8        2.3666   -1.2794   -0.4439   N.ar      1 RES1   0.0000
   104 C57       1.3651   -0.8727   -5.0545   C.ar      1 RES1   0.0000
   105 C58       2.2298   -0.0819   -5.8113   C.ar      1 RES1   0.0000
   106 C59       1.8122    0.5226   -6.9871   C.ar      1 RES1   0.0000
   107 C60       2.7566    1.2672   -7.8721   C.3       1 RES1   0.0000
   108 C61       0.4796    0.3629   -7.3650   C.ar      1 RES1   0.0000
   109 C62      -0.3846   -0.3903   -6.5998   C.ar      1 RES1   0.0000
   110 C63       0.0428   -1.0468   -5.4466   C.ar      1 RES1   0.0000
   111 C64      -0.9001   -1.9358   -4.6990   C.3       1 RES1   0.0000
   112 H35       3.1492   -4.7339   -4.7376   H         1 RES1   0.0000
   113 H36       1.5570   -4.1179   -5.1480   H         1 RES1   0.0000
   114 H37       2.0161   -4.2683   -3.4539   H         1 RES1   0.0000
   115 H38       3.0862   -2.3520   -5.5776   H         1 RES1   0.0000
   116 H39       3.9128   -2.4845   -4.0425   H         1 RES1   0.0000
   117 H40       3.7214   -3.5587   -2.5018   H         1 RES1   0.0000
   118 H41       5.1030   -3.9587   -0.5663   H         1 RES1   0.0000
   119 H42       4.7269   -2.6507    1.5104   H         1 RES1   0.0000
   120 H43       3.9549   -1.7508    3.3300   H         1 RES1   0.0000
   121 H44       3.5906   -0.0191    5.0441   H         1 RES1   0.0000
   122 H45       2.4359    2.0739    4.4588   H         1 RES1   0.0000
   123 H46       0.4490    5.6010    2.1706   H         1 RES1   0.0000
   124 H47       0.2587    4.5316    0.7621   H         1 RES1   0.0000
   125 H48       2.7217    6.2332    1.4323   H         1 RES1   0.0000
   126 H49       1.5411    6.5825    0.1680   H         1 RES1   0.0000
   127 H50       2.5796    5.1621    0.0283   H         1 RES1   0.0000
   128 H51       0.6632    4.9560    4.3675   H         1 RES1   0.0000
   129 H52       0.7140    6.1542    6.4249   H         1 RES1   0.0000
   130 H53       2.2070    7.0453    6.7245   H         1 RES1   0.0000
   131 H54       1.9262    5.5294    7.5471   H         1 RES1   0.0000
   132 H55       4.4109    5.5235    6.3206   H         1 RES1   0.0000
   133 H56       5.5453    4.4241    4.4514   H         1 RES1   0.0000
   134 H57       5.5835    3.4692    2.3687   H         1 RES1   0.0000
   135 H58       4.3696    4.0815    1.2545   H         1 RES1   0.0000
   136 H59       4.2027    2.4685    1.9418   H         1 RES1   0.0000
   137 H60       3.2547    0.0298   -5.4862   H         1 RES1   0.0000
   138 H61       3.7649    1.2650   -7.4703   H         1 RES1   0.0000
   139 H62       2.4366    2.2974   -8.0149   H         1 RES1   0.0000
   140 H63       2.7732    0.8017   -8.8569   H         1 RES1   0.0000
   141 H64       0.1376    0.8140   -8.2836   H         1 RES1   0.0000
   142 H65      -1.4095   -0.5157   -6.9197   H         1 RES1   0.0000
   143 H66      -1.8809   -1.9163   -5.1669   H         1 RES1   0.0000
   144 H67      -0.9864   -1.5994   -3.6674   H         1 RES1   0.0000
   145 H68      -0.5475   -2.9665   -4.6963   H         1 RES1   0.0000
   146 O5       -0.5412    1.9421   -1.9004   O.3       1 RES1   0.0000
   147 H69      -0.2452    1.7851   -2.8097   H         1 RES1   0.0000
   148 H70      -0.1453    2.7853   -1.6308   H         1 RES1   0.0000
@<TRIPOS>BOND
     1     1     6    1
     2     1    18    1
     3     1    30    1
     4     1    31    1
     5     1    78    1
     6     1    90    1
     7     1   102    1
     8     1   103    1
     9     1   146    1
    10     2     3    1
    11     2    40    1
    12     2    41    1
    13     2    42    1
    14     3     4    1
    15     3    43    1
    16     3    44    1
    17     4     5    1
    18     4    32    1
    19     5     6    2
    20     5     7    1
    21     7     8    1
    22     7    31    2
    23     8     9    2
    24     8    45    1
    25     9    10    1
    26     9    46    1
    27    10    11    2
    28    10    47    1
    29    11    12    1
    30    11    31    1
    31    12    13    1
    32    12    30    2
    33    13    14    2
    34    13    48    1
    35    14    15    1
    36    14    49    1
    37    15    16    2
    38    15    50    1
    39    16    17    1
    40    16    30    1
    41    17    18    2
    42    17    19    1
    43    19    20    1
    44    19    22    1
    45    20    21    1
    46    20    51    1
    47    20    52    1
    48    21    53    1
    49    21    54    1
    50    21    55    1
    51    22    23    1
    52    22    28    2
    53    23    24    2
    54    23    56    1
    55    24    25    1
    56    24    26    1
    57    25    57    1
    58    25    58    1
    59    25    59    1
    60    26    27    2
    61    26    60    1
    62    27    28    1
    63    27    61    1
    64    28    29    1
    65    29    62    1
    66    29    63    1
    67    29    64    1
    68    32    33    1
    69    32    38    2
    70    33    34    2
    71    33    65    1
    72    34    35    1
    73    34    36    1
    74    35    66    1
    75    35    67    1
    76    35    68    1
    77    36    37    2
    78    36    69    1
    79    37    38    1
    80    37    70    1
    81    38    39    1
    82    39    71    1
    83    39    72    1
    84    39    73    1
    85    74    75    1
    86    74   112    1
    87    74   113    1
    88    74   114    1
    89    75    76    1
    90    75   115    1
    91    75   116    1
    92    76    77    1
    93    76   104    1
    94    77    78    2
    95    77    79    1
    96    79    80    1
    97    79   103    2
    98    80    81    2
    99    80   117    1
   100    81    82    1
   101    81   118    1
   102    82    83    2
   103    82   119    1
   104    83    84    1
   105    83   103    1
   106    84    85    1
   107    84   102    2
   108    85    86    2
   109    85   120    1
   110    86    87    1
   111    86   121    1
   112    87    88    2
   113    87   122    1
   114    88    89    1
   115    88   102    1
   116    89    90    2
   117    89    91    1
   118    91    92    1
   119    91    94    1
   120    92    93    1
   121    92   123    1
   122    92   124    1
   123    93   125    1
   124    93   126    1
   125    93   127    1
   126    94    95    1
   127    94   100    2
   128    95    96    2
   129    95   128    1
   130    96    97    1
   131    96    98    1
   132    97   129    1
   133    97   130    1
   134    97   131    1
   135    98    99    2
   136    98   132    1
   137    99   100    1
   138    99   133    1
   139   100   101    1
   140   101   134    1
   141   101   135    1
   142   101   136    1
   143   104   105    1
   144   104   110    2
   145   105   106    2
   146   105   137    1
   147   106   107    1
   148   106   108    1
   149   107   138    1
   150   107   139    1
   151   107   140    1
   152   108   109    2
   153   108   141    1
   154   109   110    1
   155   109   142    1
   156   110   111    1
   157   111   143    1
   158   111   144    1
   159   111   145    1
   160   146   147    1
   161   146   148    1
@<TRIPOS>SUBSTRUCTURE
     1 RES1      148 GROUP             0 ****  ****    0  
