@<TRIPOS>MOLECULE
am_c3_9H2O_c0_0_nunpairedes_0_charge_3 Charge: 3 Unpaired_Electrons: 0 XTB_Unpaired_Electrons: 0 XTB_Charge: 3
   136   150     1     0     0
SMALL
NoCharges
****
Generated from Architector

@<TRIPOS>ATOM
     1 La1       0.0420   -0.0242   -0.0055   La        1 RES1   0.0000
     2 C1       -4.0627    2.5649   -3.0909   C.3       1 RES1   0.0000
     3 N1       -2.6786    2.2666   -2.7905   N.am      1 RES1   0.0000
     4 C2       -2.2785    1.4363   -1.8193   C.2       1 RES1   0.0000
     5 O1       -1.0626    1.2777   -1.5971   O.2       1 RES1   0.0000
     6 C3       -3.2130    0.6109   -0.9569   C.ar      1 RES1   0.0000
     7 C4       -4.5833    0.4075   -1.1083   C.ar      1 RES1   0.0000
     8 C5       -5.2187   -0.5010   -0.2695   C.ar      1 RES1   0.0000
     9 C6       -4.4954   -1.1941    0.6857   C.ar      1 RES1   0.0000
    10 C7       -3.1340   -0.9195    0.8070   C.ar      1 RES1   0.0000
    11 C8       -2.1677   -1.6336    1.7157   C.2       1 RES1   0.0000
    12 O2       -0.9705   -1.6462    1.3524   O.2       1 RES1   0.0000
    13 N2       -2.5569   -2.2841    2.8123   N.am      1 RES1   0.0000
    14 C9       -1.5550   -3.0332    3.5580   C.3       1 RES1   0.0000
    15 C10      -3.8440   -2.2676    3.4290   C.ar      1 RES1   0.0000
    16 C11      -4.3781   -3.4651    3.8950   C.ar      1 RES1   0.0000
    17 C12      -5.5874   -3.4959    4.5690   C.ar      1 RES1   0.0000
    18 C13      -6.2963   -2.3206    4.7606   C.ar      1 RES1   0.0000
    19 C14      -5.7696   -1.1198    4.3080   C.ar      1 RES1   0.0000
    20 C15      -4.5433   -1.0851    3.6636   C.ar      1 RES1   0.0000
    21 N3       -2.5335   -0.0486   -0.0060   N.ar      1 RES1   0.0000
    22 C16      -1.7299    2.9224   -3.6417   C.ar      1 RES1   0.0000
    23 C17      -2.0642    3.1105   -4.9801   C.ar      1 RES1   0.0000
    24 C18      -1.2559    3.8656   -5.8084   C.ar      1 RES1   0.0000
    25 C19      -0.0725    4.3944   -5.3227   C.ar      1 RES1   0.0000
    26 C20       0.2883    4.1600   -4.0089   C.ar      1 RES1   0.0000
    27 C21      -0.5360    3.4437   -3.1608   C.ar      1 RES1   0.0000
    28 H1       -4.6110    2.8010   -2.1816   H         1 RES1   0.0000
    29 H2       -4.0920    3.4425   -3.7295   H         1 RES1   0.0000
    30 H3       -4.5361    1.7380   -3.6236   H         1 RES1   0.0000
    31 H4       -5.1857    0.9032   -1.8458   H         1 RES1   0.0000
    32 H5       -6.2808   -0.6729   -0.3882   H         1 RES1   0.0000
    33 H6       -4.9810   -1.9345    1.2982   H         1 RES1   0.0000
    34 H7       -0.5773   -2.8453    3.1234   H         1 RES1   0.0000
    35 H8       -1.5705   -2.7155    4.5989   H         1 RES1   0.0000
    36 H9       -1.7613   -4.1022    3.5229   H         1 RES1   0.0000
    37 H10      -3.8547   -4.3913    3.7321   H         1 RES1   0.0000
    38 H11      -5.9640   -4.4348    4.9535   H         1 RES1   0.0000
    39 H12      -7.2501   -2.3357    5.2642   H         1 RES1   0.0000
    40 H13      -6.3175   -0.2040    4.4864   H         1 RES1   0.0000
    41 H14      -4.1373   -0.1363    3.3487   H         1 RES1   0.0000
    42 H15      -2.9622    2.6747   -5.3859   H         1 RES1   0.0000
    43 H16      -1.5704    4.0568   -6.8215   H         1 RES1   0.0000
    44 H17       0.5587    4.9902   -5.9587   H         1 RES1   0.0000
    45 H18       1.2031    4.5788   -3.6205   H         1 RES1   0.0000
    46 H19      -0.2648    3.3081   -2.1287   H         1 RES1   0.0000
    47 C22      -1.2662   -3.0987   -3.7804   C.3       1 RES1   0.0000
    48 N4       -0.2736   -3.4884   -2.7934   N.am      1 RES1   0.0000
    49 C23       0.1323   -2.5893   -1.8953   C.2       1 RES1   0.0000
    50 O3       -0.4686   -1.5101   -1.7229   O.2       1 RES1   0.0000
    51 C24       1.4132   -2.7930   -1.1499   C.ar      1 RES1   0.0000
    52 C25       2.5292   -3.4147   -1.7023   C.ar      1 RES1   0.0000
    53 C26       3.7443   -3.3118   -1.0413   C.ar      1 RES1   0.0000
    54 C27       3.8195   -2.5685    0.1308   C.ar      1 RES1   0.0000
    55 C28       2.6474   -1.9991    0.6299   C.ar      1 RES1   0.0000
    56 C29       2.6130   -0.9625    1.7238   C.2       1 RES1   0.0000
    57 O4        1.9066    0.0348    1.4850   O.2       1 RES1   0.0000
    58 N5        3.3654   -1.0873    2.8185   N.am      1 RES1   0.0000
    59 C30       3.9257   -2.3780    3.1736   C.3       1 RES1   0.0000
    60 C31       3.6182   -0.0091    3.7230   C.ar      1 RES1   0.0000
    61 C32       4.1795   -0.2781    4.9700   C.ar      1 RES1   0.0000
    62 C33       4.4861    0.7403    5.8541   C.ar      1 RES1   0.0000
    63 C34       4.2378    2.0578    5.5167   C.ar      1 RES1   0.0000
    64 C35       3.6929    2.3371    4.2770   C.ar      1 RES1   0.0000
    65 C36       3.3890    1.3251    3.3853   C.ar      1 RES1   0.0000
    66 N6        1.4813   -2.1121   -0.0071   N.ar      1 RES1   0.0000
    67 C37      -0.0009   -4.8720   -2.6440   C.ar      1 RES1   0.0000
    68 C38       0.0070   -5.7271   -3.7382   C.ar      1 RES1   0.0000
    69 C39       0.1546   -7.0921   -3.5576   C.ar      1 RES1   0.0000
    70 C40       0.3370   -7.6069   -2.2849   C.ar      1 RES1   0.0000
    71 C41       0.3415   -6.7570   -1.1901   C.ar      1 RES1   0.0000
    72 C42       0.1472   -5.4006   -1.3618   C.ar      1 RES1   0.0000
    73 H20      -1.4656   -2.0327   -3.6870   H         1 RES1   0.0000
    74 H21      -0.8830   -3.3063   -4.7793   H         1 RES1   0.0000
    75 H22      -2.1936   -3.6520   -3.6363   H         1 RES1   0.0000
    76 H23       2.4596   -3.9484   -2.6353   H         1 RES1   0.0000
    77 H24       4.6286   -3.7753   -1.4604   H         1 RES1   0.0000
    78 H25       4.7712   -2.4181    0.6219   H         1 RES1   0.0000
    79 H26       5.0136   -2.3281    3.2226   H         1 RES1   0.0000
    80 H27       3.5535   -2.6744    4.1528   H         1 RES1   0.0000
    81 H28       3.6332   -3.1413    2.4593   H         1 RES1   0.0000
    82 H29       4.4093   -1.2804    5.2809   H         1 RES1   0.0000
    83 H30       4.9321    0.4911    6.8039   H         1 RES1   0.0000
    84 H31       4.4802    2.8530    6.2010   H         1 RES1   0.0000
    85 H32       3.5106    3.3630    3.9970   H         1 RES1   0.0000
    86 H33       2.9835    1.5945    2.4271   H         1 RES1   0.0000
    87 H34      -0.1153   -5.3504   -4.7391   H         1 RES1   0.0000
    88 H35       0.1037   -7.7493   -4.4135   H         1 RES1   0.0000
    89 H36       0.4442   -8.6688   -2.1407   H         1 RES1   0.0000
    90 H37       0.4547   -7.1603   -0.1946   H         1 RES1   0.0000
    91 H38       0.0767   -4.7553   -0.4987   H         1 RES1   0.0000
    92 C43       3.8173    2.6089   -3.3354   C.3       1 RES1   0.0000
    93 N7        3.0895    1.4366   -2.9003   N.am      1 RES1   0.0000
    94 C44       2.3592    1.3661   -1.7848   C.2       1 RES1   0.0000
    95 O5        1.9069    0.2692   -1.4027   O.2       1 RES1   0.0000
    96 C45       2.0728    2.5460   -0.8817   C.ar      1 RES1   0.0000
    97 C46       2.7757    3.7456   -0.7837   C.ar      1 RES1   0.0000
    98 C47       2.4850    4.5987    0.2748   C.ar      1 RES1   0.0000
    99 C48       1.5011    4.2654    1.1903   C.ar      1 RES1   0.0000
   100 C49       0.7544    3.1101    0.9632   C.ar      1 RES1   0.0000
   101 C50      -0.3495    2.5777    1.8358   C.2       1 RES1   0.0000
   102 O6       -0.6926    1.3886    1.6596   O.2       1 RES1   0.0000
   103 N8       -0.9067    3.2980    2.8123   N.am      1 RES1   0.0000
   104 C51      -1.7797    2.6092    3.7508   C.3       1 RES1   0.0000
   105 C52      -0.9183    4.7160    2.9302   C.ar      1 RES1   0.0000
   106 C53      -0.8453    5.3150    4.1832   C.ar      1 RES1   0.0000
   107 C54      -0.9744    6.6880    4.3213   C.ar      1 RES1   0.0000
   108 C55      -1.1438    7.4834    3.1991   C.ar      1 RES1   0.0000
   109 C56      -1.2178    6.8946    1.9450   C.ar      1 RES1   0.0000
   110 C57      -1.1264    5.5204    1.8108   C.ar      1 RES1   0.0000
   111 N9        1.0663    2.2836   -0.0366   N.ar      1 RES1   0.0000
   112 C58       3.2656    0.2716   -3.7128   C.ar      1 RES1   0.0000
   113 C59       4.5188    0.0394   -4.2655   C.ar      1 RES1   0.0000
   114 C60       4.7118   -0.9963   -5.1589   C.ar      1 RES1   0.0000
   115 C61       3.6611   -1.8459   -5.4583   C.ar      1 RES1   0.0000
   116 C62       2.4237   -1.6415   -4.8723   C.ar      1 RES1   0.0000
   117 C63       2.2083   -0.5775   -4.0144   C.ar      1 RES1   0.0000
   118 H39       3.1629    3.4761   -3.3753   H         1 RES1   0.0000
   119 H40       4.1942    2.4293   -4.3370   H         1 RES1   0.0000
   120 H41       4.6728    2.7980   -2.6826   H         1 RES1   0.0000
   121 H42       3.5533    4.0395   -1.4640   H         1 RES1   0.0000
   122 H43       3.0535    5.5139    0.3831   H         1 RES1   0.0000
   123 H44       1.3283    4.8892    2.0502   H         1 RES1   0.0000
   124 H45      -1.7778    1.5474    3.5219   H         1 RES1   0.0000
   125 H46      -2.7916    3.0045    3.6795   H         1 RES1   0.0000
   126 H47      -1.4260    2.7568    4.7693   H         1 RES1   0.0000
   127 H48      -0.6888    4.7225    5.0682   H         1 RES1   0.0000
   128 H49      -0.9613    7.1327    5.3078   H         1 RES1   0.0000
   129 H50      -1.2283    8.5548    3.2961   H         1 RES1   0.0000
   130 H51      -1.3810    7.5161    1.0751   H         1 RES1   0.0000
   131 H52      -1.2268    5.0708    0.8349   H         1 RES1   0.0000
   132 H53       5.3505    0.6713   -4.0020   H         1 RES1   0.0000
   133 H54       5.6744   -1.1147   -5.6288   H         1 RES1   0.0000
   134 H55       3.8045   -2.6579   -6.1503   H         1 RES1   0.0000
   135 H56       1.6038   -2.2978   -5.1160   H         1 RES1   0.0000
   136 H57       1.2316   -0.3938   -3.5952   H         1 RES1   0.0000
@<TRIPOS>BOND
     1     1     5    1
     2     1    12    1
     3     1    21    1
     4     1    50    1
     5     1    57    1
     6     1    66    1
     7     1    95    1
     8     1   102    1
     9     1   111    1
    10     2     3    1
    11     2    28    1
    12     2    29    1
    13     2    30    1
    14     3     4    1
    15     3    22    1
    16     4     5    2
    17     4     6    1
    18     6     7    1
    19     6    21    2
    20     7     8    2
    21     7    31    1
    22     8     9    1
    23     8    32    1
    24     9    10    2
    25     9    33    1
    26    10    11    1
    27    10    21    1
    28    11    12    2
    29    11    13    1
    30    13    14    1
    31    13    15    1
    32    14    34    1
    33    14    35    1
    34    14    36    1
    35    15    16    1
    36    15    20    2
    37    16    17    2
    38    16    37    1
    39    17    18    1
    40    17    38    1
    41    18    19    2
    42    18    39    1
    43    19    20    1
    44    19    40    1
    45    20    41    1
    46    22    23    1
    47    22    27    2
    48    23    24    2
    49    23    42    1
    50    24    25    1
    51    24    43    1
    52    25    26    2
    53    25    44    1
    54    26    27    1
    55    26    45    1
    56    27    46    1
    57    47    48    1
    58    47    73    1
    59    47    74    1
    60    47    75    1
    61    48    49    1
    62    48    67    1
    63    49    50    2
    64    49    51    1
    65    51    52    1
    66    51    66    2
    67    52    53    2
    68    52    76    1
    69    53    54    1
    70    53    77    1
    71    54    55    2
    72    54    78    1
    73    55    56    1
    74    55    66    1
    75    56    57    2
    76    56    58    1
    77    58    59    1
    78    58    60    1
    79    59    79    1
    80    59    80    1
    81    59    81    1
    82    60    61    1
    83    60    65    2
    84    61    62    2
    85    61    82    1
    86    62    63    1
    87    62    83    1
    88    63    64    2
    89    63    84    1
    90    64    65    1
    91    64    85    1
    92    65    86    1
    93    67    68    1
    94    67    72    2
    95    68    69    2
    96    68    87    1
    97    69    70    1
    98    69    88    1
    99    70    71    2
   100    70    89    1
   101    71    72    1
   102    71    90    1
   103    72    91    1
   104    92    93    1
   105    92   118    1
   106    92   119    1
   107    92   120    1
   108    93    94    1
   109    93   112    1
   110    94    95    2
   111    94    96    1
   112    96    97    1
   113    96   111    2
   114    97    98    2
   115    97   121    1
   116    98    99    1
   117    98   122    1
   118    99   100    2
   119    99   123    1
   120   100   101    1
   121   100   111    1
   122   101   102    2
   123   101   103    1
   124   103   104    1
   125   103   105    1
   126   104   124    1
   127   104   125    1
   128   104   126    1
   129   105   106    1
   130   105   110    2
   131   106   107    2
   132   106   127    1
   133   107   108    1
   134   107   128    1
   135   108   109    2
   136   108   129    1
   137   109   110    1
   138   109   130    1
   139   110   131    1
   140   112   113    1
   141   112   117    2
   142   113   114    2
   143   113   132    1
   144   114   115    1
   145   114   133    1
   146   115   116    2
   147   115   134    1
   148   116   117    1
   149   116   135    1
   150   117   136    1
@<TRIPOS>SUBSTRUCTURE
     1 RES1      136 GROUP             0 ****  ****    0  
