@<TRIPOS>MOLECULE
tri_tri_mer_capped_0_nunpairedes_0_charge_3 Charge: 3 Unpaired_Electrons: 0 XTB_Unpaired_Electrons: 0 XTB_Charge: 3
   216   223     1     0     0
SMALL
NoCharges
****
Generated from Architector

@<TRIPOS>ATOM
     1 La1      -0.3150   -0.1575   -0.0215   La        1 RES1   0.0000
     2 C1        7.6217    4.6487    5.9904   C.3       1 RES1   0.0000
     3 C2        7.7629    3.3430    6.7646   C.3       1 RES1   0.0000
     4 C3        6.4465    2.8709    7.3848   C.3       1 RES1   0.0000
     5 C4        5.2867    2.7921    6.3905   C.3       1 RES1   0.0000
     6 C5        5.6078    1.9428    5.1613   C.3       1 RES1   0.0000
     7 C6        4.3927    1.8396    4.2419   C.3       1 RES1   0.0000
     8 C7        4.1630    3.0832    3.3659   C.3       1 RES1   0.0000
     9 C8        4.4299    2.7687    1.8976   C.3       1 RES1   0.0000
    10 C9        4.0477    3.8818    0.9244   C.3       1 RES1   0.0000
    11 C10       4.1140    3.3429   -0.5053   C.3       1 RES1   0.0000
    12 C11       3.4798    4.2498   -1.5573   C.3       1 RES1   0.0000
    13 C12       1.9856    3.9594   -1.7330   C.3       1 RES1   0.0000
    14 N1        1.7551    2.8490   -2.6548   N.am      1 RES1   0.0000
    15 C13       1.9239    3.1625   -4.0641   C.3       1 RES1   0.0000
    16 C14       1.3395    1.6919   -2.1830   C.2       1 RES1   0.0000
    17 O1        1.1704    1.4640   -0.9612   O.2       1 RES1   0.0000
    18 C15       0.9344    0.5595   -3.1354   C.3       1 RES1   0.0000
    19 C16       1.8342   -0.6780   -2.9926   C.3       1 RES1   0.0000
    20 C17       0.9968   -1.9697   -2.9346   C.3       1 RES1   0.0000
    21 O2        0.6717   -2.2781   -1.5701   O.3       1 RES1   0.0000
    22 C18       1.3464   -3.4621   -1.1367   C.3       1 RES1   0.0000
    23 C19      -0.2681   -1.8769   -3.8049   C.3       1 RES1   0.0000
    24 C20      -1.0949   -0.6102   -3.4980   C.3       1 RES1   0.0000
    25 C21      -2.3466   -0.9209   -2.6603   C.2       1 RES1   0.0000
    26 O3       -2.2237   -0.8471   -1.4169   O.2       1 RES1   0.0000
    27 N2       -3.4885   -1.2161   -3.2485   N.am      1 RES1   0.0000
    28 C22      -3.6991   -1.4654   -4.6619   C.3       1 RES1   0.0000
    29 C23      -4.6801   -1.3271   -2.4079   C.3       1 RES1   0.0000
    30 C24      -5.1243    0.0345   -1.8739   C.3       1 RES1   0.0000
    31 C25      -5.7046    0.9686   -2.9353   C.3       1 RES1   0.0000
    32 C26      -6.2750    2.2594   -2.3145   C.3       1 RES1   0.0000
    33 C27      -5.4247    3.5102   -2.5469   C.3       1 RES1   0.0000
    34 C28      -4.0443    3.4136   -1.8907   C.3       1 RES1   0.0000
    35 C29      -3.0477    4.4798   -2.3838   C.3       1 RES1   0.0000
    36 C30      -2.0261    3.9368   -3.3938   C.3       1 RES1   0.0000
    37 C31      -2.7072    3.3556   -4.6297   C.3       1 RES1   0.0000
    38 C32      -1.7418    2.7984   -5.6689   C.3       1 RES1   0.0000
    39 C33      -2.5086    2.1100   -6.7951   C.3       1 RES1   0.0000
    40 C34      -1.5956    1.5023   -7.8495   C.3       1 RES1   0.0000
    41 O4       -0.3789    0.2792   -2.6521   O.3       1 RES1   0.0000
    42 H1        8.6027    5.0194    5.7084   H         1 RES1   0.0000
    43 H2        7.0381    4.5127    5.0817   H         1 RES1   0.0000
    44 H3        7.1313    5.4014    6.6038   H         1 RES1   0.0000
    45 H4        8.1640    2.5639    6.1111   H         1 RES1   0.0000
    46 H5        8.4817    3.4838    7.5732   H         1 RES1   0.0000
    47 H6        6.5996    1.8893    7.8423   H         1 RES1   0.0000
    48 H7        6.1590    3.5610    8.1815   H         1 RES1   0.0000
    49 H8        4.4217    2.3561    6.9024   H         1 RES1   0.0000
    50 H9        5.0056    3.7987    6.0756   H         1 RES1   0.0000
    51 H10       6.4415    2.3695    4.6034   H         1 RES1   0.0000
    52 H11       5.9070    0.9430    5.4906   H         1 RES1   0.0000
    53 H12       4.5134    0.9635    3.5970   H         1 RES1   0.0000
    54 H13       3.5199    1.6700    4.8757   H         1 RES1   0.0000
    55 H14       3.1393    3.4424    3.4809   H         1 RES1   0.0000
    56 H15       4.8167    3.8917    3.6886   H         1 RES1   0.0000
    57 H16       5.4907    2.5427    1.7704   H         1 RES1   0.0000
    58 H17       3.8710    1.8652    1.6198   H         1 RES1   0.0000
    59 H18       3.0423    4.2597    1.1404   H         1 RES1   0.0000
    60 H19       4.7393    4.7207    1.0265   H         1 RES1   0.0000
    61 H20       5.1620    3.1896   -0.7533   H         1 RES1   0.0000
    62 H21       3.6217    2.3671   -0.5429   H         1 RES1   0.0000
    63 H22       3.6151    5.2908   -1.2762   H         1 RES1   0.0000
    64 H23       3.9824    4.1019   -2.5110   H         1 RES1   0.0000
    65 H24       1.5401    3.6726   -0.7786   H         1 RES1   0.0000
    66 H25       1.4562    4.8320   -2.1283   H         1 RES1   0.0000
    67 H26       2.5880    4.0204   -4.1626   H         1 RES1   0.0000
    68 H27       2.3676    2.3327   -4.6091   H         1 RES1   0.0000
    69 H28       0.9613    3.4246   -4.5087   H         1 RES1   0.0000
    70 H29       0.8669    0.8639   -4.1838   H         1 RES1   0.0000
    71 H30       2.5388   -0.7179   -3.8238   H         1 RES1   0.0000
    72 H31       2.4162   -0.6188   -2.0669   H         1 RES1   0.0000
    73 H32       1.6049   -2.7899   -3.3330   H         1 RES1   0.0000
    74 H33       0.9369   -4.3481   -1.6305   H         1 RES1   0.0000
    75 H34       2.4198   -3.4184   -1.3427   H         1 RES1   0.0000
    76 H35       1.2090   -3.5457   -0.0640   H         1 RES1   0.0000
    77 H36       0.0540   -1.8817   -4.8501   H         1 RES1   0.0000
    78 H37      -0.8664   -2.7762   -3.6396   H         1 RES1   0.0000
    79 H38      -1.3520   -0.0874   -4.4300   H         1 RES1   0.0000
    80 H39      -2.7675   -1.4908   -5.2177   H         1 RES1   0.0000
    81 H40      -4.1927   -2.4318   -4.7705   H         1 RES1   0.0000
    82 H41      -4.3636   -0.7078   -5.0838   H         1 RES1   0.0000
    83 H42      -5.4685   -1.7820   -3.0042   H         1 RES1   0.0000
    84 H43      -4.4352   -1.9856   -1.5712   H         1 RES1   0.0000
    85 H44      -5.8953   -0.1430   -1.1274   H         1 RES1   0.0000
    86 H45      -4.2717    0.4915   -1.3670   H         1 RES1   0.0000
    87 H46      -4.9460    1.2206   -3.6788   H         1 RES1   0.0000
    88 H47      -6.5032    0.4398   -3.4577   H         1 RES1   0.0000
    89 H48      -7.2615    2.4498   -2.7358   H         1 RES1   0.0000
    90 H49      -6.4057    2.1117   -1.2392   H         1 RES1   0.0000
    91 H50      -5.3356    3.6843   -3.6190   H         1 RES1   0.0000
    92 H51      -5.9508    4.3682   -2.1247   H         1 RES1   0.0000
    93 H52      -4.1889    3.5130   -0.8113   H         1 RES1   0.0000
    94 H53      -3.6276    2.4242   -2.0939   H         1 RES1   0.0000
    95 H54      -3.5947    5.2987   -2.8569   H         1 RES1   0.0000
    96 H55      -2.5064    4.9080   -1.5345   H         1 RES1   0.0000
    97 H56      -1.3655    4.7527   -3.6984   H         1 RES1   0.0000
    98 H57      -1.3938    3.1668   -2.9202   H         1 RES1   0.0000
    99 H58      -3.3820    2.5551   -4.3237   H         1 RES1   0.0000
   100 H59      -3.3079    4.1400   -5.0907   H         1 RES1   0.0000
   101 H60      -1.1412    3.6090   -6.0836   H         1 RES1   0.0000
   102 H61      -1.0601    2.0819   -5.1933   H         1 RES1   0.0000
   103 H62      -3.1481    1.3299   -6.3727   H         1 RES1   0.0000
   104 H63      -3.1588    2.8433   -7.2702   H         1 RES1   0.0000
   105 H64      -0.9355    0.7492   -7.4208   H         1 RES1   0.0000
   106 H65      -2.1871    1.0309   -8.6279   H         1 RES1   0.0000
   107 H66      -0.9829    2.2695   -8.3131   H         1 RES1   0.0000
   108 C35       7.6788    0.9810   -8.3325   C.3       1 RES1   0.0000
   109 C36       7.2710    2.4450   -8.4487   C.3       1 RES1   0.0000
   110 C37       5.7799    2.6821   -8.2005   C.3       1 RES1   0.0000
   111 C38       5.2707    2.1209   -6.8691   C.3       1 RES1   0.0000
   112 C39       6.0888    2.6388   -5.6896   C.3       1 RES1   0.0000
   113 C40       5.5232    2.2577   -4.3259   C.3       1 RES1   0.0000
   114 C41       5.7094    0.8072   -3.8723   C.3       1 RES1   0.0000
   115 C42       5.3038    0.7593   -2.4026   C.3       1 RES1   0.0000
   116 C43       5.5373   -0.5204   -1.6042   C.3       1 RES1   0.0000
   117 C44       5.2067   -0.2215   -0.1399   C.3       1 RES1   0.0000
   118 C45       5.4653   -1.3826    0.8190   C.3       1 RES1   0.0000
   119 C46       4.2648   -2.3253    0.9374   C.3       1 RES1   0.0000
   120 N3        3.3764   -1.9375    2.0348   N.am      1 RES1   0.0000
   121 C47       3.8962   -2.2706    3.3451   C.3       1 RES1   0.0000
   122 C48       2.2076   -1.3740    1.7975   C.2       1 RES1   0.0000
   123 O5        1.8299   -1.0278    0.6511   O.2       1 RES1   0.0000
   124 C49       1.2561   -1.0792    2.9569   C.3       1 RES1   0.0000
   125 C50       1.5771    0.3202    3.5212   C.3       1 RES1   0.0000
   126 C51       0.3073    1.1769    3.5574   C.3       1 RES1   0.0000
   127 O6       -0.0705    1.6012    2.2455   O.3       1 RES1   0.0000
   128 C52       0.4581    2.8830    1.9016   C.3       1 RES1   0.0000
   129 C53      -0.8098    0.3502    4.1997   C.3       1 RES1   0.0000
   130 C54      -1.0710   -0.9100    3.3450   C.3       1 RES1   0.0000
   131 C55      -2.3540   -0.6709    2.5491   C.2       1 RES1   0.0000
   132 O7       -2.2525   -0.2734    1.3680   O.2       1 RES1   0.0000
   133 N4       -3.5183   -0.8068    3.1518   N.am      1 RES1   0.0000
   134 C56      -3.7375   -1.2132    4.5243   C.3       1 RES1   0.0000
   135 C57      -4.7232   -0.4713    2.3962   C.3       1 RES1   0.0000
   136 C58      -5.0510   -1.5165    1.3311   C.3       1 RES1   0.0000
   137 C59      -5.3092   -2.9158    1.8928   C.3       1 RES1   0.0000
   138 C60      -5.6526   -3.9382    0.7918   C.3       1 RES1   0.0000
   139 C61      -4.5064   -4.8936    0.4486   C.3       1 RES1   0.0000
   140 C62      -3.3187   -4.1981   -0.2212   C.3       1 RES1   0.0000
   141 C63      -2.0249   -5.0220   -0.1859   C.3       1 RES1   0.0000
   142 C64      -1.0886   -4.6292    0.9597   C.3       1 RES1   0.0000
   143 C65      -1.6649   -4.9459    2.3353   C.3       1 RES1   0.0000
   144 C66      -0.6490   -4.7687    3.4594   C.3       1 RES1   0.0000
   145 C67      -1.3264   -4.8316    4.8255   C.3       1 RES1   0.0000
   146 C68      -0.3559   -4.6080    5.9757   C.3       1 RES1   0.0000
   147 O8       -0.0451   -1.1199    2.3782   O.3       1 RES1   0.0000
   148 H67       8.7240    0.8662   -8.6070   H         1 RES1   0.0000
   149 H68       7.5543    0.6112   -7.3156   H         1 RES1   0.0000
   150 H69       7.0774    0.3639   -8.9978   H         1 RES1   0.0000
   151 H70       7.8602    3.0484   -7.7545   H         1 RES1   0.0000
   152 H71       7.5058    2.8011   -9.4533   H         1 RES1   0.0000
   153 H72       5.5914    3.7584   -8.2255   H         1 RES1   0.0000
   154 H73       5.2052    2.2290   -9.0126   H         1 RES1   0.0000
   155 H74       4.2245    2.4240   -6.7449   H         1 RES1   0.0000
   156 H75       5.2968    1.0314   -6.8958   H         1 RES1   0.0000
   157 H76       7.1143    2.2796   -5.7594   H         1 RES1   0.0000
   158 H77       6.1181    3.7305   -5.7509   H         1 RES1   0.0000
   159 H78       6.0085    2.8943   -3.5826   H         1 RES1   0.0000
   160 H79       4.4564    2.4851   -4.3115   H         1 RES1   0.0000
   161 H80       5.1019    0.1272   -4.4707   H         1 RES1   0.0000
   162 H81       6.7512    0.5121   -3.9822   H         1 RES1   0.0000
   163 H82       5.8704    1.5430   -1.9004   H         1 RES1   0.0000
   164 H83       4.2436    1.0262   -2.3280   H         1 RES1   0.0000
   165 H84       4.9230   -1.3417   -1.9868   H         1 RES1   0.0000
   166 H85       6.5856   -0.8184   -1.6846   H         1 RES1   0.0000
   167 H86       5.8219    0.6234    0.1686   H         1 RES1   0.0000
   168 H87       4.1628    0.0891   -0.0561   H         1 RES1   0.0000
   169 H88       6.3413   -1.9378    0.4909   H         1 RES1   0.0000
   170 H89       5.7008   -0.9770    1.8031   H         1 RES1   0.0000
   171 H90       3.6845   -2.3112    0.0167   H         1 RES1   0.0000
   172 H91       4.5921   -3.3491    1.1433   H         1 RES1   0.0000
   173 H92       4.9799   -2.1294    3.3266   H         1 RES1   0.0000
   174 H93       3.4925   -1.6197    4.1183   H         1 RES1   0.0000
   175 H94       3.7051   -3.3199    3.5858   H         1 RES1   0.0000
   176 H95       1.3076   -1.8376    3.7443   H         1 RES1   0.0000
   177 H96       1.9790    0.2259    4.5292   H         1 RES1   0.0000
   178 H97       2.3208    0.8287    2.9058   H         1 RES1   0.0000
   179 H98       0.4878    2.0582    4.1867   H         1 RES1   0.0000
   180 H99       0.4900    3.5459    2.7706   H         1 RES1   0.0000
   181 H100      1.4638    2.7984    1.4848   H         1 RES1   0.0000
   182 H101     -0.2102    3.3122    1.1583   H         1 RES1   0.0000
   183 H102     -0.4979    0.0803    5.2098   H         1 RES1   0.0000
   184 H103     -1.7122    0.9537    4.2778   H         1 RES1   0.0000
   185 H104     -1.1527   -1.8102    3.9672   H         1 RES1   0.0000
   186 H105     -2.8313   -1.5766    5.0002   H         1 RES1   0.0000
   187 H106     -4.1175   -0.3650    5.0935   H         1 RES1   0.0000
   188 H107     -4.4882   -2.0022    4.5469   H         1 RES1   0.0000
   189 H108     -5.5394   -0.3786    3.1089   H         1 RES1   0.0000
   190 H109     -4.5564    0.4964    1.9129   H         1 RES1   0.0000
   191 H110     -5.9519   -1.1847    0.8121   H         1 RES1   0.0000
   192 H111     -4.2252   -1.5286    0.6183   H         1 RES1   0.0000
   193 H112     -4.4344   -3.2707    2.4425   H         1 RES1   0.0000
   194 H113     -6.1435   -2.8498    2.5953   H         1 RES1   0.0000
   195 H114     -6.4950   -4.5427    1.1273   H         1 RES1   0.0000
   196 H115     -5.9748   -3.4115   -0.1100   H         1 RES1   0.0000
   197 H116     -4.1949   -5.4046    1.3595   H         1 RES1   0.0000
   198 H117     -4.8873   -5.6615   -0.2291   H         1 RES1   0.0000
   199 H118     -3.5928   -4.0087   -1.2616   H         1 RES1   0.0000
   200 H119     -3.1181   -3.2339    0.2520   H         1 RES1   0.0000
   201 H120     -2.2634   -6.0847   -0.0999   H         1 RES1   0.0000
   202 H121     -1.4898   -4.8808   -1.1282   H         1 RES1   0.0000
   203 H122     -0.1503   -5.1784    0.8453   H         1 RES1   0.0000
   204 H123     -0.8672   -3.5488    0.8877   H         1 RES1   0.0000
   205 H124     -2.5228   -4.2980    2.5216   H         1 RES1   0.0000
   206 H125     -2.0119   -5.9801    2.3393   H         1 RES1   0.0000
   207 H126      0.1018   -5.5572    3.3938   H         1 RES1   0.0000
   208 H127     -0.1305   -3.8106    3.3366   H         1 RES1   0.0000
   209 H128     -2.1270   -4.0876    4.8702   H         1 RES1   0.0000
   210 H129     -1.7902   -5.8104    4.9397   H         1 RES1   0.0000
   211 H130      0.1246   -3.6318    5.9102   H         1 RES1   0.0000
   212 H131     -0.8774   -4.6651    6.9259   H         1 RES1   0.0000
   213 H132      0.4182   -5.3695    5.9741   H         1 RES1   0.0000
   214 O9       -1.6661    1.9591   -0.2982   O.3       1 RES1   0.0000
   215 H133     -1.8237    2.5221   -1.0733   H         1 RES1   0.0000
   216 H134     -2.5128    1.9474    0.1804   H         1 RES1   0.0000
@<TRIPOS>BOND
     1     1    17    1
     2     1    21    1
     3     1    26    1
     4     1    41    1
     5     1   123    1
     6     1   127    1
     7     1   132    1
     8     1   147    1
     9     1   214    1
    10     2     3    1
    11     2    42    1
    12     2    43    1
    13     2    44    1
    14     3     4    1
    15     3    45    1
    16     3    46    1
    17     4     5    1
    18     4    47    1
    19     4    48    1
    20     5     6    1
    21     5    49    1
    22     5    50    1
    23     6     7    1
    24     6    51    1
    25     6    52    1
    26     7     8    1
    27     7    53    1
    28     7    54    1
    29     8     9    1
    30     8    55    1
    31     8    56    1
    32     9    10    1
    33     9    57    1
    34     9    58    1
    35    10    11    1
    36    10    59    1
    37    10    60    1
    38    11    12    1
    39    11    61    1
    40    11    62    1
    41    12    13    1
    42    12    63    1
    43    12    64    1
    44    13    14    1
    45    13    65    1
    46    13    66    1
    47    14    15    1
    48    14    16    1
    49    15    67    1
    50    15    68    1
    51    15    69    1
    52    16    17    2
    53    16    18    1
    54    18    19    1
    55    18    41    1
    56    18    70    1
    57    19    20    1
    58    19    71    1
    59    19    72    1
    60    20    21    1
    61    20    23    1
    62    20    73    1
    63    21    22    1
    64    22    74    1
    65    22    75    1
    66    22    76    1
    67    23    24    1
    68    23    77    1
    69    23    78    1
    70    24    25    1
    71    24    41    1
    72    24    79    1
    73    25    26    2
    74    25    27    1
    75    27    28    1
    76    27    29    1
    77    28    80    1
    78    28    81    1
    79    28    82    1
    80    29    30    1
    81    29    83    1
    82    29    84    1
    83    30    31    1
    84    30    85    1
    85    30    86    1
    86    31    32    1
    87    31    87    1
    88    31    88    1
    89    32    33    1
    90    32    89    1
    91    32    90    1
    92    33    34    1
    93    33    91    1
    94    33    92    1
    95    34    35    1
    96    34    93    1
    97    34    94    1
    98    35    36    1
    99    35    95    1
   100    35    96    1
   101    36    37    1
   102    36    97    1
   103    36    98    1
   104    37    38    1
   105    37    99    1
   106    37   100    1
   107    38    39    1
   108    38   101    1
   109    38   102    1
   110    39    40    1
   111    39   103    1
   112    39   104    1
   113    40   105    1
   114    40   106    1
   115    40   107    1
   116   108   109    1
   117   108   148    1
   118   108   149    1
   119   108   150    1
   120   109   110    1
   121   109   151    1
   122   109   152    1
   123   110   111    1
   124   110   153    1
   125   110   154    1
   126   111   112    1
   127   111   155    1
   128   111   156    1
   129   112   113    1
   130   112   157    1
   131   112   158    1
   132   113   114    1
   133   113   159    1
   134   113   160    1
   135   114   115    1
   136   114   161    1
   137   114   162    1
   138   115   116    1
   139   115   163    1
   140   115   164    1
   141   116   117    1
   142   116   165    1
   143   116   166    1
   144   117   118    1
   145   117   167    1
   146   117   168    1
   147   118   119    1
   148   118   169    1
   149   118   170    1
   150   119   120    1
   151   119   171    1
   152   119   172    1
   153   120   121    1
   154   120   122    1
   155   121   173    1
   156   121   174    1
   157   121   175    1
   158   122   123    2
   159   122   124    1
   160   124   125    1
   161   124   147    1
   162   124   176    1
   163   125   126    1
   164   125   177    1
   165   125   178    1
   166   126   127    1
   167   126   129    1
   168   126   179    1
   169   127   128    1
   170   128   180    1
   171   128   181    1
   172   128   182    1
   173   129   130    1
   174   129   183    1
   175   129   184    1
   176   130   131    1
   177   130   147    1
   178   130   185    1
   179   131   132    2
   180   131   133    1
   181   133   134    1
   182   133   135    1
   183   134   186    1
   184   134   187    1
   185   134   188    1
   186   135   136    1
   187   135   189    1
   188   135   190    1
   189   136   137    1
   190   136   191    1
   191   136   192    1
   192   137   138    1
   193   137   193    1
   194   137   194    1
   195   138   139    1
   196   138   195    1
   197   138   196    1
   198   139   140    1
   199   139   197    1
   200   139   198    1
   201   140   141    1
   202   140   199    1
   203   140   200    1
   204   141   142    1
   205   141   201    1
   206   141   202    1
   207   142   143    1
   208   142   203    1
   209   142   204    1
   210   143   144    1
   211   143   205    1
   212   143   206    1
   213   144   145    1
   214   144   207    1
   215   144   208    1
   216   145   146    1
   217   145   209    1
   218   145   210    1
   219   146   211    1
   220   146   212    1
   221   146   213    1
   222   214   215    1
   223   214   216    1
@<TRIPOS>SUBSTRUCTURE
     1 RES1      216 GROUP             0 ****  ****    0  
