@<TRIPOS>MOLECULE
am_c3_9H2O_c0_0_nunpairedes_0_charge_3 Charge: 3 Unpaired_Electrons: 3 XTB_Unpaired_Electrons: 0 XTB_Charge: 3
   344   347     1     0     0
SMALL
NoCharges
****
Generated from Architector

@<TRIPOS>ATOM
     1 Nd1      -0.0582    0.0130    0.8044   Nd        1 RES1   0.0000
     2 C1       -5.7129   -3.6991   -6.0521   C.3       1 RES1   0.0000
     3 C2       -6.1867   -4.6799   -4.9840   C.3       1 RES1   0.0000
     4 C3       -5.1874   -4.8191   -3.8334   C.3       1 RES1   0.0000
     5 C4       -5.7021   -5.7614   -2.7417   C.3       1 RES1   0.0000
     6 C5       -6.8096   -5.1469   -1.8726   C.3       1 RES1   0.0000
     7 C6       -6.3704   -4.8277   -0.4428   C.3       1 RES1   0.0000
     8 C7       -5.2905   -3.7489   -0.3896   C.3       1 RES1   0.0000
     9 C8       -4.9988   -3.3028    1.0448   C.3       1 RES1   0.0000
    10 N1       -4.0961   -2.1548    1.0742   N.am      1 RES1   0.0000
    11 C9       -4.7465   -0.8918    1.3594   C.3       1 RES1   0.0000
    12 C10      -2.8009   -2.1589    0.7339   C.2       1 RES1   0.0000
    13 O1       -2.1998   -1.1214    0.4005   O.2       1 RES1   0.0000
    14 C11      -2.0457   -3.4649    0.9716   C.3       1 RES1   0.0000
    15 C12      -1.4289   -4.1647   -0.2590   C.3       1 RES1   0.0000
    16 C13      -0.3643   -3.4016   -1.0409   C.3       1 RES1   0.0000
    17 C14       0.4515   -4.3966   -1.8736   C.3       1 RES1   0.0000
    18 C15       1.7638   -3.8263   -2.4115   C.3       1 RES1   0.0000
    19 C16       1.6170   -2.9859   -3.6787   C.3       1 RES1   0.0000
    20 C17       1.2655   -3.8096   -4.9111   C.3       1 RES1   0.0000
    21 C18      -1.0101   -3.0747    2.0294   C.2       1 RES1   0.0000
    22 O2       -0.3410   -2.0272    1.9267   O.2       1 RES1   0.0000
    23 N2       -0.8636   -3.8466    3.1036   N.am      1 RES1   0.0000
    24 C19      -1.4936   -5.1287    3.3359   C.3       1 RES1   0.0000
    25 C20      -0.0347   -3.3217    4.1860   C.3       1 RES1   0.0000
    26 C21      -0.6273   -2.0607    4.8248   C.3       1 RES1   0.0000
    27 C22       0.0372   -1.7080    6.1563   C.3       1 RES1   0.0000
    28 C23       1.4167   -1.0650    6.0222   C.3       1 RES1   0.0000
    29 C24       2.5338   -2.0053    5.5529   C.3       1 RES1   0.0000
    30 C25       3.8686   -1.6758    6.2220   C.3       1 RES1   0.0000
    31 C26       5.0286   -2.4514    5.6021   C.3       1 RES1   0.0000
    32 C27       6.3797   -2.0775    6.2184   C.3       1 RES1   0.0000
    33 H1       -6.4051   -3.6798   -6.8921   H         1 RES1   0.0000
    34 H2       -4.7299   -3.9794   -6.4274   H         1 RES1   0.0000
    35 H3       -5.6586   -2.6901   -5.6475   H         1 RES1   0.0000
    36 H4       -6.3332   -5.6584   -5.4439   H         1 RES1   0.0000
    37 H5       -7.1560   -4.3510   -4.6032   H         1 RES1   0.0000
    38 H6       -4.9815   -3.8331   -3.4080   H         1 RES1   0.0000
    39 H7       -4.2478   -5.2162   -4.2322   H         1 RES1   0.0000
    40 H8       -4.8700   -6.0647   -2.1042   H         1 RES1   0.0000
    41 H9       -6.0777   -6.6616   -3.2281   H         1 RES1   0.0000
    42 H10      -7.6525   -5.8346   -1.8158   H         1 RES1   0.0000
    43 H11      -7.1736   -4.2289   -2.3338   H         1 RES1   0.0000
    44 H12      -6.0052   -5.7367    0.0364   H         1 RES1   0.0000
    45 H13      -7.2418   -4.4874    0.1199   H         1 RES1   0.0000
    46 H14      -5.6304   -2.8825   -0.9562   H         1 RES1   0.0000
    47 H15      -4.3754   -4.1138   -0.8564   H         1 RES1   0.0000
    48 H16      -4.6206   -4.1394    1.6370   H         1 RES1   0.0000
    49 H17      -5.9337   -2.9841    1.5081   H         1 RES1   0.0000
    50 H18      -5.2736   -0.9921    2.3091   H         1 RES1   0.0000
    51 H19      -5.4630   -0.6309    0.5841   H         1 RES1   0.0000
    52 H20      -3.9897   -0.1157    1.4460   H         1 RES1   0.0000
    53 H21      -2.7397   -4.1753    1.4153   H         1 RES1   0.0000
    54 H22      -2.2407   -4.4457   -0.9352   H         1 RES1   0.0000
    55 H23      -0.9861   -5.0988    0.1075   H         1 RES1   0.0000
    56 H24       0.3076   -2.8811   -0.3589   H         1 RES1   0.0000
    57 H25      -0.8193   -2.6391   -1.6730   H         1 RES1   0.0000
    58 H26      -0.1511   -4.7695   -2.7011   H         1 RES1   0.0000
    59 H27       0.6885   -5.2585   -1.2424   H         1 RES1   0.0000
    60 H28       2.4443   -4.6545   -2.6184   H         1 RES1   0.0000
    61 H29       2.2163   -3.2013   -1.6395   H         1 RES1   0.0000
    62 H30       2.5628   -2.4677   -3.8577   H         1 RES1   0.0000
    63 H31       0.8555   -2.2272   -3.5069   H         1 RES1   0.0000
    64 H32       1.9776   -4.6200   -5.0383   H         1 RES1   0.0000
    65 H33       1.3015   -3.1971   -5.8081   H         1 RES1   0.0000
    66 H34       0.2697   -4.2384   -4.8379   H         1 RES1   0.0000
    67 H35      -1.7372   -5.6332    2.4045   H         1 RES1   0.0000
    68 H36      -2.3958   -5.0170    3.9440   H         1 RES1   0.0000
    69 H37      -0.7977   -5.7669    3.8809   H         1 RES1   0.0000
    70 H38       0.9538   -3.1005    3.7828   H         1 RES1   0.0000
    71 H39       0.0499   -4.1038    4.9377   H         1 RES1   0.0000
    72 H40      -1.6936   -2.2302    5.0002   H         1 RES1   0.0000
    73 H41      -0.5165   -1.2083    4.1426   H         1 RES1   0.0000
    74 H42       0.0937   -2.5961    6.7867   H         1 RES1   0.0000
    75 H43      -0.6094   -0.9966    6.6716   H         1 RES1   0.0000
    76 H44       1.6968   -0.6751    7.0028   H         1 RES1   0.0000
    77 H45       1.3372   -0.2217    5.3313   H         1 RES1   0.0000
    78 H46       2.6558   -1.9251    4.4676   H         1 RES1   0.0000
    79 H47       2.2819   -3.0411    5.7832   H         1 RES1   0.0000
    80 H48       3.8060   -1.8998    7.2876   H         1 RES1   0.0000
    81 H49       4.0611   -0.6054    6.1259   H         1 RES1   0.0000
    82 H50       5.0410   -2.2446    4.5283   H         1 RES1   0.0000
    83 H51       4.8460   -3.5207    5.7229   H         1 RES1   0.0000
    84 H52       7.1531   -2.0221    5.4573   H         1 RES1   0.0000
    85 H53       6.6911   -2.8078    6.9590   H         1 RES1   0.0000
    86 H54       6.3298   -1.1121    6.7151   H         1 RES1   0.0000
    87 C28      -7.3270    1.7532   -5.8208   C.3       1 RES1   0.0000
    88 C29      -6.4844    1.1699   -6.9500   C.3       1 RES1   0.0000
    89 C30      -5.1385    1.8816   -7.0709   C.3       1 RES1   0.0000
    90 C31      -4.4022    1.6090   -8.3852   C.3       1 RES1   0.0000
    91 C32      -4.0605    0.1509   -8.7040   C.3       1 RES1   0.0000
    92 C33      -2.7651   -0.3638   -8.0777   C.3       1 RES1   0.0000
    93 C34      -2.8153   -0.4101   -6.5528   C.3       1 RES1   0.0000
    94 C35      -1.6918   -1.2844   -5.9940   C.3       1 RES1   0.0000
    95 N3       -1.6001   -1.1840   -4.5486   N.am      1 RES1   0.0000
    96 C36      -2.6263   -1.9034   -3.8128   C.3       1 RES1   0.0000
    97 C37      -0.7253   -0.4753   -3.8268   C.2       1 RES1   0.0000
    98 O3       -0.8068   -0.4934   -2.5836   O.2       1 RES1   0.0000
    99 C38       0.3379    0.3043   -4.5888   C.3       1 RES1   0.0000
   100 C39      -0.2011    1.6583   -5.1364   C.3       1 RES1   0.0000
   101 C40      -1.3065    2.3466   -4.3274   C.3       1 RES1   0.0000
   102 C41      -1.8367    3.5627   -5.1077   C.3       1 RES1   0.0000
   103 C42      -2.2353    4.7572   -4.2391   C.3       1 RES1   0.0000
   104 C43      -3.5008    4.6042   -3.3952   C.3       1 RES1   0.0000
   105 C44      -4.7976    4.5485   -4.1922   C.3       1 RES1   0.0000
   106 C45       1.6559    0.4793   -3.8170   C.2       1 RES1   0.0000
   107 O4        1.7004    0.5572   -2.5912   O.2       1 RES1   0.0000
   108 N4        2.7614    0.5347   -4.5897   N.am      1 RES1   0.0000
   109 C46       2.7942    0.6383   -6.0376   C.3       1 RES1   0.0000
   110 C47       4.0721    0.8200   -4.0128   C.3       1 RES1   0.0000
   111 C48       5.0652   -0.3438   -4.0487   C.3       1 RES1   0.0000
   112 C49       6.5101    0.1432   -3.8793   C.3       1 RES1   0.0000
   113 C50       6.8035    0.9042   -2.5819   C.3       1 RES1   0.0000
   114 C51       6.7050    2.4273   -2.6770   C.3       1 RES1   0.0000
   115 C52       6.8259    3.0718   -1.2982   C.3       1 RES1   0.0000
   116 C53       6.5153    4.5639   -1.3218   C.3       1 RES1   0.0000
   117 C54       6.4643    5.1724    0.0730   C.3       1 RES1   0.0000
   118 H55      -8.2680    1.2150   -5.7318   H         1 RES1   0.0000
   119 H56      -7.5494    2.7998   -6.0164   H         1 RES1   0.0000
   120 H57      -6.8028    1.6894   -4.8676   H         1 RES1   0.0000
   121 H58      -7.0284    1.2686   -7.8893   H         1 RES1   0.0000
   122 H59      -6.3340    0.1040   -6.7648   H         1 RES1   0.0000
   123 H60      -4.5217    1.6204   -6.2089   H         1 RES1   0.0000
   124 H61      -5.3158    2.9588   -7.0280   H         1 RES1   0.0000
   125 H62      -3.4815    2.1968   -8.4023   H         1 RES1   0.0000
   126 H63      -5.0380    1.9833   -9.1881   H         1 RES1   0.0000
   127 H64      -3.9601    0.0582   -9.7877   H         1 RES1   0.0000
   128 H65      -4.8789   -0.4976   -8.3956   H         1 RES1   0.0000
   129 H66      -1.9302    0.2636   -8.3959   H         1 RES1   0.0000
   130 H67      -2.5788   -1.3716   -8.4566   H         1 RES1   0.0000
   131 H68      -3.7825   -0.8049   -6.2427   H         1 RES1   0.0000
   132 H69      -2.7068    0.5942   -6.1461   H         1 RES1   0.0000
   133 H70      -0.7598   -1.0076   -6.4880   H         1 RES1   0.0000
   134 H71      -1.8898   -2.3309   -6.2374   H         1 RES1   0.0000
   135 H72      -3.4345   -2.1772   -4.4840   H         1 RES1   0.0000
   136 H73      -3.0050   -1.2673   -3.0122   H         1 RES1   0.0000
   137 H74      -2.2066   -2.8119   -3.3756   H         1 RES1   0.0000
   138 H75       0.5882   -0.3264   -5.4400   H         1 RES1   0.0000
   139 H76      -0.5866    1.4839   -6.1442   H         1 RES1   0.0000
   140 H77       0.6392    2.3530   -5.2295   H         1 RES1   0.0000
   141 H78      -0.9168    2.6749   -3.3606   H         1 RES1   0.0000
   142 H79      -2.1189    1.6419   -4.1325   H         1 RES1   0.0000
   143 H80      -2.6753    3.2713   -5.7378   H         1 RES1   0.0000
   144 H81      -1.0489    3.9181   -5.7753   H         1 RES1   0.0000
   145 H82      -2.3581    5.6208   -4.8922   H         1 RES1   0.0000
   146 H83      -1.4072    4.9841   -3.5642   H         1 RES1   0.0000
   147 H84      -3.5594    5.4666   -2.7258   H         1 RES1   0.0000
   148 H85      -3.4136    3.7116   -2.7772   H         1 RES1   0.0000
   149 H86      -4.8659    5.3900   -4.8761   H         1 RES1   0.0000
   150 H87      -5.6518    4.6011   -3.5190   H         1 RES1   0.0000
   151 H88      -4.8779    3.6296   -4.7651   H         1 RES1   0.0000
   152 H89       2.0946   -0.0216   -6.5464   H         1 RES1   0.0000
   153 H90       3.7913    0.3559   -6.3655   H         1 RES1   0.0000
   154 H91       2.6177    1.6706   -6.3520   H         1 RES1   0.0000
   155 H92       3.9294    1.1441   -2.9840   H         1 RES1   0.0000
   156 H93       4.4989    1.6347   -4.6024   H         1 RES1   0.0000
   157 H94       5.0110   -0.8679   -5.0059   H         1 RES1   0.0000
   158 H95       4.8301   -1.0708   -3.2694   H         1 RES1   0.0000
   159 H96       6.7831    0.7696   -4.7271   H         1 RES1   0.0000
   160 H97       7.1573   -0.7332   -3.9093   H         1 RES1   0.0000
   161 H98       7.8182    0.6654   -2.2596   H         1 RES1   0.0000
   162 H99       6.1232    0.5475   -1.8059   H         1 RES1   0.0000
   163 H100      5.7608    2.7283   -3.1290   H         1 RES1   0.0000
   164 H101      7.5020    2.8080   -3.3161   H         1 RES1   0.0000
   165 H102      7.8349    2.9162   -0.9238   H         1 RES1   0.0000
   166 H103      6.1357    2.5839   -0.6050   H         1 RES1   0.0000
   167 H104      5.5532    4.7207   -1.8113   H         1 RES1   0.0000
   168 H105      7.2737    5.0803   -1.9099   H         1 RES1   0.0000
   169 H106      5.6222    4.7847    0.6436   H         1 RES1   0.0000
   170 H107      6.3705    6.2532    0.0001   H         1 RES1   0.0000
   171 H108      7.3756    4.9544    0.6249   H         1 RES1   0.0000
   172 C55      10.6149    2.4167   -2.1314   C.3       1 RES1   0.0000
   173 C56      11.4391    2.5555   -0.8521   C.3       1 RES1   0.0000
   174 C57      10.5821    2.8863    0.3755   C.3       1 RES1   0.0000
   175 C58       9.7930    1.6790    0.8952   C.3       1 RES1   0.0000
   176 C59       8.7320    2.0792    1.9219   C.3       1 RES1   0.0000
   177 C60       7.7579    0.9488    2.2850   C.3       1 RES1   0.0000
   178 C61       6.3767    1.5135    2.6384   C.3       1 RES1   0.0000
   179 C62       5.4729    0.4791    3.3275   C.3       1 RES1   0.0000
   180 N5        4.0368    0.7304    3.2140   N.am      1 RES1   0.0000
   181 C63       3.4920    1.6226    4.2237   C.3       1 RES1   0.0000
   182 C64       3.2011    0.2407    2.2954   C.2       1 RES1   0.0000
   183 O5        1.9601    0.3312    2.3988   O.2       1 RES1   0.0000
   184 C65       3.7869   -0.3887    1.0274   C.3       1 RES1   0.0000
   185 C66       3.7117    0.6149   -0.1504   C.3       1 RES1   0.0000
   186 C67       2.8798    1.8724    0.1025   C.3       1 RES1   0.0000
   187 C68       3.2306    2.9746   -0.9093   C.3       1 RES1   0.0000
   188 C69       2.0517    3.7215   -1.5323   C.3       1 RES1   0.0000
   189 C70       2.5386    4.9931   -2.2376   C.3       1 RES1   0.0000
   190 C71       1.4279    5.8143   -2.8847   C.3       1 RES1   0.0000
   191 C72       2.9153   -1.6156    0.8035   C.2       1 RES1   0.0000
   192 O6        1.7666   -1.4573    0.3458   O.2       1 RES1   0.0000
   193 N6        3.3889   -2.8005    1.1913   N.am      1 RES1   0.0000
   194 C73       2.5294   -3.9689    1.1728   C.3       1 RES1   0.0000
   195 C74       4.8076   -2.9832    1.5215   C.3       1 RES1   0.0000
   196 C75       5.2596   -4.3659    1.9855   C.3       1 RES1   0.0000
   197 C76       6.7821   -4.3405    2.2426   C.3       1 RES1   0.0000
   198 C77       7.4798   -5.6464    1.8511   C.3       1 RES1   0.0000
   199 C78       7.6132   -5.7715    0.3328   C.3       1 RES1   0.0000
   200 C79       8.3168   -7.0650   -0.1075   C.3       1 RES1   0.0000
   201 C80       7.4263   -7.9664   -0.9629   C.3       1 RES1   0.0000
   202 C81       6.3064   -8.6042   -0.1494   C.3       1 RES1   0.0000
   203 H109     11.2556    2.1493   -2.9701   H         1 RES1   0.0000
   204 H110     10.1183    3.3582   -2.3689   H         1 RES1   0.0000
   205 H111      9.8571    1.6399   -2.0289   H         1 RES1   0.0000
   206 H112     12.1702    3.3556   -0.9954   H         1 RES1   0.0000
   207 H113     11.9924    1.6304   -0.6719   H         1 RES1   0.0000
   208 H114      9.8966    3.6968    0.1092   H         1 RES1   0.0000
   209 H115     11.2341    3.2609    1.1672   H         1 RES1   0.0000
   210 H116     10.4965    0.9716    1.3382   H         1 RES1   0.0000
   211 H117      9.3067    1.1761    0.0561   H         1 RES1   0.0000
   212 H118      8.1604    2.9181    1.5150   H         1 RES1   0.0000
   213 H119      9.2308    2.4235    2.8301   H         1 RES1   0.0000
   214 H120      8.1470    0.3851    3.1328   H         1 RES1   0.0000
   215 H121      7.6682    0.2524    1.4458   H         1 RES1   0.0000
   216 H122      5.8997    1.8665    1.7232   H         1 RES1   0.0000
   217 H123      6.5185    2.3694    3.2958   H         1 RES1   0.0000
   218 H124      5.6930    0.4601    4.3977   H         1 RES1   0.0000
   219 H125      5.7104   -0.5118    2.9384   H         1 RES1   0.0000
   220 H126      3.5829    1.1948    5.2225   H         1 RES1   0.0000
   221 H127      2.4380    1.7932    4.0103   H         1 RES1   0.0000
   222 H128      4.0241    2.5747    4.1861   H         1 RES1   0.0000
   223 H129      4.8300   -0.6480    1.1465   H         1 RES1   0.0000
   224 H130      3.3116    0.1073   -1.0304   H         1 RES1   0.0000
   225 H131      4.7358    0.9243   -0.3579   H         1 RES1   0.0000
   226 H132      3.0833    2.2355    1.1126   H         1 RES1   0.0000
   227 H133      1.8164    1.5935    0.0520   H         1 RES1   0.0000
   228 H134      3.7996    2.5258   -1.7193   H         1 RES1   0.0000
   229 H135      3.8788    3.7045   -0.4251   H         1 RES1   0.0000
   230 H136      1.3156    3.9874   -0.7708   H         1 RES1   0.0000
   231 H137      1.5672    3.0779   -2.2704   H         1 RES1   0.0000
   232 H138      3.2682    4.7196   -3.0054   H         1 RES1   0.0000
   233 H139      3.0546    5.6197   -1.5083   H         1 RES1   0.0000
   234 H140      0.8695    5.2098   -3.5989   H         1 RES1   0.0000
   235 H141      1.8657    6.6541   -3.4218   H         1 RES1   0.0000
   236 H142      0.7363    6.2106   -2.1381   H         1 RES1   0.0000
   237 H143      1.4930   -3.6443    1.1260   H         1 RES1   0.0000
   238 H144      2.6864   -4.5480    2.0799   H         1 RES1   0.0000
   239 H145      2.7425   -4.5947    0.3064   H         1 RES1   0.0000
   240 H146      5.0659   -2.2918    2.3274   H         1 RES1   0.0000
   241 H147      5.3991   -2.7304    0.6336   H         1 RES1   0.0000
   242 H148      5.0334   -5.1143    1.2286   H         1 RES1   0.0000
   243 H149      4.7533   -4.6399    2.9123   H         1 RES1   0.0000
   244 H150      6.9668   -4.1199    3.2949   H         1 RES1   0.0000
   245 H151      7.2445   -3.5383    1.6611   H         1 RES1   0.0000
   246 H152      6.9370   -6.5041    2.2542   H         1 RES1   0.0000
   247 H153      8.4806   -5.6539    2.2887   H         1 RES1   0.0000
   248 H154      8.1715   -4.9071   -0.0343   H         1 RES1   0.0000
   249 H155      6.6239   -5.7285   -0.1273   H         1 RES1   0.0000
   250 H156      8.6402   -7.6258    0.7708   H         1 RES1   0.0000
   251 H157      9.2110   -6.8132   -0.6776   H         1 RES1   0.0000
   252 H158      8.0380   -8.7573   -1.4000   H         1 RES1   0.0000
   253 H159      7.0058   -7.3847   -1.7881   H         1 RES1   0.0000
   254 H160      6.7271   -9.2422    0.6242   H         1 RES1   0.0000
   255 H161      5.6724   -9.2165   -0.7870   H         1 RES1   0.0000
   256 H162      5.6852   -7.8490    0.3318   H         1 RES1   0.0000
   257 C82      -5.9638    8.0939   -2.8868   C.3       1 RES1   0.0000
   258 C83      -6.7606    8.4223   -1.6281   C.3       1 RES1   0.0000
   259 C84      -7.0256    7.1945   -0.7535   C.3       1 RES1   0.0000
   260 C85      -5.8449    6.8458    0.1504   C.3       1 RES1   0.0000
   261 C86      -6.1263    5.5958    0.9838   C.3       1 RES1   0.0000
   262 C87      -5.1274    5.4240    2.1304   C.3       1 RES1   0.0000
   263 C88      -5.1621    3.9977    2.6778   C.3       1 RES1   0.0000
   264 C89      -4.0634    3.6882    3.7126   C.3       1 RES1   0.0000
   265 N7       -3.3467    2.4465    3.4243   N.am      1 RES1   0.0000
   266 C90      -3.6766    1.3372    4.3003   C.3       1 RES1   0.0000
   267 C91      -2.4713    2.2563    2.4321   C.2       1 RES1   0.0000
   268 O7       -1.9587    1.1373    2.2186   O.2       1 RES1   0.0000
   269 C92      -2.0786    3.4740    1.6044   C.3       1 RES1   0.0000
   270 C93      -2.6521    3.5255    0.1556   C.3       1 RES1   0.0000
   271 C94      -2.9912    2.1930   -0.5276   C.3       1 RES1   0.0000
   272 C95      -4.4879    1.9363   -0.7105   C.3       1 RES1   0.0000
   273 C96      -4.7006    0.7958   -1.7062   C.3       1 RES1   0.0000
   274 C97      -6.1625    0.4004   -1.9111   C.3       1 RES1   0.0000
   275 C98      -6.3070   -0.7263   -2.9310   C.3       1 RES1   0.0000
   276 C99      -0.5503    3.5210    1.5756   C.2       1 RES1   0.0000
   277 O8        0.1262    2.4812    1.4638   O.2       1 RES1   0.0000
   278 N8        0.0375    4.7162    1.6739   N.am      1 RES1   0.0000
   279 C100      1.4829    4.7802    1.8048   C.3       1 RES1   0.0000
   280 C101     -0.5909    6.0267    1.7432   C.3       1 RES1   0.0000
   281 C102     -0.6269    6.5969    3.1703   C.3       1 RES1   0.0000
   282 C103     -0.5488    8.1269    3.2129   C.3       1 RES1   0.0000
   283 C104      0.8063    8.7161    2.7802   C.3       1 RES1   0.0000
   284 C105      0.8281    9.2599    1.3492   C.3       1 RES1   0.0000
   285 C106      1.9945   10.2174    1.0706   C.3       1 RES1   0.0000
   286 C107      3.2061    9.5760    0.3963   C.3       1 RES1   0.0000
   287 C108      3.9960    8.6459    1.3079   C.3       1 RES1   0.0000
   288 H163     -5.7777    9.0007   -3.4574   H         1 RES1   0.0000
   289 H164     -6.5193    7.4015   -3.5179   H         1 RES1   0.0000
   290 H165     -5.0035    7.6423   -2.6406   H         1 RES1   0.0000
   291 H166     -7.7179    8.8567   -1.9227   H         1 RES1   0.0000
   292 H167     -6.2264    9.1724   -1.0394   H         1 RES1   0.0000
   293 H168     -7.2700    6.3392   -1.3881   H         1 RES1   0.0000
   294 H169     -7.8940    7.3905   -0.1240   H         1 RES1   0.0000
   295 H170     -5.6521    7.6884    0.8169   H         1 RES1   0.0000
   296 H171     -4.9487    6.6907   -0.4579   H         1 RES1   0.0000
   297 H172     -6.0918    4.7238    0.3251   H         1 RES1   0.0000
   298 H173     -7.1341    5.6561    1.3970   H         1 RES1   0.0000
   299 H174     -5.3615    6.1385    2.9192   H         1 RES1   0.0000
   300 H175     -4.1245    5.6623    1.7665   H         1 RES1   0.0000
   301 H176     -6.1451    3.8150    3.1119   H         1 RES1   0.0000
   302 H177     -5.0435    3.3091    1.8415   H         1 RES1   0.0000
   303 H178     -4.5069    3.5695    4.6996   H         1 RES1   0.0000
   304 H179     -3.3619    4.5234    3.7888   H         1 RES1   0.0000
   305 H180     -3.4736    1.6155    5.3349   H         1 RES1   0.0000
   306 H181     -3.0641    0.4778    4.0346   H         1 RES1   0.0000
   307 H182     -4.7320    1.0811    4.2073   H         1 RES1   0.0000
   308 H183     -2.4279    4.3657    2.1145   H         1 RES1   0.0000
   309 H184     -1.9104    4.0532   -0.4502   H         1 RES1   0.0000
   310 H185     -3.5494    4.1451    0.1733   H         1 RES1   0.0000
   311 H186     -2.5390    1.3560    0.0145   H         1 RES1   0.0000
   312 H187     -2.5483    2.2076   -1.5218   H         1 RES1   0.0000
   313 H188     -4.9640    2.8403   -1.0922   H         1 RES1   0.0000
   314 H189     -4.9524    1.6961    0.2460   H         1 RES1   0.0000
   315 H190     -4.1268   -0.0717   -1.3686   H         1 RES1   0.0000
   316 H191     -4.2896    1.1065   -2.6687   H         1 RES1   0.0000
   317 H192     -6.7319    1.2661   -2.2536   H         1 RES1   0.0000
   318 H193     -6.6082    0.0909   -0.9631   H         1 RES1   0.0000
   319 H194     -5.9879   -0.3861   -3.9138   H         1 RES1   0.0000
   320 H195     -7.3453   -1.0429   -3.0048   H         1 RES1   0.0000
   321 H196     -5.6993   -1.5892   -2.6547   H         1 RES1   0.0000
   322 H197      1.8899    5.5307    1.1277   H         1 RES1   0.0000
   323 H198      1.8925    3.8054    1.5819   H         1 RES1   0.0000
   324 H199      1.7614    5.0437    2.8257   H         1 RES1   0.0000
   325 H200     -1.5888    6.0129    1.3090   H         1 RES1   0.0000
   326 H201      0.0167    6.6874    1.1217   H         1 RES1   0.0000
   327 H202      0.2142    6.2014    3.7404   H         1 RES1   0.0000
   328 H203     -1.5415    6.2755    3.6757   H         1 RES1   0.0000
   329 H204     -0.7490    8.4256    4.2444   H         1 RES1   0.0000
   330 H205     -1.3468    8.5475    2.5993   H         1 RES1   0.0000
   331 H206      1.5947    7.9749    2.9165   H         1 RES1   0.0000
   332 H207      1.0369    9.5490    3.4439   H         1 RES1   0.0000
   333 H208     -0.1054    9.7995    1.1862   H         1 RES1   0.0000
   334 H209      0.8637    8.4450    0.6222   H         1 RES1   0.0000
   335 H210      2.3144   10.6884    2.0003   H         1 RES1   0.0000
   336 H211      1.6366   11.0134    0.4176   H         1 RES1   0.0000
   337 H212      3.8680   10.3778    0.0660   H         1 RES1   0.0000
   338 H213      2.8861    9.0330   -0.4968   H         1 RES1   0.0000
   339 H214      4.2974    9.1724    2.2094   H         1 RES1   0.0000
   340 H215      4.8936    8.2936    0.8046   H         1 RES1   0.0000
   341 H216      3.4121    7.7755    1.5997   H         1 RES1   0.0000
   342 O9       -0.3282    1.4252   -0.9749   O.3       1 RES1   0.0000
   343 H217      0.3472    1.9976   -1.3823   H         1 RES1   0.0000
   344 H218     -0.5572    0.7540   -1.6905   H         1 RES1   0.0000
@<TRIPOS>BOND
     1     1    13    1
     2     1    22    1
     3     1    98    1
     4     1   107    1
     5     1   183    1
     6     1   192    1
     7     1   268    1
     8     1   277    1
     9     1   342    1
    10     2     3    1
    11     2    33    1
    12     2    34    1
    13     2    35    1
    14     3     4    1
    15     3    36    1
    16     3    37    1
    17     4     5    1
    18     4    38    1
    19     4    39    1
    20     5     6    1
    21     5    40    1
    22     5    41    1
    23     6     7    1
    24     6    42    1
    25     6    43    1
    26     7     8    1
    27     7    44    1
    28     7    45    1
    29     8     9    1
    30     8    46    1
    31     8    47    1
    32     9    10    1
    33     9    48    1
    34     9    49    1
    35    10    11    1
    36    10    12    1
    37    11    50    1
    38    11    51    1
    39    11    52    1
    40    12    13    2
    41    12    14    1
    42    14    15    1
    43    14    21    1
    44    14    53    1
    45    15    16    1
    46    15    54    1
    47    15    55    1
    48    16    17    1
    49    16    56    1
    50    16    57    1
    51    17    18    1
    52    17    58    1
    53    17    59    1
    54    18    19    1
    55    18    60    1
    56    18    61    1
    57    19    20    1
    58    19    62    1
    59    19    63    1
    60    20    64    1
    61    20    65    1
    62    20    66    1
    63    21    22    2
    64    21    23    1
    65    23    24    1
    66    23    25    1
    67    24    67    1
    68    24    68    1
    69    24    69    1
    70    25    26    1
    71    25    70    1
    72    25    71    1
    73    26    27    1
    74    26    72    1
    75    26    73    1
    76    27    28    1
    77    27    74    1
    78    27    75    1
    79    28    29    1
    80    28    76    1
    81    28    77    1
    82    29    30    1
    83    29    78    1
    84    29    79    1
    85    30    31    1
    86    30    80    1
    87    30    81    1
    88    31    32    1
    89    31    82    1
    90    31    83    1
    91    32    84    1
    92    32    85    1
    93    32    86    1
    94    87    88    1
    95    87   118    1
    96    87   119    1
    97    87   120    1
    98    88    89    1
    99    88   121    1
   100    88   122    1
   101    89    90    1
   102    89   123    1
   103    89   124    1
   104    90    91    1
   105    90   125    1
   106    90   126    1
   107    91    92    1
   108    91   127    1
   109    91   128    1
   110    92    93    1
   111    92   129    1
   112    92   130    1
   113    93    94    1
   114    93   131    1
   115    93   132    1
   116    94    95    1
   117    94   133    1
   118    94   134    1
   119    95    96    1
   120    95    97    1
   121    96   135    1
   122    96   136    1
   123    96   137    1
   124    97    98    2
   125    97    99    1
   126    99   100    1
   127    99   106    1
   128    99   138    1
   129   100   101    1
   130   100   139    1
   131   100   140    1
   132   101   102    1
   133   101   141    1
   134   101   142    1
   135   102   103    1
   136   102   143    1
   137   102   144    1
   138   103   104    1
   139   103   145    1
   140   103   146    1
   141   104   105    1
   142   104   147    1
   143   104   148    1
   144   105   149    1
   145   105   150    1
   146   105   151    1
   147   106   107    2
   148   106   108    1
   149   108   109    1
   150   108   110    1
   151   109   152    1
   152   109   153    1
   153   109   154    1
   154   110   111    1
   155   110   155    1
   156   110   156    1
   157   111   112    1
   158   111   157    1
   159   111   158    1
   160   112   113    1
   161   112   159    1
   162   112   160    1
   163   113   114    1
   164   113   161    1
   165   113   162    1
   166   114   115    1
   167   114   163    1
   168   114   164    1
   169   115   116    1
   170   115   165    1
   171   115   166    1
   172   116   117    1
   173   116   167    1
   174   116   168    1
   175   117   169    1
   176   117   170    1
   177   117   171    1
   178   172   173    1
   179   172   203    1
   180   172   204    1
   181   172   205    1
   182   173   174    1
   183   173   206    1
   184   173   207    1
   185   174   175    1
   186   174   208    1
   187   174   209    1
   188   175   176    1
   189   175   210    1
   190   175   211    1
   191   176   177    1
   192   176   212    1
   193   176   213    1
   194   177   178    1
   195   177   214    1
   196   177   215    1
   197   178   179    1
   198   178   216    1
   199   178   217    1
   200   179   180    1
   201   179   218    1
   202   179   219    1
   203   180   181    1
   204   180   182    1
   205   181   220    1
   206   181   221    1
   207   181   222    1
   208   182   183    2
   209   182   184    1
   210   184   185    1
   211   184   191    1
   212   184   223    1
   213   185   186    1
   214   185   224    1
   215   185   225    1
   216   186   187    1
   217   186   226    1
   218   186   227    1
   219   187   188    1
   220   187   228    1
   221   187   229    1
   222   188   189    1
   223   188   230    1
   224   188   231    1
   225   189   190    1
   226   189   232    1
   227   189   233    1
   228   190   234    1
   229   190   235    1
   230   190   236    1
   231   191   192    2
   232   191   193    1
   233   193   194    1
   234   193   195    1
   235   194   237    1
   236   194   238    1
   237   194   239    1
   238   195   196    1
   239   195   240    1
   240   195   241    1
   241   196   197    1
   242   196   242    1
   243   196   243    1
   244   197   198    1
   245   197   244    1
   246   197   245    1
   247   198   199    1
   248   198   246    1
   249   198   247    1
   250   199   200    1
   251   199   248    1
   252   199   249    1
   253   200   201    1
   254   200   250    1
   255   200   251    1
   256   201   202    1
   257   201   252    1
   258   201   253    1
   259   202   254    1
   260   202   255    1
   261   202   256    1
   262   257   258    1
   263   257   288    1
   264   257   289    1
   265   257   290    1
   266   258   259    1
   267   258   291    1
   268   258   292    1
   269   259   260    1
   270   259   293    1
   271   259   294    1
   272   260   261    1
   273   260   295    1
   274   260   296    1
   275   261   262    1
   276   261   297    1
   277   261   298    1
   278   262   263    1
   279   262   299    1
   280   262   300    1
   281   263   264    1
   282   263   301    1
   283   263   302    1
   284   264   265    1
   285   264   303    1
   286   264   304    1
   287   265   266    1
   288   265   267    1
   289   266   305    1
   290   266   306    1
   291   266   307    1
   292   267   268    2
   293   267   269    1
   294   269   270    1
   295   269   276    1
   296   269   308    1
   297   270   271    1
   298   270   309    1
   299   270   310    1
   300   271   272    1
   301   271   311    1
   302   271   312    1
   303   272   273    1
   304   272   313    1
   305   272   314    1
   306   273   274    1
   307   273   315    1
   308   273   316    1
   309   274   275    1
   310   274   317    1
   311   274   318    1
   312   275   319    1
   313   275   320    1
   314   275   321    1
   315   276   277    2
   316   276   278    1
   317   278   279    1
   318   278   280    1
   319   279   322    1
   320   279   323    1
   321   279   324    1
   322   280   281    1
   323   280   325    1
   324   280   326    1
   325   281   282    1
   326   281   327    1
   327   281   328    1
   328   282   283    1
   329   282   329    1
   330   282   330    1
   331   283   284    1
   332   283   331    1
   333   283   332    1
   334   284   285    1
   335   284   333    1
   336   284   334    1
   337   285   286    1
   338   285   335    1
   339   285   336    1
   340   286   287    1
   341   286   337    1
   342   286   338    1
   343   287   339    1
   344   287   340    1
   345   287   341    1
   346   342   343    1
   347   342   344    1
@<TRIPOS>SUBSTRUCTURE
     1 RES1      344 GROUP             0 ****  ****    0  
