@<TRIPOS>MOLECULE
am_c3_9H2O_c0_0_nunpairedes_0_charge_3 Charge: 3 Unpaired_Electrons: 0 XTB_Unpaired_Electrons: 0 XTB_Charge: 3
   196   222     1     0     0
SMALL
NoCharges
****
Generated from Architector

@<TRIPOS>ATOM
     1 Lu1      -0.1446   -0.0764   -0.0692   Lu        1 RES1   0.0000
     2 C1       -3.8246   -5.7562   -3.2324   C.3       1 RES1   0.0000
     3 C2       -2.4445   -5.1502   -3.1634   C.3       1 RES1   0.0000
     4 C3       -1.7812   -4.9546   -4.5617   C.3       1 RES1   0.0000
     5 C4       -0.2753   -4.8743   -4.2795   C.3       1 RES1   0.0000
     6 C5       -0.2123   -4.9066   -2.7413   C.3       1 RES1   0.0000
     7 C6       -0.8806   -3.6534   -2.3139   C.ar      1 RES1   0.0000
     8 N1       -0.3900   -2.5420   -1.8415   N.ar      1 RES1   0.0000
     9 N2       -1.2566   -1.6220   -1.4307   N.ar      1 RES1   0.0000
    10 C7       -2.5627   -1.8125   -1.5613   C.ar      1 RES1   0.0000
    11 C8       -3.3871   -0.7818   -0.8931   C.ar      1 RES1   0.0000
    12 C9       -4.7594   -0.6240   -1.0710   C.ar      1 RES1   0.0000
    13 C10      -5.4238    0.2955   -0.2692   C.ar      1 RES1   0.0000
    14 C11      -4.7272    0.9895    0.7098   C.ar      1 RES1   0.0000
    15 C12      -3.3540    0.7811    0.8083   C.ar      1 RES1   0.0000
    16 C13      -2.5132    1.3322    1.8888   C.ar      1 RES1   0.0000
    17 N3       -1.2037    1.1947    1.7089   N.ar      1 RES1   0.0000
    18 N4       -0.3764    1.3538    2.7410   N.ar      1 RES1   0.0000
    19 C14      -0.8968    1.7290    3.8750   C.ar      1 RES1   0.0000
    20 C15      -2.2785    2.0815    3.9784   C.ar      1 RES1   0.0000
    21 N5       -3.1005    1.8276    2.9914   N.ar      1 RES1   0.0000
    22 C16      -2.4993    2.5370    5.3768   C.3       1 RES1   0.0000
    23 C17      -3.7131    3.3793    5.6810   C.3       1 RES1   0.0000
    24 C18      -2.4547    1.1640    6.1183   C.3       1 RES1   0.0000
    25 C19      -0.9856    0.7197    6.0181   C.3       1 RES1   0.0000
    26 C20      -0.3182    1.8740    5.2316   C.3       1 RES1   0.0000
    27 C21      -1.0930    3.1288    5.7224   C.3       1 RES1   0.0000
    28 C22      -0.8934    3.4518    7.1964   C.3       1 RES1   0.0000
    29 C23      -0.7284    4.3751    4.9125   C.3       1 RES1   0.0000
    30 N6       -2.7057   -0.0592   -0.0004   N.ar      1 RES1   0.0000
    31 N7       -3.1319   -2.8758   -2.1626   N.ar      1 RES1   0.0000
    32 C24      -2.2842   -3.8113   -2.5252   C.ar      1 RES1   0.0000
    33 C25      -1.3299   -5.9204   -2.3711   C.3       1 RES1   0.0000
    34 C26      -1.5796   -5.9591   -0.8615   C.3       1 RES1   0.0000
    35 C27      -1.0834   -7.3490   -2.8253   C.3       1 RES1   0.0000
    36 H1       -4.4674   -5.1677   -3.8813   H         1 RES1   0.0000
    37 H2       -4.2770   -5.8074   -2.2473   H         1 RES1   0.0000
    38 H3       -3.7603   -6.7580   -3.6441   H         1 RES1   0.0000
    39 H4       -2.1607   -4.0570   -5.0498   H         1 RES1   0.0000
    40 H5       -2.0312   -5.8026   -5.1920   H         1 RES1   0.0000
    41 H6        0.1856   -3.9689   -4.6720   H         1 RES1   0.0000
    42 H7        0.2595   -5.7295   -4.6844   H         1 RES1   0.0000
    43 H8        0.7795   -5.0668   -2.3269   H         1 RES1   0.0000
    44 H9       -5.2830   -1.2209   -1.8014   H         1 RES1   0.0000
    45 H10      -6.4869    0.4395   -0.3794   H         1 RES1   0.0000
    46 H11      -5.2166    1.6693    1.3887   H         1 RES1   0.0000
    47 H12      -4.6212    2.8597    5.3924   H         1 RES1   0.0000
    48 H13      -3.6635    4.3206    5.1421   H         1 RES1   0.0000
    49 H14      -3.7597    3.5879    6.7452   H         1 RES1   0.0000
    50 H15      -3.1449    0.4526    5.6647   H         1 RES1   0.0000
    51 H16      -2.7658    1.3087    7.1498   H         1 RES1   0.0000
    52 H17      -0.8703   -0.2276    5.4862   H         1 RES1   0.0000
    53 H18      -0.5196    0.6183    6.9963   H         1 RES1   0.0000
    54 H19       0.7671    1.8895    5.2810   H         1 RES1   0.0000
    55 H20      -1.2087    2.6514    7.8551   H         1 RES1   0.0000
    56 H21      -1.4564    4.3444    7.4545   H         1 RES1   0.0000
    57 H22       0.1566    3.6558    7.3895   H         1 RES1   0.0000
    58 H23      -0.8616    4.2325    3.8404   H         1 RES1   0.0000
    59 H24       0.3130    4.6366    5.0917   H         1 RES1   0.0000
    60 H25      -1.3383    5.2184    5.2248   H         1 RES1   0.0000
    61 H26      -1.6217   -4.9633   -0.4214   H         1 RES1   0.0000
    62 H27      -0.7786   -6.5039   -0.3669   H         1 RES1   0.0000
    63 H28      -2.5158   -6.4701   -0.6530   H         1 RES1   0.0000
    64 H29      -0.9414   -7.4468   -3.8941   H         1 RES1   0.0000
    65 H30      -1.9215   -7.9775   -2.5362   H         1 RES1   0.0000
    66 H31      -0.1984   -7.7346   -2.3260   H         1 RES1   0.0000
    67 C28       6.3664    1.3140    3.1624   C.3       1 RES1   0.0000
    68 C29       5.2753    0.2784    3.2297   C.3       1 RES1   0.0000
    69 C30       4.7537   -0.0388    4.6628   C.3       1 RES1   0.0000
    70 C31       4.0313   -1.3877    4.5345   C.3       1 RES1   0.0000
    71 C32       4.1459   -1.6951    3.0276   C.3       1 RES1   0.0000
    72 C33       3.3039   -0.6495    2.3989   C.ar      1 RES1   0.0000
    73 N8        2.1355   -0.7104    1.8290   N.ar      1 RES1   0.0000
    74 N9        1.6869    0.4033    1.2615   N.ar      1 RES1   0.0000
    75 C34       2.3798    1.5298    1.3409   C.ar      1 RES1   0.0000
    76 C35       1.8244    2.6615    0.5781   C.ar      1 RES1   0.0000
    77 C36       2.3193    3.9609    0.6753   C.ar      1 RES1   0.0000
    78 C37       1.7912    4.9321   -0.1671   C.ar      1 RES1   0.0000
    79 C38       0.7907    4.5833   -1.0628   C.ar      1 RES1   0.0000
    80 C39       0.3440    3.2624   -1.0693   C.ar      1 RES1   0.0000
    81 C40      -0.6645    2.7509   -2.0108   C.ar      1 RES1   0.0000
    82 N10      -1.1153    1.5292   -1.7477   N.ar      1 RES1   0.0000
    83 N11      -1.8585    0.8874   -2.6477   N.ar      1 RES1   0.0000
    84 C41      -2.1501    1.5292   -3.7443   C.ar      1 RES1   0.0000
    85 C42      -1.7888    2.8986   -3.9222   C.ar      1 RES1   0.0000
    86 N12      -1.0131    3.5065   -3.0641   N.ar      1 RES1   0.0000
    87 C43      -2.3165    3.3244   -5.2442   C.3       1 RES1   0.0000
    88 C44      -2.4561    4.8080   -5.4867   C.3       1 RES1   0.0000
    89 C45      -1.3092    2.5879   -6.1780   C.3       1 RES1   0.0000
    90 C46      -1.6665    1.0996   -6.0247   C.3       1 RES1   0.0000
    91 C47      -2.8247    1.1115   -4.9976   C.3       1 RES1   0.0000
    92 C48      -3.5858    2.4189   -5.3503   C.3       1 RES1   0.0000
    93 C49      -4.2326    2.4029   -6.7265   C.3       1 RES1   0.0000
    94 C50      -4.6578    2.7293   -4.3040   C.3       1 RES1   0.0000
    95 N13       0.8474    2.3261   -0.2651   N.ar      1 RES1   0.0000
    96 N14       3.5446    1.6898    1.9898   N.ar      1 RES1   0.0000
    97 C51       4.0182    0.5831    2.5033   C.ar      1 RES1   0.0000
    98 C52       5.5497   -1.1510    2.6475   C.3       1 RES1   0.0000
    99 C53       5.7547   -1.1575    1.1290   C.3       1 RES1   0.0000
   100 C54       6.7194   -1.8938    3.2734   C.3       1 RES1   0.0000
   101 H32       6.0891    2.1884    3.7439   H         1 RES1   0.0000
   102 H33       6.5242    1.6193    2.1331   H         1 RES1   0.0000
   103 H34       7.2943    0.9155    3.5587   H         1 RES1   0.0000
   104 H35       4.0932    0.7526    5.0161   H         1 RES1   0.0000
   105 H36       5.5991   -0.0993    5.3416   H         1 RES1   0.0000
   106 H37       2.9849   -1.3418    4.8388   H         1 RES1   0.0000
   107 H38       4.5268   -2.1669    5.1097   H         1 RES1   0.0000
   108 H39       3.9057   -2.7185    2.7526   H         1 RES1   0.0000
   109 H40       3.1104    4.1741    1.3790   H         1 RES1   0.0000
   110 H41       2.1743    5.9407   -0.1422   H         1 RES1   0.0000
   111 H42       0.3524    5.2944   -1.7444   H         1 RES1   0.0000
   112 H43      -1.5113    5.3098   -5.2980   H         1 RES1   0.0000
   113 H44      -3.2059    5.2257   -4.8210   H         1 RES1   0.0000
   114 H45      -2.7496    5.0032   -6.5135   H         1 RES1   0.0000
   115 H46      -0.2829    2.8148   -5.8837   H         1 RES1   0.0000
   116 H47      -1.4401    2.9323   -7.2003   H         1 RES1   0.0000
   117 H48      -0.8353    0.5068   -5.6434   H         1 RES1   0.0000
   118 H49      -1.9953    0.6645   -6.9672   H         1 RES1   0.0000
   119 H50      -3.3974    0.1911   -4.9412   H         1 RES1   0.0000
   120 H51      -3.5122    2.3009   -7.5304   H         1 RES1   0.0000
   121 H52      -4.7870    3.3223   -6.8901   H         1 RES1   0.0000
   122 H53      -4.9353    1.5765   -6.7831   H         1 RES1   0.0000
   123 H54      -4.2411    2.7964   -3.2989   H         1 RES1   0.0000
   124 H55      -5.4052    1.9377   -4.3089   H         1 RES1   0.0000
   125 H56      -5.1595    3.6665   -4.5286   H         1 RES1   0.0000
   126 H57       4.9302   -0.6819    0.5963   H         1 RES1   0.0000
   127 H58       5.8359   -2.1867    0.7819   H         1 RES1   0.0000
   128 H59       6.6772   -0.6417    0.8745   H         1 RES1   0.0000
   129 H60       6.7051   -1.8926    4.3582   H         1 RES1   0.0000
   130 H61       7.6539   -1.4472    2.9419   H         1 RES1   0.0000
   131 H62       6.7179   -2.9291    2.9363   H         1 RES1   0.0000
   132 C55      -2.9889   -6.1354    3.2563   C.3       1 RES1   0.0000
   133 C56      -3.1653   -4.6385    3.1950   C.3       1 RES1   0.0000
   134 C57      -3.2824   -3.9518    4.5896   C.3       1 RES1   0.0000
   135 C58      -3.9524   -2.5982    4.3093   C.3       1 RES1   0.0000
   136 C59      -4.0561   -2.5780    2.7716   C.3       1 RES1   0.0000
   137 C60      -2.6394   -2.5415    2.3316   C.ar      1 RES1   0.0000
   138 N15      -1.9014   -1.5637    1.8922   N.ar      1 RES1   0.0000
   139 N16      -0.6716   -1.8693    1.4821   N.ar      1 RES1   0.0000
   140 C61      -0.2260   -3.1140    1.5870   C.ar      1 RES1   0.0000
   141 C62       1.0625   -3.3462    0.9208   C.ar      1 RES1   0.0000
   142 C63       1.8705   -4.4660    1.1041   C.ar      1 RES1   0.0000
   143 C64       3.0276   -4.5610    0.3412   C.ar      1 RES1   0.0000
   144 C65       3.3355   -3.5614   -0.5732   C.ar      1 RES1   0.0000
   145 C66       2.4584   -2.4844   -0.6859   C.ar      1 RES1   0.0000
   146 C67       2.5361   -1.4464   -1.7201   C.ar      1 RES1   0.0000
   147 N17       1.6365   -0.4695   -1.6031   N.ar      1 RES1   0.0000
   148 N18       1.3286    0.2752   -2.6661   N.ar      1 RES1   0.0000
   149 C68       2.0172    0.0647   -3.7530   C.ar      1 RES1   0.0000
   150 C69       3.1664   -0.7852   -3.7453   C.ar      1 RES1   0.0000
   151 N19       3.3870   -1.5949   -2.7448   N.ar      1 RES1   0.0000
   152 C70       3.7752   -0.7162   -5.0971   C.3       1 RES1   0.0000
   153 C71       5.2268   -1.0939   -5.2344   C.3       1 RES1   0.0000
   154 C72       2.7585   -1.6265   -5.8527   C.3       1 RES1   0.0000
   155 C73       1.4610   -0.7985   -5.8746   C.3       1 RES1   0.0000
   156 C74       1.8585    0.5164   -5.1544   C.3       1 RES1   0.0000
   157 C75       3.3446    0.7110   -5.5536   C.3       1 RES1   0.0000
   158 C76       3.5353    1.0008   -7.0352   C.3       1 RES1   0.0000
   159 C77       3.9948    1.8355   -4.7439   C.3       1 RES1   0.0000
   160 N20       1.3602   -2.3818    0.0572   N.ar      1 RES1   0.0000
   161 N21      -0.8718   -4.1340    2.1777   N.ar      1 RES1   0.0000
   162 C78      -2.0937   -3.8436    2.5427   C.ar      1 RES1   0.0000
   163 C79      -4.3954   -4.0524    2.4208   C.3       1 RES1   0.0000
   164 C80      -4.3360   -4.3019    0.9110   C.3       1 RES1   0.0000
   165 C81      -5.7522   -4.5318    2.9093   C.3       1 RES1   0.0000
   166 H63      -2.1639   -6.3906    3.9149   H         1 RES1   0.0000
   167 H64      -2.7831   -6.5325    2.2679   H         1 RES1   0.0000
   168 H65      -3.8887   -6.5989    3.6454   H         1 RES1   0.0000
   169 H66      -2.2994   -3.8390    5.0452   H         1 RES1   0.0000
   170 H67      -3.8835   -4.5724    5.2469   H         1 RES1   0.0000
   171 H68      -3.3646   -1.7528    4.6668   H         1 RES1   0.0000
   172 H69      -4.9448   -2.5434    4.7493   H         1 RES1   0.0000
   173 H70      -4.6993   -1.8001    2.3690   H         1 RES1   0.0000
   174 H71       1.5892   -5.2339    1.8090   H         1 RES1   0.0000
   175 H72       3.6743   -5.4194    0.4384   H         1 RES1   0.0000
   176 H73       4.2165   -3.6037   -1.1930   H         1 RES1   0.0000
   177 H74       5.3926   -2.1025   -4.8712   H         1 RES1   0.0000
   178 H75       5.8409   -0.4117   -4.6544   H         1 RES1   0.0000
   179 H76       5.5189   -1.0395   -6.2776   H         1 RES1   0.0000
   180 H77       2.6434   -2.5820   -5.3386   H         1 RES1   0.0000
   181 H78       3.1360   -1.8286   -6.8515   H         1 RES1   0.0000
   182 H79       0.6494   -1.2990   -5.3388   H         1 RES1   0.0000
   183 H80       1.1212   -0.5935   -6.8876   H         1 RES1   0.0000
   184 H81       1.1934    1.3561   -5.3165   H         1 RES1   0.0000
   185 H82       3.1599    0.2071   -7.6706   H         1 RES1   0.0000
   186 H83       4.5883    1.1464   -7.2552   H         1 RES1   0.0000
   187 H84       3.0118    1.9182   -7.2918   H         1 RES1   0.0000
   188 H85       3.9563    1.6471   -3.6712   H         1 RES1   0.0000
   189 H86       3.4804    2.7747   -4.9385   H         1 RES1   0.0000
   190 H87       5.0349    1.9614   -5.0312   H         1 RES1   0.0000
   191 H88      -3.4578   -3.8474    0.4520   H         1 RES1   0.0000
   192 H89      -5.2165   -3.8779    0.4331   H         1 RES1   0.0000
   193 H90      -4.3227   -5.3703    0.7105   H         1 RES1   0.0000
   194 H91      -5.8738   -4.4613    3.9842   H         1 RES1   0.0000
   195 H92      -5.9022   -5.5676    2.6130   H         1 RES1   0.0000
   196 H93      -6.5342   -3.9412    2.4365   H         1 RES1   0.0000
@<TRIPOS>BOND
     1     1     9    1
     2     1    17    1
     3     1    30    1
     4     1    74    1
     5     1    82    1
     6     1    95    1
     7     1   139    1
     8     1   147    1
     9     1   160    1
    10     2     3    1
    11     2    36    1
    12     2    37    1
    13     2    38    1
    14     3     4    1
    15     3    32    1
    16     3    33    1
    17     4     5    1
    18     4    39    1
    19     4    40    1
    20     5     6    1
    21     5    41    1
    22     5    42    1
    23     6     7    1
    24     6    33    1
    25     6    43    1
    26     7     8    1
    27     7    32    2
    28     8     9    2
    29     9    10    1
    30    10    11    1
    31    10    31    2
    32    11    12    1
    33    11    30    2
    34    12    13    2
    35    12    44    1
    36    13    14    1
    37    13    45    1
    38    14    15    2
    39    14    46    1
    40    15    16    1
    41    15    30    1
    42    16    17    1
    43    16    21    2
    44    17    18    2
    45    18    19    1
    46    19    20    2
    47    19    26    1
    48    20    21    1
    49    20    22    1
    50    22    23    1
    51    22    24    1
    52    22    27    1
    53    23    47    1
    54    23    48    1
    55    23    49    1
    56    24    25    1
    57    24    50    1
    58    24    51    1
    59    25    26    1
    60    25    52    1
    61    25    53    1
    62    26    27    1
    63    26    54    1
    64    27    28    1
    65    27    29    1
    66    28    55    1
    67    28    56    1
    68    28    57    1
    69    29    58    1
    70    29    59    1
    71    29    60    1
    72    31    32    1
    73    33    34    1
    74    33    35    1
    75    34    61    1
    76    34    62    1
    77    34    63    1
    78    35    64    1
    79    35    65    1
    80    35    66    1
    81    67    68    1
    82    67   101    1
    83    67   102    1
    84    67   103    1
    85    68    69    1
    86    68    97    1
    87    68    98    1
    88    69    70    1
    89    69   104    1
    90    69   105    1
    91    70    71    1
    92    70   106    1
    93    70   107    1
    94    71    72    1
    95    71    98    1
    96    71   108    1
    97    72    73    1
    98    72    97    2
    99    73    74    2
   100    74    75    1
   101    75    76    1
   102    75    96    2
   103    76    77    1
   104    76    95    2
   105    77    78    2
   106    77   109    1
   107    78    79    1
   108    78   110    1
   109    79    80    2
   110    79   111    1
   111    80    81    1
   112    80    95    1
   113    81    82    1
   114    81    86    2
   115    82    83    2
   116    83    84    1
   117    84    85    2
   118    84    91    1
   119    85    86    1
   120    85    87    1
   121    87    88    1
   122    87    89    1
   123    87    92    1
   124    88   112    1
   125    88   113    1
   126    88   114    1
   127    89    90    1
   128    89   115    1
   129    89   116    1
   130    90    91    1
   131    90   117    1
   132    90   118    1
   133    91    92    1
   134    91   119    1
   135    92    93    1
   136    92    94    1
   137    93   120    1
   138    93   121    1
   139    93   122    1
   140    94   123    1
   141    94   124    1
   142    94   125    1
   143    96    97    1
   144    98    99    1
   145    98   100    1
   146    99   126    1
   147    99   127    1
   148    99   128    1
   149   100   129    1
   150   100   130    1
   151   100   131    1
   152   132   133    1
   153   132   166    1
   154   132   167    1
   155   132   168    1
   156   133   134    1
   157   133   162    1
   158   133   163    1
   159   134   135    1
   160   134   169    1
   161   134   170    1
   162   135   136    1
   163   135   171    1
   164   135   172    1
   165   136   137    1
   166   136   163    1
   167   136   173    1
   168   137   138    1
   169   137   162    2
   170   138   139    2
   171   139   140    1
   172   140   141    1
   173   140   161    2
   174   141   142    1
   175   141   160    2
   176   142   143    2
   177   142   174    1
   178   143   144    1
   179   143   175    1
   180   144   145    2
   181   144   176    1
   182   145   146    1
   183   145   160    1
   184   146   147    1
   185   146   151    2
   186   147   148    2
   187   148   149    1
   188   149   150    2
   189   149   156    1
   190   150   151    1
   191   150   152    1
   192   152   153    1
   193   152   154    1
   194   152   157    1
   195   153   177    1
   196   153   178    1
   197   153   179    1
   198   154   155    1
   199   154   180    1
   200   154   181    1
   201   155   156    1
   202   155   182    1
   203   155   183    1
   204   156   157    1
   205   156   184    1
   206   157   158    1
   207   157   159    1
   208   158   185    1
   209   158   186    1
   210   158   187    1
   211   159   188    1
   212   159   189    1
   213   159   190    1
   214   161   162    1
   215   163   164    1
   216   163   165    1
   217   164   191    1
   218   164   192    1
   219   164   193    1
   220   165   194    1
   221   165   195    1
   222   165   196    1
@<TRIPOS>SUBSTRUCTURE
     1 RES1      196 GROUP             0 ****  ****    0  
