@<TRIPOS>MOLECULE
am_c3_9H2O_c0_0_nunpairedes_0_charge_1 Charge: 1 Unpaired_Electrons: 0 XTB_Unpaired_Electrons: 0 XTB_Charge: 1
   122   135     1     0     0
SMALL
NoCharges
****
Generated from Architector

@<TRIPOS>ATOM
     1 La1      -0.0381    0.0193   -0.1882   La        1 RES1   0.0000
     2 C1        4.2067    3.6155   -4.2301   C.3       1 RES1   0.0000
     3 C2        3.0855    3.1424   -5.1462   C.3       1 RES1   0.0000
     4 C3        1.7933    2.8783   -4.3763   C.3       1 RES1   0.0000
     5 C4        0.6479    2.5040   -5.3181   C.3       1 RES1   0.0000
     6 C5       -0.6504    2.0942   -4.6206   C.3       1 RES1   0.0000
     7 C6       -1.3831    3.2077   -3.8576   C.3       1 RES1   0.0000
     8 N1       -0.6312    3.7361   -2.7258   N.ar      1 RES1   0.0000
     9 C7       -0.2953    5.0676   -2.5865   C.ar      1 RES1   0.0000
    10 C8       -0.8075    6.0417   -3.5808   C.ar      1 RES1   0.0000
    11 C9       -0.3944    6.0137   -4.9119   C.ar      1 RES1   0.0000
    12 C10      -0.8770    6.9396   -5.8186   C.ar      1 RES1   0.0000
    13 C11      -1.7677    7.9161   -5.4085   C.ar      1 RES1   0.0000
    14 C12      -2.1523    7.9759   -4.0795   C.ar      1 RES1   0.0000
    15 C13      -1.6817    7.0452   -3.1700   C.ar      1 RES1   0.0000
    16 C14       0.4576    5.5198   -1.5284   C.ar      1 RES1   0.0000
    17 C15       0.7778    6.9540   -1.3807   C.ar      1 RES1   0.0000
    18 C16       0.4736    7.6103   -0.1901   C.ar      1 RES1   0.0000
    19 C17       0.8012    8.9435   -0.0217   C.ar      1 RES1   0.0000
    20 C18       1.4340    9.6347   -1.0407   C.ar      1 RES1   0.0000
    21 C19       1.7475    8.9860   -2.2241   C.ar      1 RES1   0.0000
    22 C20       1.4223    7.6528   -2.3974   C.ar      1 RES1   0.0000
    23 C21       0.9997    4.5889   -0.5840   C.ar      1 RES1   0.0000
    24 C22       1.8779    4.8813    0.4752   C.ar      1 RES1   0.0000
    25 C23       2.3680    3.8476    1.2743   C.ar      1 RES1   0.0000
    26 C24       3.2449    3.9868    2.4067   C.ar      1 RES1   0.0000
    27 C25       3.7565    2.9168    3.0640   C.ar      1 RES1   0.0000
    28 C26       3.4707    1.5647    2.6646   C.ar      1 RES1   0.0000
    29 C27       4.0547    0.4127    3.1845   C.ar      1 RES1   0.0000
    30 C28       3.7306   -0.8387    2.6305   C.ar      1 RES1   0.0000
    31 C29       4.3997   -2.0752    2.8918   C.ar      1 RES1   0.0000
    32 C30       5.5759   -2.0959    3.7805   C.ar      1 RES1   0.0000
    33 C31       5.6590   -3.0024    4.8334   C.ar      1 RES1   0.0000
    34 C32       6.7809   -3.0320    5.6400   C.ar      1 RES1   0.0000
    35 C33       7.8246   -2.1492    5.4125   C.ar      1 RES1   0.0000
    36 C34       7.7341   -1.2194    4.3896   C.ar      1 RES1   0.0000
    37 C35       6.6190   -1.1970    3.5721   C.ar      1 RES1   0.0000
    38 C36       3.9949   -3.2223    2.2516   C.ar      1 RES1   0.0000
    39 C37       4.8441   -4.4311    2.3762   C.ar      1 RES1   0.0000
    40 C38       4.4086   -5.6049    2.9859   C.ar      1 RES1   0.0000
    41 C39       5.2401   -6.7078    3.0566   C.ar      1 RES1   0.0000
    42 C40       6.5266   -6.6423    2.5511   C.ar      1 RES1   0.0000
    43 C41       6.9886   -5.4574    2.0036   C.ar      1 RES1   0.0000
    44 C42       6.1536   -4.3604    1.9049   C.ar      1 RES1   0.0000
    45 N2        2.8881   -3.2579    1.4296   N.ar      1 RES1   0.0000
    46 C43       2.5086   -4.4638    0.6949   C.3       1 RES1   0.0000
    47 C44       1.1071   -5.0035    1.0038   C.3       1 RES1   0.0000
    48 C45       0.9092   -5.4837    2.4417   C.3       1 RES1   0.0000
    49 C46      -0.4965   -6.0621    2.6737   C.3       1 RES1   0.0000
    50 C47      -1.4858   -5.0775    3.2936   C.3       1 RES1   0.0000
    51 C48      -1.8761   -3.9466    2.3532   C.3       1 RES1   0.0000
    52 C49       2.1818   -2.1319    1.1342   C.ar      1 RES1   0.0000
    53 O1        1.1961   -2.1472    0.3777   O.2       1 RES1   0.0000
    54 C50       2.6668   -0.8827    1.7037   C.ar      1 RES1   0.0000
    55 N3        2.0753    0.2066    1.2305   N.ar      1 RES1   0.0000
    56 C51       2.5208    1.3926    1.6261   C.ar      1 RES1   0.0000
    57 C52       1.9833    2.5279    0.9310   C.ar      1 RES1   0.0000
    58 N4        1.1479    2.2427   -0.0546   N.ar      1 RES1   0.0000
    59 C53       0.6406    3.2356   -0.7661   C.ar      1 RES1   0.0000
    60 C54      -0.3098    2.8180   -1.7817   C.ar      1 RES1   0.0000
    61 O2       -0.7845    1.6667   -1.7920   O.2       1 RES1   0.0000
    62 H1        5.1083    3.8139   -4.8035   H         1 RES1   0.0000
    63 H2        4.4371    2.8587   -3.4842   H         1 RES1   0.0000
    64 H3        3.9258    4.5300   -3.7107   H         1 RES1   0.0000
    65 H4        3.3971    2.2311   -5.6567   H         1 RES1   0.0000
    66 H5        2.8997    3.9011   -5.9100   H         1 RES1   0.0000
    67 H6        1.5505    3.7806   -3.8125   H         1 RES1   0.0000
    68 H7        1.9575    2.0710   -3.6572   H         1 RES1   0.0000
    69 H8        0.9743    1.6557   -5.9219   H         1 RES1   0.0000
    70 H9        0.4489    3.3259   -6.0095   H         1 RES1   0.0000
    71 H10      -0.4443    1.2589   -3.9515   H         1 RES1   0.0000
    72 H11      -1.3557    1.7325   -5.3727   H         1 RES1   0.0000
    73 H12      -2.3118    2.7958   -3.4521   H         1 RES1   0.0000
    74 H13      -1.6148    4.0262   -4.5318   H         1 RES1   0.0000
    75 H14       0.3273    5.2826   -5.2370   H         1 RES1   0.0000
    76 H15      -0.5487    6.9023   -6.8463   H         1 RES1   0.0000
    77 H16      -2.1612    8.6266   -6.1200   H         1 RES1   0.0000
    78 H17      -2.8183    8.7589   -3.7524   H         1 RES1   0.0000
    79 H18      -1.9928    7.0942   -2.1382   H         1 RES1   0.0000
    80 H19      -0.0334    7.0718    0.5983   H         1 RES1   0.0000
    81 H20       0.5709    9.4399    0.9095   H         1 RES1   0.0000
    82 H21       1.6840   10.6765   -0.9157   H         1 RES1   0.0000
    83 H22       2.2594    9.5201   -3.0100   H         1 RES1   0.0000
    84 H23       1.6849    7.1453   -3.3145   H         1 RES1   0.0000
    85 H24       2.1801    5.9026    0.6532   H         1 RES1   0.0000
    86 H25       3.4930    4.9894    2.7195   H         1 RES1   0.0000
    87 H26       4.4116    3.0600    3.9098   H         1 RES1   0.0000
    88 H27       4.7670    0.4831    3.9927   H         1 RES1   0.0000
    89 H28       4.8403   -3.6795    5.0247   H         1 RES1   0.0000
    90 H29       6.8353   -3.7401    6.4541   H         1 RES1   0.0000
    91 H30       8.7040   -2.1790    6.0383   H         1 RES1   0.0000
    92 H31       8.5332   -0.5098    4.2343   H         1 RES1   0.0000
    93 H32       6.5633   -0.4988    2.7492   H         1 RES1   0.0000
    94 H33       3.4253   -5.6481    3.4250   H         1 RES1   0.0000
    95 H34       4.8821   -7.6154    3.5180   H         1 RES1   0.0000
    96 H35       7.1726   -7.5044    2.5968   H         1 RES1   0.0000
    97 H36       8.0076   -5.3853    1.6598   H         1 RES1   0.0000
    98 H37       6.5120   -3.4434    1.4626   H         1 RES1   0.0000
    99 H38       3.2555   -5.2274    0.9000   H         1 RES1   0.0000
   100 H39       2.5472   -4.2109   -0.3691   H         1 RES1   0.0000
   101 H40       0.9600   -5.8524    0.3331   H         1 RES1   0.0000
   102 H41       0.3603   -4.2555    0.7466   H         1 RES1   0.0000
   103 H42       1.0902   -4.6656    3.1458   H         1 RES1   0.0000
   104 H43       1.6417   -6.2688    2.6389   H         1 RES1   0.0000
   105 H44      -0.4254   -6.9241    3.3394   H         1 RES1   0.0000
   106 H45      -0.8936   -6.4204    1.7228   H         1 RES1   0.0000
   107 H46      -1.0570   -4.6636    4.2091   H         1 RES1   0.0000
   108 H47      -2.3880   -5.6202    3.5796   H         1 RES1   0.0000
   109 H48      -0.9964   -3.3754    2.0705   H         1 RES1   0.0000
   110 H49      -2.5987   -3.2997    2.8463   H         1 RES1   0.0000
   111 H50      -2.3300   -4.3454    1.4505   H         1 RES1   0.0000
   112 N5       -2.2431    0.9369    0.8613   N.3       1 RES1   0.0000
   113 O3       -3.2284    1.3168    1.4146   O.2       1 RES1   0.0000
   114 O4       -2.2472   -0.0741    0.1446   O.co2     1 RES1   0.0000
   115 O5       -1.1595    1.5275    1.0094   O.co2     1 RES1   0.0000
   116 N6        0.4556   -0.9897   -2.4622   N.3       1 RES1   0.0000
   117 O6        0.5572   -1.3196   -3.6008   O.2       1 RES1   0.0000
   118 O7       -0.4795   -1.3801   -1.7507   O.co2     1 RES1   0.0000
   119 O8        1.2936   -0.2360   -1.9282   O.co2     1 RES1   0.0000
   120 O9       -0.8002   -0.9689    2.2022   O.3       1 RES1   0.0000
   121 H51      -1.4789   -1.5765    1.8572   H         1 RES1   0.0000
   122 H52      -1.1344   -0.6774    3.0625   H         1 RES1   0.0000
@<TRIPOS>BOND
     1     1    53    1
     2     1    55    1
     3     1    58    1
     4     1    61    1
     5     1   114    1
     6     1   115    1
     7     1   118    1
     8     1   119    1
     9     1   120    1
    10     2     3    1
    11     2    62    1
    12     2    63    1
    13     2    64    1
    14     3     4    1
    15     3    65    1
    16     3    66    1
    17     4     5    1
    18     4    67    1
    19     4    68    1
    20     5     6    1
    21     5    69    1
    22     5    70    1
    23     6     7    1
    24     6    71    1
    25     6    72    1
    26     7     8    1
    27     7    73    1
    28     7    74    1
    29     8     9    1
    30     8    60    1
    31     9    10    1
    32     9    16    2
    33    10    11    1
    34    10    15    2
    35    11    12    2
    36    11    75    1
    37    12    13    1
    38    12    76    1
    39    13    14    2
    40    13    77    1
    41    14    15    1
    42    14    78    1
    43    15    79    1
    44    16    17    1
    45    16    23    1
    46    17    18    1
    47    17    22    2
    48    18    19    2
    49    18    80    1
    50    19    20    1
    51    19    81    1
    52    20    21    2
    53    20    82    1
    54    21    22    1
    55    21    83    1
    56    22    84    1
    57    23    24    1
    58    23    59    2
    59    24    25    2
    60    24    85    1
    61    25    26    1
    62    25    57    1
    63    26    27    2
    64    26    86    1
    65    27    28    1
    66    27    87    1
    67    28    29    1
    68    28    56    2
    69    29    30    2
    70    29    88    1
    71    30    31    1
    72    30    54    1
    73    31    32    1
    74    31    38    2
    75    32    33    1
    76    32    37    2
    77    33    34    2
    78    33    89    1
    79    34    35    1
    80    34    90    1
    81    35    36    2
    82    35    91    1
    83    36    37    1
    84    36    92    1
    85    37    93    1
    86    38    39    1
    87    38    45    1
    88    39    40    1
    89    39    44    2
    90    40    41    2
    91    40    94    1
    92    41    42    1
    93    41    95    1
    94    42    43    2
    95    42    96    1
    96    43    44    1
    97    43    97    1
    98    44    98    1
    99    45    46    1
   100    45    52    1
   101    46    47    1
   102    46    99    1
   103    46   100    1
   104    47    48    1
   105    47   101    1
   106    47   102    1
   107    48    49    1
   108    48   103    1
   109    48   104    1
   110    49    50    1
   111    49   105    1
   112    49   106    1
   113    50    51    1
   114    50   107    1
   115    50   108    1
   116    51   109    1
   117    51   110    1
   118    51   111    1
   119    52    53    2
   120    52    54    1
   121    54    55    2
   122    55    56    1
   123    56    57    1
   124    57    58    2
   125    58    59    1
   126    59    60    1
   127    60    61    2
   128   112   113    2
   129   112   114    1
   130   112   115    1
   131   116   117    2
   132   116   118    1
   133   116   119    1
   134   120   121    1
   135   120   122    1
@<TRIPOS>SUBSTRUCTURE
     1 RES1      122 GROUP             0 ****  ****    0  
