@<TRIPOS>MOLECULE
capped_square_antiprismatic_0_nunpairedes_0_charge_3 Charge: 3 Unpaired_Electrons: 7 XTB_Unpaired_Electrons: 0 XTB_Charge: 3
   284   291     1     0     0
SMALL
NoCharges
****
Generated from Architector

@<TRIPOS>ATOM
     1 Gd1      -0.1267    0.0786   -0.0039   Gd        1 RES1   0.0000
     2 C1       -5.3751   -4.2265   -6.3783   C.3       1 RES1   0.0000
     3 C2       -4.0083   -4.8452   -6.0919   C.3       1 RES1   0.0000
     4 C3       -3.9180   -5.6260   -4.7698   C.3       1 RES1   0.0000
     5 C4       -3.3521   -4.8385   -3.5818   C.3       1 RES1   0.0000
     6 C5       -4.4028   -3.9986   -2.8633   C.3       1 RES1   0.0000
     7 C6       -3.7976   -3.1581   -1.7390   C.3       1 RES1   0.0000
     8 C7       -4.8349   -2.1957   -1.1561   C.3       1 RES1   0.0000
     9 C8       -4.7977   -0.8324   -1.8420   C.3       1 RES1   0.0000
    10 P1       -3.5182    0.3707   -1.2795   P.3       1 RES1   0.0000
    11 O1       -2.0788   -0.0209   -1.3725   O.2       1 RES1   0.0000
    12 C9       -4.0384    0.5603    0.4921   C.3       1 RES1   0.0000
    13 C10      -3.1511    1.4587    1.3108   C.2       1 RES1   0.0000
    14 O2       -1.9136    1.3509    1.1819   O.2       1 RES1   0.0000
    15 N1       -3.7229    2.2807    2.2013   N.am      1 RES1   0.0000
    16 C11      -2.8847    3.1370    3.0311   C.3       1 RES1   0.0000
    17 C12      -3.1490    3.1273    4.5558   C.3       1 RES1   0.0000
    18 C13      -3.6981    1.7934    5.0446   C.3       1 RES1   0.0000
    19 C14      -4.0278    4.2846    5.0302   C.3       1 RES1   0.0000
    20 C15      -5.1612    2.4983    2.2596   C.3       1 RES1   0.0000
    21 C16      -5.7064    3.2343    1.0244   C.3       1 RES1   0.0000
    22 C17      -7.1803    2.8777    0.8622   C.3       1 RES1   0.0000
    23 C18      -5.5463    4.7449    1.1562   C.3       1 RES1   0.0000
    24 C19      -3.8716    1.7814   -2.3614   C.ar      1 RES1   0.0000
    25 C20      -2.8774    2.0643   -3.2897   C.ar      1 RES1   0.0000
    26 C21      -3.1066    2.9795   -4.3011   C.ar      1 RES1   0.0000
    27 C22      -4.3333    3.6191   -4.3783   C.ar      1 RES1   0.0000
    28 C23      -5.3221    3.3423   -3.4482   C.ar      1 RES1   0.0000
    29 C24      -5.1048    2.4096   -2.4499   C.ar      1 RES1   0.0000
    30 H1       -5.3702   -3.7800   -7.3707   H         1 RES1   0.0000
    31 H2       -5.6368   -3.4524   -5.6599   H         1 RES1   0.0000
    32 H3       -6.1498   -4.9899   -6.3580   H         1 RES1   0.0000
    33 H4       -3.2392   -4.0688   -6.1040   H         1 RES1   0.0000
    34 H5       -3.7836   -5.5303   -6.9130   H         1 RES1   0.0000
    35 H6       -3.2681   -6.4881   -4.9312   H         1 RES1   0.0000
    36 H7       -4.9052   -6.0122   -4.5097   H         1 RES1   0.0000
    37 H8       -2.5312   -4.2018   -3.9248   H         1 RES1   0.0000
    38 H9       -2.9259   -5.5466   -2.8650   H         1 RES1   0.0000
    39 H10      -5.1577   -4.6677   -2.4452   H         1 RES1   0.0000
    40 H11      -4.9158   -3.3521   -3.5757   H         1 RES1   0.0000
    41 H12      -2.9461   -2.5801   -2.1114   H         1 RES1   0.0000
    42 H13      -3.4421   -3.8365   -0.9618   H         1 RES1   0.0000
    43 H14      -4.7039   -2.0876   -0.0780   H         1 RES1   0.0000
    44 H15      -5.8290   -2.6223   -1.3048   H         1 RES1   0.0000
    45 H16      -5.7471   -0.3120   -1.6958   H         1 RES1   0.0000
    46 H17      -4.6828   -0.9585   -2.9173   H         1 RES1   0.0000
    47 H18      -3.8521   -0.4547    0.8575   H         1 RES1   0.0000
    48 H19      -5.0967    0.7740    0.5551   H         1 RES1   0.0000
    49 H20      -2.9883    4.1659    2.6804   H         1 RES1   0.0000
    50 H21      -1.8648    2.7998    2.8376   H         1 RES1   0.0000
    51 H22      -2.1684    3.2811    5.0235   H         1 RES1   0.0000
    52 H23      -4.7475    1.6849    4.7903   H         1 RES1   0.0000
    53 H24      -3.6141    1.7464    6.1265   H         1 RES1   0.0000
    54 H25      -3.1389    0.9756    4.6027   H         1 RES1   0.0000
    55 H26      -5.0533    4.1950    4.6858   H         1 RES1   0.0000
    56 H27      -3.6301    5.2402    4.6991   H         1 RES1   0.0000
    57 H28      -4.0566    4.2934    6.1160   H         1 RES1   0.0000
    58 H29      -5.3718    3.1106    3.1320   H         1 RES1   0.0000
    59 H30      -5.6764    1.5434    2.4076   H         1 RES1   0.0000
    60 H31      -5.1285    2.9203    0.1491   H         1 RES1   0.0000
    61 H32      -7.7194    3.1737    1.7582   H         1 RES1   0.0000
    62 H33      -7.3278    1.8084    0.7136   H         1 RES1   0.0000
    63 H34      -7.6085    3.4133    0.0218   H         1 RES1   0.0000
    64 H35      -6.0529    5.1058    2.0465   H         1 RES1   0.0000
    65 H36      -5.9965    5.2311    0.2960   H         1 RES1   0.0000
    66 H37      -4.4982    5.0326    1.2007   H         1 RES1   0.0000
    67 H38      -1.9320    1.5547   -3.1792   H         1 RES1   0.0000
    68 H39      -2.3444    3.1988   -5.0303   H         1 RES1   0.0000
    69 H40      -4.5266    4.3204   -5.1731   H         1 RES1   0.0000
    70 H41      -6.2731    3.8426   -3.5141   H         1 RES1   0.0000
    71 H42      -5.9011    2.1746   -1.7599   H         1 RES1   0.0000
    72 C25       5.8097    1.8453   -0.2697   C.3       1 RES1   0.0000
    73 C26       6.8937    1.2715   -1.1786   C.3       1 RES1   0.0000
    74 C27       7.0385   -0.2490   -1.0953   C.3       1 RES1   0.0000
    75 C28       5.8354   -1.0108   -1.6588   C.3       1 RES1   0.0000
    76 C29       6.0340   -2.5236   -1.5641   C.3       1 RES1   0.0000
    77 C30       5.0192   -3.3660   -2.3465   C.3       1 RES1   0.0000
    78 C31       3.6880   -3.6826   -1.6464   C.3       1 RES1   0.0000
    79 C32       2.6687   -2.5478   -1.7144   C.3       1 RES1   0.0000
    80 P2        0.9314   -3.0946   -1.4796   P.3       1 RES1   0.0000
    81 O3       -0.0613   -1.9695   -1.4063   O.2       1 RES1   0.0000
    82 C33       0.8281   -4.1150    0.0669   C.3       1 RES1   0.0000
    83 C34       1.4600   -3.2845    1.1602   C.2       1 RES1   0.0000
    84 O4        1.3889   -2.0472    1.0628   O.2       1 RES1   0.0000
    85 N2        2.1400   -3.9312    2.1230   N.am      1 RES1   0.0000
    86 C35       2.1927   -5.3914    2.2092   C.3       1 RES1   0.0000
    87 C36       0.8511   -6.0996    2.4600   C.3       1 RES1   0.0000
    88 C37       0.1871   -5.6522    3.7581   C.3       1 RES1   0.0000
    89 C38       1.0785   -7.6112    2.4570   C.3       1 RES1   0.0000
    90 C39       3.2315   -3.2169    2.7810   C.3       1 RES1   0.0000
    91 C40       3.3303   -3.1590    4.3147   C.3       1 RES1   0.0000
    92 C41       2.0829   -2.5295    4.9157   C.3       1 RES1   0.0000
    93 C42       3.6866   -4.4686    5.0218   C.3       1 RES1   0.0000
    94 C43       0.5454   -4.2580   -2.8261   C.ar      1 RES1   0.0000
    95 C44       0.7032   -3.8364   -4.1397   C.ar      1 RES1   0.0000
    96 C45       0.3837   -4.6790   -5.1908   C.ar      1 RES1   0.0000
    97 C46      -0.1041   -5.9527   -4.9354   C.ar      1 RES1   0.0000
    98 C47      -0.2500   -6.3825   -3.6316   C.ar      1 RES1   0.0000
    99 C48       0.0747   -5.5428   -2.5801   C.ar      1 RES1   0.0000
   100 H43       5.8536    2.9331   -0.2843   H         1 RES1   0.0000
   101 H44       5.9613    1.5162    0.7570   H         1 RES1   0.0000
   102 H45       4.8140    1.5346   -0.5892   H         1 RES1   0.0000
   103 H46       7.8492    1.7205   -0.8987   H         1 RES1   0.0000
   104 H47       6.6838    1.5524   -2.2124   H         1 RES1   0.0000
   105 H48       7.2250   -0.5287   -0.0557   H         1 RES1   0.0000
   106 H49       7.9236   -0.5325   -1.6685   H         1 RES1   0.0000
   107 H50       5.7245   -0.7394   -2.7096   H         1 RES1   0.0000
   108 H51       4.9220   -0.7125   -1.1420   H         1 RES1   0.0000
   109 H52       6.0411   -2.8454   -0.5200   H         1 RES1   0.0000
   110 H53       7.0230   -2.7487   -1.9684   H         1 RES1   0.0000
   111 H54       5.4953   -4.3227   -2.5672   H         1 RES1   0.0000
   112 H55       4.8101   -2.8809   -3.3016   H         1 RES1   0.0000
   113 H56       3.8792   -3.9478   -0.6040   H         1 RES1   0.0000
   114 H57       3.2560   -4.5607   -2.1393   H         1 RES1   0.0000
   115 H58       2.6916   -2.0942   -2.7079   H         1 RES1   0.0000
   116 H59       2.8787   -1.7511   -0.9992   H         1 RES1   0.0000
   117 H60       1.3692   -5.0439   -0.0832   H         1 RES1   0.0000
   118 H61      -0.2264   -4.3364    0.2467   H         1 RES1   0.0000
   119 H62       2.8571   -5.6328    3.0372   H         1 RES1   0.0000
   120 H63       2.6444   -5.8033    1.2965   H         1 RES1   0.0000
   121 H64       0.1538   -5.8732    1.6516   H         1 RES1   0.0000
   122 H65       0.7848   -5.9345    4.6206   H         1 RES1   0.0000
   123 H66      -0.7834   -6.1334    3.8506   H         1 RES1   0.0000
   124 H67       0.0390   -4.5737    3.7572   H         1 RES1   0.0000
   125 H68       1.7821   -7.9116    3.2290   H         1 RES1   0.0000
   126 H69       1.4548   -7.9485    1.4937   H         1 RES1   0.0000
   127 H70       0.1359   -8.1166    2.6431   H         1 RES1   0.0000
   128 H71       3.1597   -2.1902    2.4205   H         1 RES1   0.0000
   129 H72       4.1697   -3.6470    2.4113   H         1 RES1   0.0000
   130 H73       4.1711   -2.4776    4.4874   H         1 RES1   0.0000
   131 H74       1.2565   -3.2301    4.8679   H         1 RES1   0.0000
   132 H75       1.8134   -1.6296    4.3642   H         1 RES1   0.0000
   133 H76       2.2594   -2.2786    5.9570   H         1 RES1   0.0000
   134 H77       2.8255   -5.1216    5.1317   H         1 RES1   0.0000
   135 H78       4.0518   -4.2528    6.0232   H         1 RES1   0.0000
   136 H79       4.4819   -4.9982    4.5009   H         1 RES1   0.0000
   137 H80       1.0799   -2.8419   -4.3398   H         1 RES1   0.0000
   138 H81       0.5157   -4.3550   -6.2094   H         1 RES1   0.0000
   139 H82      -0.3618   -6.6097   -5.7500   H         1 RES1   0.0000
   140 H83      -0.6145   -7.3744   -3.4188   H         1 RES1   0.0000
   141 H84      -0.0439   -5.9148   -1.5768   H         1 RES1   0.0000
   142 C49       6.6210    6.7470   -0.2449   C.3       1 RES1   0.0000
   143 C50       6.1577    5.9851   -1.4823   C.3       1 RES1   0.0000
   144 C51       4.6614    6.1460   -1.7712   C.3       1 RES1   0.0000
   145 C52       3.7462    5.1360   -1.0786   C.3       1 RES1   0.0000
   146 C53       3.6092    5.2508    0.4417   C.3       1 RES1   0.0000
   147 C54       2.2536    4.6780    0.8613   C.3       1 RES1   0.0000
   148 C55       2.0565    4.4849    2.3640   C.3       1 RES1   0.0000
   149 C56       2.7649    3.2257    2.8503   C.3       1 RES1   0.0000
   150 P3        1.9446    1.6071    2.4846   P.3       1 RES1   0.0000
   151 O5        1.4004    1.4662    1.0989   O.2       1 RES1   0.0000
   152 C57       0.6209    1.3960    3.7874   C.3       1 RES1   0.0000
   153 C58      -0.1682    0.1149    3.5754   C.2       1 RES1   0.0000
   154 O6       -0.1986   -0.4092    2.4485   O.2       1 RES1   0.0000
   155 N3       -0.7963   -0.4250    4.6312   N.am      1 RES1   0.0000
   156 C59      -1.2804   -1.8033    4.5259   C.3       1 RES1   0.0000
   157 C60      -2.7890   -2.1306    4.5948   C.3       1 RES1   0.0000
   158 C61      -3.5735   -1.5201    3.4333   C.3       1 RES1   0.0000
   159 C62      -3.4579   -1.8286    5.9367   C.3       1 RES1   0.0000
   160 C63      -0.8475    0.2337    5.9340   C.3       1 RES1   0.0000
   161 C64       0.3150   -0.0389    6.9163   C.3       1 RES1   0.0000
   162 C65       0.4362    1.1625    7.8567   C.3       1 RES1   0.0000
   163 C66       0.0856   -1.2991    7.7510   C.3       1 RES1   0.0000
   164 C67       3.3471    0.5100    2.8167   C.ar      1 RES1   0.0000
   165 C68       3.9173   -0.1489    1.7388   C.ar      1 RES1   0.0000
   166 C69       5.1352   -0.7939    1.8944   C.ar      1 RES1   0.0000
   167 C70       5.7991   -0.7533    3.1106   C.ar      1 RES1   0.0000
   168 C71       5.2246   -0.0992    4.1893   C.ar      1 RES1   0.0000
   169 C72       4.0029    0.5291    4.0442   C.ar      1 RES1   0.0000
   170 H85       7.7016    6.6749   -0.1451   H         1 RES1   0.0000
   171 H86       6.1675    6.3538    0.6617   H         1 RES1   0.0000
   172 H87       6.3577    7.7993   -0.3354   H         1 RES1   0.0000
   173 H88       6.4040    4.9236   -1.3805   H         1 RES1   0.0000
   174 H89       6.7134    6.3651   -2.3428   H         1 RES1   0.0000
   175 H90       4.5067    6.0351   -2.8494   H         1 RES1   0.0000
   176 H91       4.3488    7.1566   -1.5035   H         1 RES1   0.0000
   177 H92       4.0962    4.1289   -1.3217   H         1 RES1   0.0000
   178 H93       2.7489    5.2669   -1.5072   H         1 RES1   0.0000
   179 H94       3.6522    6.3005    0.7351   H         1 RES1   0.0000
   180 H95       4.4312    4.7279    0.9299   H         1 RES1   0.0000
   181 H96       2.0831    3.7078    0.3852   H         1 RES1   0.0000
   182 H97       1.5041    5.3798    0.4952   H         1 RES1   0.0000
   183 H98       0.9886    4.4121    2.5838   H         1 RES1   0.0000
   184 H99       2.4467    5.3520    2.9006   H         1 RES1   0.0000
   185 H100      2.9408    3.2590    3.9270   H         1 RES1   0.0000
   186 H101      3.7496    3.1687    2.3782   H         1 RES1   0.0000
   187 H102     -0.0378    2.2648    3.6914   H         1 RES1   0.0000
   188 H103      1.0704    1.4108    4.7780   H         1 RES1   0.0000
   189 H104     -0.7956   -2.3671    5.3241   H         1 RES1   0.0000
   190 H105     -0.9105   -2.1596    3.5600   H         1 RES1   0.0000
   191 H106     -2.8224   -3.2214    4.4888   H         1 RES1   0.0000
   192 H107     -3.1837   -0.5394    3.1797   H         1 RES1   0.0000
   193 H108     -4.6193   -1.4252    3.7092   H         1 RES1   0.0000
   194 H109     -3.5122   -2.1468    2.5480   H         1 RES1   0.0000
   195 H110     -3.7224   -0.7808    6.0338   H         1 RES1   0.0000
   196 H111     -2.8202   -2.1268    6.7636   H         1 RES1   0.0000
   197 H112     -4.3765   -2.4048    6.0216   H         1 RES1   0.0000
   198 H113     -1.7673   -0.0764    6.4238   H         1 RES1   0.0000
   199 H114     -0.9123    1.3080    5.7544   H         1 RES1   0.0000
   200 H115      1.2492   -0.1500    6.3548   H         1 RES1   0.0000
   201 H116     -0.4908    1.3191    8.4037   H         1 RES1   0.0000
   202 H117      0.6720    2.0767    7.3152   H         1 RES1   0.0000
   203 H118      1.2218    0.9807    8.5832   H         1 RES1   0.0000
   204 H119     -0.8486   -1.2203    8.3021   H         1 RES1   0.0000
   205 H120      0.8868   -1.4148    8.4763   H         1 RES1   0.0000
   206 H121      0.0624   -2.1981    7.1411   H         1 RES1   0.0000
   207 H122      3.3879   -0.1483    0.7926   H         1 RES1   0.0000
   208 H123      5.5697   -1.3257    1.0692   H         1 RES1   0.0000
   209 H124      6.7626   -1.2240    3.2201   H         1 RES1   0.0000
   210 H125      5.7361   -0.0707    5.1379   H         1 RES1   0.0000
   211 H126      3.5716    1.0445    4.8888   H         1 RES1   0.0000
   212 C73      -3.0034   -1.3776   -4.9886   C.3       1 RES1   0.0000
   213 C74      -3.7171   -0.8473   -6.2284   C.3       1 RES1   0.0000
   214 C75      -2.9955    0.3521   -6.8386   C.3       1 RES1   0.0000
   215 C76      -1.5233    0.0593   -7.1076   C.3       1 RES1   0.0000
   216 C77      -0.7337    1.3120   -7.4748   C.3       1 RES1   0.0000
   217 C78       0.7510    1.1861   -7.1242   C.3       1 RES1   0.0000
   218 C79       1.1048    1.7194   -5.7322   C.3       1 RES1   0.0000
   219 C80       0.6860    0.8305   -4.5551   C.3       1 RES1   0.0000
   220 P4        1.7819    1.1160   -3.1005   P.3       1 RES1   0.0000
   221 O7        1.4839    0.2641   -1.8988   O.2       1 RES1   0.0000
   222 C81       1.6348    2.9074   -2.6834   C.3       1 RES1   0.0000
   223 C82       0.2879    3.1989   -2.0635   C.2       1 RES1   0.0000
   224 O8       -0.1483    2.4190   -1.1996   O.2       1 RES1   0.0000
   225 N4       -0.3658    4.3171   -2.4381   N.am      1 RES1   0.0000
   226 C83      -0.1119    4.9708   -3.7340   C.3       1 RES1   0.0000
   227 C84       1.1157    5.8760   -3.9656   C.3       1 RES1   0.0000
   228 C85       1.0315    7.1995   -3.2204   C.3       1 RES1   0.0000
   229 C86       1.1914    6.1555   -5.4712   C.3       1 RES1   0.0000
   230 C87      -1.6919    4.5424   -1.8519   C.3       1 RES1   0.0000
   231 C88      -1.8021    5.3947   -0.5754   C.3       1 RES1   0.0000
   232 C89      -1.2358    4.6208    0.6080   C.3       1 RES1   0.0000
   233 C90      -1.2061    6.7947   -0.6628   C.3       1 RES1   0.0000
   234 C91       3.4509    0.8864   -3.8244   C.ar      1 RES1   0.0000
   235 C92       3.6872   -0.2889   -4.5314   C.ar      1 RES1   0.0000
   236 C93       4.8746   -0.4905   -5.2140   C.ar      1 RES1   0.0000
   237 C94       5.8495    0.4971   -5.2027   C.ar      1 RES1   0.0000
   238 C95       5.6237    1.6687   -4.5050   C.ar      1 RES1   0.0000
   239 C96       4.4334    1.8702   -3.8235   C.ar      1 RES1   0.0000
   240 H127     -2.7510   -0.5661   -4.3041   H         1 RES1   0.0000
   241 H128     -3.6396   -2.0895   -4.4788   H         1 RES1   0.0000
   242 H129     -2.0841   -1.8951   -5.2546   H         1 RES1   0.0000
   243 H130     -4.7324   -0.5435   -5.9593   H         1 RES1   0.0000
   244 H131     -3.7952   -1.6506   -6.9622   H         1 RES1   0.0000
   245 H132     -3.0785    1.1926   -6.1443   H         1 RES1   0.0000
   246 H133     -3.4916    0.6398   -7.7650   H         1 RES1   0.0000
   247 H134     -1.4347   -0.6776   -7.9075   H         1 RES1   0.0000
   248 H135     -1.0857   -0.3712   -6.2098   H         1 RES1   0.0000
   249 H136     -1.1452    2.1750   -6.9482   H         1 RES1   0.0000
   250 H137     -0.8520    1.5076   -8.5385   H         1 RES1   0.0000
   251 H138      1.3402    1.7505   -7.8469   H         1 RES1   0.0000
   252 H139      1.0651    0.1450   -7.2008   H         1 RES1   0.0000
   253 H140      0.6496    2.7042   -5.6228   H         1 RES1   0.0000
   254 H141      2.1873    1.8640   -5.6972   H         1 RES1   0.0000
   255 H142      0.7837   -0.2247   -4.8196   H         1 RES1   0.0000
   256 H143     -0.3533    0.9925   -4.2702   H         1 RES1   0.0000
   257 H144      1.8625    3.4954   -3.5625   H         1 RES1   0.0000
   258 H145      2.3888    3.0866   -1.9116   H         1 RES1   0.0000
   259 H146     -0.9869    5.5866   -3.9481   H         1 RES1   0.0000
   260 H147     -0.0692    4.1834   -4.4949   H         1 RES1   0.0000
   261 H148      2.0414    5.3820   -3.6625   H         1 RES1   0.0000
   262 H149      0.0862    7.6904   -3.4291   H         1 RES1   0.0000
   263 H150      1.8353    7.8498   -3.5521   H         1 RES1   0.0000
   264 H151      1.1275    7.0592   -2.1495   H         1 RES1   0.0000
   265 H152      0.2811    6.6434   -5.8107   H         1 RES1   0.0000
   266 H153      1.3391    5.2525   -6.0611   H         1 RES1   0.0000
   267 H154      2.0235    6.8209   -5.6783   H         1 RES1   0.0000
   268 H155     -2.1035    3.5621   -1.5846   H         1 RES1   0.0000
   269 H156     -2.3268    4.9799   -2.6234   H         1 RES1   0.0000
   270 H157     -2.8828    5.5116   -0.4279   H         1 RES1   0.0000
   271 H158     -0.1997    4.3635    0.4332   H         1 RES1   0.0000
   272 H159     -1.7722    3.6851    0.7276   H         1 RES1   0.0000
   273 H160     -1.2971    5.2138    1.5181   H         1 RES1   0.0000
   274 H161     -0.1237    6.7559   -0.5924   H         1 RES1   0.0000
   275 H162     -1.5743    7.4095    0.1566   H         1 RES1   0.0000
   276 H163     -1.4803    7.2834   -1.5931   H         1 RES1   0.0000
   277 H164      2.9217   -1.0523   -4.5642   H         1 RES1   0.0000
   278 H165      5.0360   -1.4007   -5.7688   H         1 RES1   0.0000
   279 H166      6.7701    0.3583   -5.7462   H         1 RES1   0.0000
   280 H167      6.3671    2.4502   -4.5041   H         1 RES1   0.0000
   281 H168      4.2928    2.8059   -3.3075   H         1 RES1   0.0000
   282 O9       -1.8294   -1.8652    0.6724   O.3       1 RES1   0.0000
   283 H169     -1.7474   -2.2732   -0.2086   H         1 RES1   0.0000
   284 H170     -1.5368   -2.5170    1.3244   H         1 RES1   0.0000
@<TRIPOS>BOND
     1     1    11    1
     2     1    14    1
     3     1    81    1
     4     1    84    1
     5     1   151    1
     6     1   154    1
     7     1   221    1
     8     1   224    1
     9     1   282    1
    10     2     3    1
    11     2    30    1
    12     2    31    1
    13     2    32    1
    14     3     4    1
    15     3    33    1
    16     3    34    1
    17     4     5    1
    18     4    35    1
    19     4    36    1
    20     5     6    1
    21     5    37    1
    22     5    38    1
    23     6     7    1
    24     6    39    1
    25     6    40    1
    26     7     8    1
    27     7    41    1
    28     7    42    1
    29     8     9    1
    30     8    43    1
    31     8    44    1
    32     9    10    1
    33     9    45    1
    34     9    46    1
    35    10    11    2
    36    10    12    1
    37    10    24    1
    38    12    13    1
    39    12    47    1
    40    12    48    1
    41    13    14    2
    42    13    15    1
    43    15    16    1
    44    15    20    1
    45    16    17    1
    46    16    49    1
    47    16    50    1
    48    17    18    1
    49    17    19    1
    50    17    51    1
    51    18    52    1
    52    18    53    1
    53    18    54    1
    54    19    55    1
    55    19    56    1
    56    19    57    1
    57    20    21    1
    58    20    58    1
    59    20    59    1
    60    21    22    1
    61    21    23    1
    62    21    60    1
    63    22    61    1
    64    22    62    1
    65    22    63    1
    66    23    64    1
    67    23    65    1
    68    23    66    1
    69    24    25    1
    70    24    29    2
    71    25    26    2
    72    25    67    1
    73    26    27    1
    74    26    68    1
    75    27    28    2
    76    27    69    1
    77    28    29    1
    78    28    70    1
    79    29    71    1
    80    72    73    1
    81    72   100    1
    82    72   101    1
    83    72   102    1
    84    73    74    1
    85    73   103    1
    86    73   104    1
    87    74    75    1
    88    74   105    1
    89    74   106    1
    90    75    76    1
    91    75   107    1
    92    75   108    1
    93    76    77    1
    94    76   109    1
    95    76   110    1
    96    77    78    1
    97    77   111    1
    98    77   112    1
    99    78    79    1
   100    78   113    1
   101    78   114    1
   102    79    80    1
   103    79   115    1
   104    79   116    1
   105    80    81    2
   106    80    82    1
   107    80    94    1
   108    82    83    1
   109    82   117    1
   110    82   118    1
   111    83    84    2
   112    83    85    1
   113    85    86    1
   114    85    90    1
   115    86    87    1
   116    86   119    1
   117    86   120    1
   118    87    88    1
   119    87    89    1
   120    87   121    1
   121    88   122    1
   122    88   123    1
   123    88   124    1
   124    89   125    1
   125    89   126    1
   126    89   127    1
   127    90    91    1
   128    90   128    1
   129    90   129    1
   130    91    92    1
   131    91    93    1
   132    91   130    1
   133    92   131    1
   134    92   132    1
   135    92   133    1
   136    93   134    1
   137    93   135    1
   138    93   136    1
   139    94    95    1
   140    94    99    2
   141    95    96    2
   142    95   137    1
   143    96    97    1
   144    96   138    1
   145    97    98    2
   146    97   139    1
   147    98    99    1
   148    98   140    1
   149    99   141    1
   150   142   143    1
   151   142   170    1
   152   142   171    1
   153   142   172    1
   154   143   144    1
   155   143   173    1
   156   143   174    1
   157   144   145    1
   158   144   175    1
   159   144   176    1
   160   145   146    1
   161   145   177    1
   162   145   178    1
   163   146   147    1
   164   146   179    1
   165   146   180    1
   166   147   148    1
   167   147   181    1
   168   147   182    1
   169   148   149    1
   170   148   183    1
   171   148   184    1
   172   149   150    1
   173   149   185    1
   174   149   186    1
   175   150   151    2
   176   150   152    1
   177   150   164    1
   178   152   153    1
   179   152   187    1
   180   152   188    1
   181   153   154    2
   182   153   155    1
   183   155   156    1
   184   155   160    1
   185   156   157    1
   186   156   189    1
   187   156   190    1
   188   157   158    1
   189   157   159    1
   190   157   191    1
   191   158   192    1
   192   158   193    1
   193   158   194    1
   194   159   195    1
   195   159   196    1
   196   159   197    1
   197   160   161    1
   198   160   198    1
   199   160   199    1
   200   161   162    1
   201   161   163    1
   202   161   200    1
   203   162   201    1
   204   162   202    1
   205   162   203    1
   206   163   204    1
   207   163   205    1
   208   163   206    1
   209   164   165    1
   210   164   169    2
   211   165   166    2
   212   165   207    1
   213   166   167    1
   214   166   208    1
   215   167   168    2
   216   167   209    1
   217   168   169    1
   218   168   210    1
   219   169   211    1
   220   212   213    1
   221   212   240    1
   222   212   241    1
   223   212   242    1
   224   213   214    1
   225   213   243    1
   226   213   244    1
   227   214   215    1
   228   214   245    1
   229   214   246    1
   230   215   216    1
   231   215   247    1
   232   215   248    1
   233   216   217    1
   234   216   249    1
   235   216   250    1
   236   217   218    1
   237   217   251    1
   238   217   252    1
   239   218   219    1
   240   218   253    1
   241   218   254    1
   242   219   220    1
   243   219   255    1
   244   219   256    1
   245   220   221    2
   246   220   222    1
   247   220   234    1
   248   222   223    1
   249   222   257    1
   250   222   258    1
   251   223   224    2
   252   223   225    1
   253   225   226    1
   254   225   230    1
   255   226   227    1
   256   226   259    1
   257   226   260    1
   258   227   228    1
   259   227   229    1
   260   227   261    1
   261   228   262    1
   262   228   263    1
   263   228   264    1
   264   229   265    1
   265   229   266    1
   266   229   267    1
   267   230   231    1
   268   230   268    1
   269   230   269    1
   270   231   232    1
   271   231   233    1
   272   231   270    1
   273   232   271    1
   274   232   272    1
   275   232   273    1
   276   233   274    1
   277   233   275    1
   278   233   276    1
   279   234   235    1
   280   234   239    2
   281   235   236    2
   282   235   277    1
   283   236   237    1
   284   236   278    1
   285   237   238    2
   286   237   279    1
   287   238   239    1
   288   238   280    1
   289   239   281    1
   290   282   283    1
   291   282   284    1
@<TRIPOS>SUBSTRUCTURE
     1 RES1      284 GROUP             0 ****  ****    0  
