@<TRIPOS>MOLECULE
tricapped_trigonal_prismatic_0_nunpairedes_0_charge_3 Charge: 3 Unpaired_Electrons: 7 XTB_Unpaired_Electrons: 0 XTB_Charge: 3
   439   444     1     0     0
SMALL
NoCharges
****
Generated from Architector

@<TRIPOS>ATOM
     1 Gd1       0.0286   -0.0334   -0.0087   Gd        1 RES1   0.0000
     2 C1       -1.5929    9.6811    0.9962   C.3       1 RES1   0.0000
     3 C2       -2.4896   10.6161    0.1857   C.3       1 RES1   0.0000
     4 C3       -3.9784   10.4372    0.4940   C.3       1 RES1   0.0000
     5 C4       -4.5771    9.0697    0.1507   C.3       1 RES1   0.0000
     6 C5       -5.0585    8.8939   -1.2960   C.3       1 RES1   0.0000
     7 C6       -3.9703    8.5749   -2.3265   C.3       1 RES1   0.0000
     8 C7       -3.2816    7.2419   -2.0462   C.3       1 RES1   0.0000
     9 C8       -2.0997    6.9588   -2.9802   C.3       1 RES1   0.0000
    10 C9       -1.0418    6.1095   -2.2565   C.3       1 RES1   0.0000
    11 C10      -0.3386    5.0540   -3.1274   C.3       1 RES1   0.0000
    12 N1       -0.8692    3.7029   -2.9333   N.am      1 RES1   0.0000
    13 C11      -2.0834    3.4614   -3.7193   C.3       1 RES1   0.0000
    14 C12      -1.9291    3.3548   -5.2453   C.3       1 RES1   0.0000
    15 C13      -3.2992    3.5041   -5.9297   C.3       1 RES1   0.0000
    16 C14      -3.2539    3.2932   -7.4487   C.3       1 RES1   0.0000
    17 C15      -4.6555    3.1075   -8.0489   C.3       1 RES1   0.0000
    18 C16      -5.2230    1.6855   -7.8556   C.3       1 RES1   0.0000
    19 C17      -6.5941    1.6603   -7.1689   C.3       1 RES1   0.0000
    20 C18      -7.1627    0.2409   -7.0357   C.3       1 RES1   0.0000
    21 C19      -8.1658    0.1041   -5.8884   C.3       1 RES1   0.0000
    22 C20      -8.3954   -1.3519   -5.4993   C.3       1 RES1   0.0000
    23 C21      -0.4329    2.8442   -2.0061   C.2       1 RES1   0.0000
    24 O1       -0.8417    1.6718   -1.8753   O.2       1 RES1   0.0000
    25 C22       0.6276    3.3542   -1.0061   C.3       1 RES1   0.0000
    26 C23       2.0082    3.0164   -1.5579   C.3       1 RES1   0.0000
    27 O2        0.5076    2.6894    0.2676   O.3       1 RES1   0.0000
    28 C24      -0.0602    3.4887    1.3311   C.3       1 RES1   0.0000
    29 C25       0.7832    4.6833    1.8102   C.3       1 RES1   0.0000
    30 C26       1.3088    5.7250    0.8204   C.3       1 RES1   0.0000
    31 C27      -0.4315    2.4716    2.4694   C.2       1 RES1   0.0000
    32 O3       -0.4985    1.2808    2.1009   O.2       1 RES1   0.0000
    33 N2       -0.8166    2.8250    3.7176   N.am      1 RES1   0.0000
    34 C28      -1.6568    1.8643    4.4820   C.3       1 RES1   0.0000
    35 C29      -3.0435    1.4978    3.9168   C.3       1 RES1   0.0000
    36 C30      -4.1801    2.4550    4.3219   C.3       1 RES1   0.0000
    37 C31      -5.4048    1.7989    4.9867   C.3       1 RES1   0.0000
    38 C32      -6.3559    0.9312    4.1413   C.3       1 RES1   0.0000
    39 C33      -6.6583    1.4855    2.7474   C.3       1 RES1   0.0000
    40 C34      -7.8729    0.8306    2.0674   C.3       1 RES1   0.0000
    41 C35      -8.7778    1.8372    1.3538   C.3       1 RES1   0.0000
    42 C36      -8.1928    2.4406    0.0782   C.3       1 RES1   0.0000
    43 C37      -9.1582    3.4585   -0.5276   C.3       1 RES1   0.0000
    44 C38      -0.2160    3.7995    4.6520   C.3       1 RES1   0.0000
    45 C39       0.6737    3.1921    5.7737   C.3       1 RES1   0.0000
    46 C40       2.1927    3.2385    5.5353   C.3       1 RES1   0.0000
    47 C41       2.9444    2.2287    6.4165   C.3       1 RES1   0.0000
    48 C42       4.4864    2.3600    6.3878   C.3       1 RES1   0.0000
    49 C43       5.2547    1.0405    6.0983   C.3       1 RES1   0.0000
    50 C44       6.3286    1.1079    4.9934   C.3       1 RES1   0.0000
    51 C45       6.6357   -0.2354    4.3006   C.3       1 RES1   0.0000
    52 C46       6.6419   -0.1190    2.7654   C.3       1 RES1   0.0000
    53 C47       7.6343   -1.0691    2.1098   C.3       1 RES1   0.0000
    54 H1       -0.5521    9.9937    0.9188   H         1 RES1   0.0000
    55 H2       -1.6614    8.6542    0.6348   H         1 RES1   0.0000
    56 H3       -1.8775    9.6995    2.0487   H         1 RES1   0.0000
    57 H4       -2.2940   10.4759   -0.8782   H         1 RES1   0.0000
    58 H5       -2.2160   11.6444    0.4303   H         1 RES1   0.0000
    59 H6       -4.5429   11.2090   -0.0280   H         1 RES1   0.0000
    60 H7       -4.1119   10.6058    1.5645   H         1 RES1   0.0000
    61 H8       -5.4406    8.9077    0.7993   H         1 RES1   0.0000
    62 H9       -3.8562    8.2931    0.3960   H         1 RES1   0.0000
    63 H10      -5.5729    9.8031   -1.6089   H         1 RES1   0.0000
    64 H11      -5.7929    8.0828   -1.3213   H         1 RES1   0.0000
    65 H12      -3.2250    9.3709   -2.3330   H         1 RES1   0.0000
    66 H13      -4.4245    8.5349   -3.3198   H         1 RES1   0.0000
    67 H14      -4.0146    6.4322   -2.1199   H         1 RES1   0.0000
    68 H15      -2.9098    7.2576   -1.0201   H         1 RES1   0.0000
    69 H16      -1.6514    7.9021   -3.2942   H         1 RES1   0.0000
    70 H17      -2.4518    6.4671   -3.8874   H         1 RES1   0.0000
    71 H18      -1.5200    5.5969   -1.4165   H         1 RES1   0.0000
    72 H19      -0.2951    6.7892   -1.8471   H         1 RES1   0.0000
    73 H20       0.7360    5.0539   -2.9639   H         1 RES1   0.0000
    74 H21      -0.4924    5.3108   -4.1752   H         1 RES1   0.0000
    75 H22      -2.7436    4.3079   -3.5078   H         1 RES1   0.0000
    76 H23      -2.5471    2.5520   -3.3428   H         1 RES1   0.0000
    77 H24      -1.4892    2.3899   -5.5064   H         1 RES1   0.0000
    78 H25      -1.2760    4.1398   -5.6302   H         1 RES1   0.0000
    79 H26      -3.7025    4.5009   -5.7351   H         1 RES1   0.0000
    80 H27      -4.0165    2.8015   -5.5059   H         1 RES1   0.0000
    81 H28      -2.6492    2.4163   -7.6895   H         1 RES1   0.0000
    82 H29      -2.7808    4.1607   -7.9124   H         1 RES1   0.0000
    83 H30      -4.6104    3.3285   -9.1161   H         1 RES1   0.0000
    84 H31      -5.3344    3.8336   -7.5972   H         1 RES1   0.0000
    85 H32      -4.5222    1.0948   -7.2599   H         1 RES1   0.0000
    86 H33      -5.3079    1.1900   -8.8244   H         1 RES1   0.0000
    87 H34      -7.2890    2.2791   -7.7365   H         1 RES1   0.0000
    88 H35      -6.4991    2.1143   -6.1768   H         1 RES1   0.0000
    89 H36      -6.3437   -0.4678   -6.8790   H         1 RES1   0.0000
    90 H37      -7.6495   -0.0455   -7.9669   H         1 RES1   0.0000
    91 H38      -9.1176    0.5490   -6.1754   H         1 RES1   0.0000
    92 H39      -7.8089    0.6542   -5.0134   H         1 RES1   0.0000
    93 H40      -8.8382   -1.8998   -6.3260   H         1 RES1   0.0000
    94 H41      -9.0636   -1.4256   -4.6434   H         1 RES1   0.0000
    95 H42      -7.4577   -1.8409   -5.2364   H         1 RES1   0.0000
    96 H43       0.4969    4.4227   -0.8696   H         1 RES1   0.0000
    97 H44       2.1155    1.9331   -1.4939   H         1 RES1   0.0000
    98 H45       2.7949    3.4731   -0.9657   H         1 RES1   0.0000
    99 H46       2.1176    3.3396   -2.5848   H         1 RES1   0.0000
   100 H47      -1.0349    3.8583    0.9696   H         1 RES1   0.0000
   101 H48       0.1226    5.2429    2.4690   H         1 RES1   0.0000
   102 H49       1.6289    4.3036    2.3810   H         1 RES1   0.0000
   103 H50       0.5026    6.1515    0.2265   H         1 RES1   0.0000
   104 H51       1.7304    6.5445    1.3988   H         1 RES1   0.0000
   105 H52       2.1073    5.3454    0.1849   H         1 RES1   0.0000
   106 H53      -1.8165    2.2996    5.4698   H         1 RES1   0.0000
   107 H54      -1.0714    0.9581    4.6116   H         1 RES1   0.0000
   108 H55      -3.2936    0.5311    4.3492   H         1 RES1   0.0000
   109 H56      -2.9824    1.3567    2.8347   H         1 RES1   0.0000
   110 H57      -4.5168    3.0302    3.4624   H         1 RES1   0.0000
   111 H58      -3.7976    3.1598    5.0635   H         1 RES1   0.0000
   112 H59      -6.0010    2.6125    5.4077   H         1 RES1   0.0000
   113 H60      -5.0594    1.1944    5.8307   H         1 RES1   0.0000
   114 H61      -7.2916    0.8499    4.7009   H         1 RES1   0.0000
   115 H62      -5.9552   -0.0783    4.0537   H         1 RES1   0.0000
   116 H63      -5.7700    1.3340    2.1319   H         1 RES1   0.0000
   117 H64      -6.8369    2.5590    2.8342   H         1 RES1   0.0000
   118 H65      -8.4745    0.3242    2.8216   H         1 RES1   0.0000
   119 H66      -7.5515    0.0647    1.3557   H         1 RES1   0.0000
   120 H67      -9.0229    2.6446    2.0462   H         1 RES1   0.0000
   121 H68      -9.7137    1.3427    1.0887   H         1 RES1   0.0000
   122 H69      -8.0120    1.6414   -0.6478   H         1 RES1   0.0000
   123 H70      -7.2399    2.9339    0.2897   H         1 RES1   0.0000
   124 H71     -10.1388    3.0078   -0.6801   H         1 RES1   0.0000
   125 H72      -8.7953    3.8219   -1.4904   H         1 RES1   0.0000
   126 H73      -9.2807    4.3104    0.1417   H         1 RES1   0.0000
   127 H74      -1.0496    4.3116    5.1347   H         1 RES1   0.0000
   128 H75       0.3696    4.5484    4.1400   H         1 RES1   0.0000
   129 H76       0.3760    2.1654    5.9760   H         1 RES1   0.0000
   130 H77       0.4641    3.7645    6.6814   H         1 RES1   0.0000
   131 H78       2.5467    4.2494    5.7445   H         1 RES1   0.0000
   132 H79       2.4099    3.0117    4.4930   H         1 RES1   0.0000
   133 H80       2.6716    1.2161    6.1002   H         1 RES1   0.0000
   134 H81       2.5880    2.3510    7.4381   H         1 RES1   0.0000
   135 H82       4.8180    2.7515    7.3526   H         1 RES1   0.0000
   136 H83       4.7696    3.1031    5.6420   H         1 RES1   0.0000
   137 H84       4.5330    0.2654    5.8301   H         1 RES1   0.0000
   138 H85       5.7556    0.6985    7.0058   H         1 RES1   0.0000
   139 H86       7.2483    1.5164    5.4102   H         1 RES1   0.0000
   140 H87       6.0180    1.8138    4.2273   H         1 RES1   0.0000
   141 H88       5.9149   -0.9955    4.6154   H         1 RES1   0.0000
   142 H89       7.6150   -0.5916    4.6148   H         1 RES1   0.0000
   143 H90       6.9236    0.9009    2.4900   H         1 RES1   0.0000
   144 H91       5.6418   -0.3074    2.3596   H         1 RES1   0.0000
   145 H92       8.6418   -0.8051    2.4144   H         1 RES1   0.0000
   146 H93       7.5737   -0.9877    1.0263   H         1 RES1   0.0000
   147 H94       7.4535   -2.1018    2.3918   H         1 RES1   0.0000
   148 C48      -9.7064   -3.3934    3.2010   C.3       1 RES1   0.0000
   149 C49      -9.4774   -4.7807    3.7927   C.3       1 RES1   0.0000
   150 C50      -8.7863   -4.7599    5.1613   C.3       1 RES1   0.0000
   151 C51      -7.2667   -4.5052    5.0801   C.3       1 RES1   0.0000
   152 C52      -6.3916   -5.5556    5.7968   C.3       1 RES1   0.0000
   153 C53      -5.5974   -6.4680    4.8447   C.3       1 RES1   0.0000
   154 C54      -4.3271   -5.7708    4.3488   C.3       1 RES1   0.0000
   155 C55      -3.5370   -6.5648    3.2945   C.3       1 RES1   0.0000
   156 C56      -2.9321   -5.6583    2.2032   C.3       1 RES1   0.0000
   157 C57      -1.4095   -5.7768    1.9931   C.3       1 RES1   0.0000
   158 N3       -0.6193   -4.5584    2.2030   N.am      1 RES1   0.0000
   159 C58       0.0652   -4.5138    3.5037   C.3       1 RES1   0.0000
   160 C59       1.1014   -5.5983    3.8407   C.3       1 RES1   0.0000
   161 C60       1.4032   -5.5875    5.3512   C.3       1 RES1   0.0000
   162 C61       2.2588   -4.4070    5.8307   C.3       1 RES1   0.0000
   163 C62       2.2190   -4.2888    7.3586   C.3       1 RES1   0.0000
   164 C63       2.8637   -3.0180    7.9321   C.3       1 RES1   0.0000
   165 C64       1.8928   -1.8414    8.0251   C.3       1 RES1   0.0000
   166 C65       2.4244   -0.6644    8.8417   C.3       1 RES1   0.0000
   167 C66       1.3570    0.4184    9.0164   C.3       1 RES1   0.0000
   168 C67       1.8328    1.5785    9.8845   C.3       1 RES1   0.0000
   169 C68      -0.6293   -3.4753    1.4197   C.2       1 RES1   0.0000
   170 O4        0.0978   -2.4741    1.5845   O.2       1 RES1   0.0000
   171 C69      -1.5622   -3.4239    0.2038   C.3       1 RES1   0.0000
   172 C70      -0.8641   -4.2109   -0.9016   C.3       1 RES1   0.0000
   173 O5       -1.6851   -2.0163   -0.0994   O.3       1 RES1   0.0000
   174 C71      -2.9125   -1.5847   -0.7185   C.3       1 RES1   0.0000
   175 C72      -2.9322   -2.0077   -2.1869   C.3       1 RES1   0.0000
   176 C73      -3.8373   -3.2082   -2.4379   C.3       1 RES1   0.0000
   177 C74      -2.9697   -0.0553   -0.4983   C.2       1 RES1   0.0000
   178 O6       -2.0760    0.4414    0.2203   O.2       1 RES1   0.0000
   179 N4       -3.9075    0.7336   -1.0068   N.am      1 RES1   0.0000
   180 C75      -3.7127    2.1834   -0.8840   C.3       1 RES1   0.0000
   181 C76      -4.0280    2.8594    0.4497   C.3       1 RES1   0.0000
   182 C77      -4.0697    4.3794    0.2274   C.3       1 RES1   0.0000
   183 C78      -4.2388    5.1865    1.5298   C.3       1 RES1   0.0000
   184 C79      -2.9518    5.8517    2.0352   C.3       1 RES1   0.0000
   185 C80      -2.8195    5.9050    3.5604   C.3       1 RES1   0.0000
   186 C81      -3.8130    6.8174    4.3028   C.3       1 RES1   0.0000
   187 C82      -4.5436    6.1372    5.4665   C.3       1 RES1   0.0000
   188 C83      -3.6364    5.6896    6.6121   C.3       1 RES1   0.0000
   189 C84      -4.3518    4.7524    7.5832   C.3       1 RES1   0.0000
   190 C85      -5.1418    0.3515   -1.6818   C.3       1 RES1   0.0000
   191 C86      -5.2936    0.8182   -3.1427   C.3       1 RES1   0.0000
   192 C87      -4.7955   -0.1414   -4.2255   C.3       1 RES1   0.0000
   193 C88      -3.3493    0.0533   -4.7027   C.3       1 RES1   0.0000
   194 C89      -2.9326   -1.1053   -5.6110   C.3       1 RES1   0.0000
   195 C90      -1.4872   -1.0088   -6.1036   C.3       1 RES1   0.0000
   196 C91      -1.1361   -2.2473   -6.9309   C.3       1 RES1   0.0000
   197 C92       0.2588   -2.2409   -7.5607   C.3       1 RES1   0.0000
   198 C93       1.3568   -2.7761   -6.6443   C.3       1 RES1   0.0000
   199 C94       2.6800   -2.8934   -7.3939   C.3       1 RES1   0.0000
   200 H95     -10.1534   -3.4757    2.2127   H         1 RES1   0.0000
   201 H96      -8.7776   -2.8343    3.1153   H         1 RES1   0.0000
   202 H97     -10.3863   -2.8254    3.8297   H         1 RES1   0.0000
   203 H98      -8.8875   -5.3883    3.1016   H         1 RES1   0.0000
   204 H99     -10.4477   -5.2687    3.8933   H         1 RES1   0.0000
   205 H100     -8.9683   -5.7172    5.6532   H         1 RES1   0.0000
   206 H101     -9.2583   -3.9903    5.7749   H         1 RES1   0.0000
   207 H102     -7.0489   -3.5155    5.4894   H         1 RES1   0.0000
   208 H103     -6.9937   -4.4887    4.0269   H         1 RES1   0.0000
   209 H104     -7.0210   -6.1711    6.4388   H         1 RES1   0.0000
   210 H105     -5.6777   -5.0545    6.4546   H         1 RES1   0.0000
   211 H106     -6.2276   -6.7396    3.9928   H         1 RES1   0.0000
   212 H107     -5.3258   -7.3915    5.3609   H         1 RES1   0.0000
   213 H108     -3.6909   -5.5508    5.2090   H         1 RES1   0.0000
   214 H109     -4.6338   -4.8157    3.9246   H         1 RES1   0.0000
   215 H110     -4.2068   -7.2810    2.8206   H         1 RES1   0.0000
   216 H111     -2.7584   -7.1464    3.7850   H         1 RES1   0.0000
   217 H112     -3.1519   -4.6327    2.4846   H         1 RES1   0.0000
   218 H113     -3.4452   -5.8674    1.2620   H         1 RES1   0.0000
   219 H114     -1.2029   -6.1713    0.9995   H         1 RES1   0.0000
   220 H115     -1.0203   -6.5040    2.7038   H         1 RES1   0.0000
   221 H116     -0.7273   -4.5679    4.2618   H         1 RES1   0.0000
   222 H117      0.5497   -3.5437    3.5744   H         1 RES1   0.0000
   223 H118      2.0212   -5.4503    3.2734   H         1 RES1   0.0000
   224 H119      0.7208   -6.5894    3.5947   H         1 RES1   0.0000
   225 H120      1.9127   -6.5158    5.6192   H         1 RES1   0.0000
   226 H121      0.4540   -5.5815    5.8957   H         1 RES1   0.0000
   227 H122      1.9026   -3.4766    5.3919   H         1 RES1   0.0000
   228 H123      3.2883   -4.5424    5.4910   H         1 RES1   0.0000
   229 H124      2.7136   -5.1678    7.7699   H         1 RES1   0.0000
   230 H125      1.1775   -4.3328    7.6851   H         1 RES1   0.0000
   231 H126      3.7336   -2.7426    7.3337   H         1 RES1   0.0000
   232 H127      3.2221   -3.2405    8.9363   H         1 RES1   0.0000
   233 H128      0.9694   -2.1891    8.4927   H         1 RES1   0.0000
   234 H129      1.6492   -1.4850    7.0254   H         1 RES1   0.0000
   235 H130      3.3038   -0.2366    8.3557   H         1 RES1   0.0000
   236 H131      2.7318   -1.0148    9.8264   H         1 RES1   0.0000
   237 H132      0.4706   -0.0228    9.4773   H         1 RES1   0.0000
   238 H133      1.0551    0.7922    8.0331   H         1 RES1   0.0000
   239 H134      2.0257    1.2395   10.8968   H         1 RES1   0.0000
   240 H135      1.0749    2.3572    9.9290   H         1 RES1   0.0000
   241 H136      2.7538    2.0122    9.5016   H         1 RES1   0.0000
   242 H137     -2.5458   -3.8363    0.4242   H         1 RES1   0.0000
   243 H138      0.1169   -3.7735   -1.0391   H         1 RES1   0.0000
   244 H139     -1.4205   -4.2006   -1.8315   H         1 RES1   0.0000
   245 H140     -0.7357   -5.2487   -0.6128   H         1 RES1   0.0000
   246 H141     -3.7601   -2.0291   -0.1874   H         1 RES1   0.0000
   247 H142     -3.2736   -1.1767   -2.7805   H         1 RES1   0.0000
   248 H143     -1.9009   -2.2104   -2.4836   H         1 RES1   0.0000
   249 H144     -4.8746   -2.9537   -2.2293   H         1 RES1   0.0000
   250 H145     -3.5792   -4.0674   -1.8268   H         1 RES1   0.0000
   251 H146     -3.7697   -3.5298   -3.4726   H         1 RES1   0.0000
   252 H147     -4.3401    2.6569   -1.6383   H         1 RES1   0.0000
   253 H148     -2.6680    2.3741   -1.1147   H         1 RES1   0.0000
   254 H149     -3.2735    2.5982    1.1946   H         1 RES1   0.0000
   255 H150     -5.0036    2.5324    0.8021   H         1 RES1   0.0000
   256 H151     -4.9035    4.5988   -0.4441   H         1 RES1   0.0000
   257 H152     -3.1587    4.6930   -0.2936   H         1 RES1   0.0000
   258 H153     -4.6192    4.5180    2.3017   H         1 RES1   0.0000
   259 H154     -4.9915    5.9561    1.3712   H         1 RES1   0.0000
   260 H155     -2.8678    6.8549    1.6182   H         1 RES1   0.0000
   261 H156     -2.0964    5.2820    1.6686   H         1 RES1   0.0000
   262 H157     -1.8021    6.2359    3.7871   H         1 RES1   0.0000
   263 H158     -2.9216    4.8838    3.9278   H         1 RES1   0.0000
   264 H159     -4.5605    7.1884    3.5994   H         1 RES1   0.0000
   265 H160     -3.2743    7.6843    4.6898   H         1 RES1   0.0000
   266 H161     -5.1107    5.2801    5.0983   H         1 RES1   0.0000
   267 H162     -5.2643    6.8451    5.8737   H         1 RES1   0.0000
   268 H163     -3.2833    6.5655    7.1557   H         1 RES1   0.0000
   269 H164     -2.7499    5.1832    6.2226   H         1 RES1   0.0000
   270 H165     -5.2878    5.1854    7.9292   H         1 RES1   0.0000
   271 H166     -3.7300    4.5583    8.4558   H         1 RES1   0.0000
   272 H167     -4.5837    3.7968    7.1136   H         1 RES1   0.0000
   273 H168     -5.9379    0.8309   -1.1035   H         1 RES1   0.0000
   274 H169     -5.2665   -0.7273   -1.6188   H         1 RES1   0.0000
   275 H170     -4.8298    1.7915   -3.2942   H         1 RES1   0.0000
   276 H171     -6.3630    0.9620   -3.3008   H         1 RES1   0.0000
   277 H172     -5.4262    0.0012   -5.0987   H         1 RES1   0.0000
   278 H173     -4.9594   -1.1663   -3.8942   H         1 RES1   0.0000
   279 H174     -2.6321    0.1541   -3.8804   H         1 RES1   0.0000
   280 H175     -3.2972    0.9749   -5.2770   H         1 RES1   0.0000
   281 H176     -3.6055   -1.1224   -6.4717   H         1 RES1   0.0000
   282 H177     -3.0519   -2.0542   -5.0809   H         1 RES1   0.0000
   283 H178     -1.3736   -0.1172   -6.7251   H         1 RES1   0.0000
   284 H179     -0.8138   -0.9117   -5.2444   H         1 RES1   0.0000
   285 H180     -1.8774   -2.3348   -7.7272   H         1 RES1   0.0000
   286 H181     -1.2352   -3.1323   -6.2985   H         1 RES1   0.0000
   287 H182      0.5145   -1.2317   -7.8859   H         1 RES1   0.0000
   288 H183      0.2368   -2.8689   -8.4514   H         1 RES1   0.0000
   289 H184      1.0666   -3.7658   -6.2840   H         1 RES1   0.0000
   290 H185      1.4750   -2.1239   -5.7737   H         1 RES1   0.0000
   291 H186      2.5717   -3.5657   -8.2420   H         1 RES1   0.0000
   292 H187      3.4646   -3.2861   -6.7491   H         1 RES1   0.0000
   293 H188      2.9959   -1.9254   -7.7782   H         1 RES1   0.0000
   294 C95      10.6115    1.8062    1.7206   C.3       1 RES1   0.0000
   295 C96      10.0054    2.1462    0.3590   C.3       1 RES1   0.0000
   296 C97       9.3064    3.5181    0.3882   C.3       1 RES1   0.0000
   297 C98       7.8347    3.5021   -0.0358   C.3       1 RES1   0.0000
   298 C99       7.5725    3.6929   -1.5334   C.3       1 RES1   0.0000
   299 C100      7.6003    2.4082   -2.3608   C.3       1 RES1   0.0000
   300 C101      6.4986    1.4173   -1.9858   C.3       1 RES1   0.0000
   301 C102      6.3908    0.3143   -3.0389   C.3       1 RES1   0.0000
   302 C103      5.4534   -0.8309   -2.6199   C.3       1 RES1   0.0000
   303 C104      4.3823   -1.1727   -3.6720   C.3       1 RES1   0.0000
   304 N5        3.1260   -0.4680   -3.4348   N.am      1 RES1   0.0000
   305 C105      2.9486    0.7706   -4.1863   C.3       1 RES1   0.0000
   306 C106      2.7965    0.5514   -5.6998   C.3       1 RES1   0.0000
   307 C107      3.1912    1.8034   -6.4853   C.3       1 RES1   0.0000
   308 C108      2.2973    3.0072   -6.1891   C.3       1 RES1   0.0000
   309 C109      2.6001    4.1471   -7.1600   C.3       1 RES1   0.0000
   310 C110      1.7529    5.3959   -6.9244   C.3       1 RES1   0.0000
   311 C111      2.2594    6.2667   -5.7770   C.3       1 RES1   0.0000
   312 C112      1.4081    7.5218   -5.6308   C.3       1 RES1   0.0000
   313 C113      1.9181    8.4655   -4.5467   C.3       1 RES1   0.0000
   314 C114      1.1399    9.7772   -4.5544   C.3       1 RES1   0.0000
   315 C115      2.2567   -0.8620   -2.5134   C.2       1 RES1   0.0000
   316 O7        1.2164   -0.2421   -2.1999   O.2       1 RES1   0.0000
   317 C116      2.5001   -2.2244   -1.8420   C.3       1 RES1   0.0000
   318 C117      1.8391   -3.2940   -2.7130   C.3       1 RES1   0.0000
   319 O8        1.9268   -2.2122   -0.5271   O.3       1 RES1   0.0000
   320 C118      2.8859   -2.0664    0.5366   C.3       1 RES1   0.0000
   321 C119      3.0800   -3.4100    1.2506   C.3       1 RES1   0.0000
   322 C120      4.3427   -3.4669    2.1067   C.3       1 RES1   0.0000
   323 C121      2.5345   -0.7251    1.2396   C.2       1 RES1   0.0000
   324 O9        2.1248    0.1265    0.4129   O.2       1 RES1   0.0000
   325 N6        2.8888   -0.3664    2.4796   N.am      1 RES1   0.0000
   326 C122      3.2911    1.0382    2.8019   C.3       1 RES1   0.0000
   327 C123      3.4707    2.0125    1.6181   C.3       1 RES1   0.0000
   328 C124      4.5052    3.1902    1.5858   C.3       1 RES1   0.0000
   329 C125      5.1233    3.9386    2.7750   C.3       1 RES1   0.0000
   330 C126      4.2947    5.0030    3.4957   C.3       1 RES1   0.0000
   331 C127      4.4821    6.4983    3.1497   C.3       1 RES1   0.0000
   332 C128      5.7467    6.9268    2.4029   C.3       1 RES1   0.0000
   333 C129      5.6442    6.7467    0.8848   C.3       1 RES1   0.0000
   334 C130      4.7605    7.7925    0.2060   C.3       1 RES1   0.0000
   335 C131      4.6363    7.5131   -1.2880   C.3       1 RES1   0.0000
   336 C132      2.4305   -1.1384    3.6461   C.3       1 RES1   0.0000
   337 C133      1.0905   -0.5336    4.1392   C.3       1 RES1   0.0000
   338 C134      0.0727   -1.3679    4.9620   C.3       1 RES1   0.0000
   339 C135     -1.2514   -1.5684    4.2097   C.3       1 RES1   0.0000
   340 C136     -2.3659   -2.2339    5.0175   C.3       1 RES1   0.0000
   341 C137     -3.7690   -2.0666    4.4016   C.3       1 RES1   0.0000
   342 C138     -3.8537   -2.0381    2.8715   C.3       1 RES1   0.0000
   343 C139     -5.3192   -2.1354    2.3874   C.3       1 RES1   0.0000
   344 C140     -5.5463   -3.0142    1.1362   C.3       1 RES1   0.0000
   345 C141     -6.3700   -4.2700    1.3914   C.3       1 RES1   0.0000
   346 H189     11.2303    0.9133    1.6575   H         1 RES1   0.0000
   347 H190      9.8238    1.6349    2.4564   H         1 RES1   0.0000
   348 H191     11.2393    2.6239    2.0701   H         1 RES1   0.0000
   349 H192      9.2897    1.3648    0.0858   H         1 RES1   0.0000
   350 H193     10.7979    2.1437   -0.3906   H         1 RES1   0.0000
   351 H194      9.8545    4.2326   -0.2257   H         1 RES1   0.0000
   352 H195      9.3472    3.8900    1.4132   H         1 RES1   0.0000
   353 H196      7.3188    4.3035    0.4962   H         1 RES1   0.0000
   354 H197      7.4001    2.5592    0.2956   H         1 RES1   0.0000
   355 H198      8.3156    4.3845   -1.9329   H         1 RES1   0.0000
   356 H199      6.5960    4.1696   -1.6657   H         1 RES1   0.0000
   357 H200      8.5724    1.9275   -2.2550   H         1 RES1   0.0000
   358 H201      7.4711    2.6724   -3.4130   H         1 RES1   0.0000
   359 H202      5.5404    1.9437   -1.8994   H         1 RES1   0.0000
   360 H203      6.7178    0.9707   -1.0142   H         1 RES1   0.0000
   361 H204      7.3884   -0.0785   -3.2368   H         1 RES1   0.0000
   362 H205      6.0441    0.7597   -3.9715   H         1 RES1   0.0000
   363 H206      4.9528   -0.5541   -1.6904   H         1 RES1   0.0000
   364 H207      6.0510   -1.7169   -2.4117   H         1 RES1   0.0000
   365 H208      4.2007   -2.2452   -3.7136   H         1 RES1   0.0000
   366 H209      4.7462   -0.8700   -4.6515   H         1 RES1   0.0000
   367 H210      3.8250    1.4035   -4.0105   H         1 RES1   0.0000
   368 H211      2.0615    1.2685   -3.7949   H         1 RES1   0.0000
   369 H212      1.7623    0.2965   -5.9355   H         1 RES1   0.0000
   370 H213      3.4277   -0.2689   -6.0482   H         1 RES1   0.0000
   371 H214      3.1296    1.5782   -7.5529   H         1 RES1   0.0000
   372 H215      4.2283    2.0660   -6.2614   H         1 RES1   0.0000
   373 H216      2.4519    3.3435   -5.1598   H         1 RES1   0.0000
   374 H217      1.2460    2.7213   -6.2883   H         1 RES1   0.0000
   375 H218      2.4318    3.7812   -8.1732   H         1 RES1   0.0000
   376 H219      3.6540    4.4144   -7.0838   H         1 RES1   0.0000
   377 H220      0.7161    5.1011   -6.7419   H         1 RES1   0.0000
   378 H221      1.7558    5.9984   -7.8333   H         1 RES1   0.0000
   379 H222      3.2896    6.5613   -5.9826   H         1 RES1   0.0000
   380 H223      2.2633    5.7068   -4.8374   H         1 RES1   0.0000
   381 H224      0.3741    7.2446   -5.4114   H         1 RES1   0.0000
   382 H225      1.4071    8.0545   -6.5815   H         1 RES1   0.0000
   383 H226      2.9750    8.6789   -4.7182   H         1 RES1   0.0000
   384 H227      1.8349    7.9857   -3.5662   H         1 RES1   0.0000
   385 H228      1.2832   10.2907   -5.5030   H         1 RES1   0.0000
   386 H229      1.4767   10.4373   -3.7572   H         1 RES1   0.0000
   387 H230      0.0732    9.5929   -4.4284   H         1 RES1   0.0000
   388 H231      3.5620   -2.4617   -1.7494   H         1 RES1   0.0000
   389 H232      0.8003   -3.0391   -2.9120   H         1 RES1   0.0000
   390 H233      1.9041   -4.2497   -2.2001   H         1 RES1   0.0000
   391 H234      2.3599   -3.3767   -3.6632   H         1 RES1   0.0000
   392 H235      3.8627   -1.7991    0.0886   H         1 RES1   0.0000
   393 H236      2.1791   -3.6535    1.8099   H         1 RES1   0.0000
   394 H237      3.1786   -4.1730    0.4706   H         1 RES1   0.0000
   395 H238      4.3327   -2.7368    2.9073   H         1 RES1   0.0000
   396 H239      5.2222   -3.2857    1.4931   H         1 RES1   0.0000
   397 H240      4.4490   -4.4543    2.5495   H         1 RES1   0.0000
   398 H241      4.2172    0.9286    3.3749   H         1 RES1   0.0000
   399 H242      2.5324    1.4530    3.4653   H         1 RES1   0.0000
   400 H243      2.4765    2.4136    1.4172   H         1 RES1   0.0000
   401 H244      3.7541    1.4316    0.7396   H         1 RES1   0.0000
   402 H245      4.0421    3.9493    0.9500   H         1 RES1   0.0000
   403 H246      5.3633    2.8106    1.0321   H         1 RES1   0.0000
   404 H247      6.0252    4.4115    2.3886   H         1 RES1   0.0000
   405 H248      5.4526    3.2203    3.5145   H         1 RES1   0.0000
   406 H249      4.5326    4.9089    4.5526   H         1 RES1   0.0000
   407 H250      3.2406    4.7592    3.3887   H         1 RES1   0.0000
   408 H251      4.4670    7.0314    4.1003   H         1 RES1   0.0000
   409 H252      3.6261    6.8610    2.5824   H         1 RES1   0.0000
   410 H253      6.6153    6.3887    2.7853   H         1 RES1   0.0000
   411 H254      5.9209    7.9849    2.6071   H         1 RES1   0.0000
   412 H255      5.2474    5.7541    0.6583   H         1 RES1   0.0000
   413 H256      6.6400    6.8160    0.4425   H         1 RES1   0.0000
   414 H257      5.1928    8.7817    0.3589   H         1 RES1   0.0000
   415 H258      3.7631    7.7970    0.6556   H         1 RES1   0.0000
   416 H259      5.6119    7.5548   -1.7635   H         1 RES1   0.0000
   417 H260      3.9951    8.2503   -1.7656   H         1 RES1   0.0000
   418 H261      4.2205    6.5193   -1.4549   H         1 RES1   0.0000
   419 H262      3.1944   -1.0883    4.4235   H         1 RES1   0.0000
   420 H263      2.2897   -2.1745    3.3526   H         1 RES1   0.0000
   421 H264      0.5726   -0.2219    3.2276   H         1 RES1   0.0000
   422 H265      1.3360    0.3487    4.7226   H         1 RES1   0.0000
   423 H266     -0.1390   -0.8585    5.9052   H         1 RES1   0.0000
   424 H267      0.4766   -2.3348    5.2430   H         1 RES1   0.0000
   425 H268     -1.0651   -2.1596    3.3261   H         1 RES1   0.0000
   426 H269     -1.6051   -0.6107    3.8502   H         1 RES1   0.0000
   427 H270     -2.3869   -1.8099    6.0240   H         1 RES1   0.0000
   428 H271     -2.1434   -3.2972    5.1261   H         1 RES1   0.0000
   429 H272     -4.2176   -1.1501    4.7821   H         1 RES1   0.0000
   430 H273     -4.3858   -2.8908    4.7621   H         1 RES1   0.0000
   431 H274     -3.2709   -2.8677    2.4712   H         1 RES1   0.0000
   432 H275     -3.3932   -1.1292    2.4735   H         1 RES1   0.0000
   433 H276     -5.6956   -1.1322    2.1876   H         1 RES1   0.0000
   434 H277     -5.9295   -2.5392    3.1959   H         1 RES1   0.0000
   435 H278     -4.5816   -3.3622    0.7632   H         1 RES1   0.0000
   436 H279     -6.0225   -2.4297    0.3429   H         1 RES1   0.0000
   437 H280     -6.0018   -4.7742    2.2743   H         1 RES1   0.0000
   438 H281     -6.2776   -4.9637    0.5624   H         1 RES1   0.0000
   439 H282     -7.4204   -4.0525    1.5297   H         1 RES1   0.0000
@<TRIPOS>BOND
     1     1    24    1
     2     1    27    1
     3     1    32    1
     4     1   170    1
     5     1   173    1
     6     1   178    1
     7     1   316    1
     8     1   319    1
     9     1   324    1
    10     2     3    1
    11     2    54    1
    12     2    55    1
    13     2    56    1
    14     3     4    1
    15     3    57    1
    16     3    58    1
    17     4     5    1
    18     4    59    1
    19     4    60    1
    20     5     6    1
    21     5    61    1
    22     5    62    1
    23     6     7    1
    24     6    63    1
    25     6    64    1
    26     7     8    1
    27     7    65    1
    28     7    66    1
    29     8     9    1
    30     8    67    1
    31     8    68    1
    32     9    10    1
    33     9    69    1
    34     9    70    1
    35    10    11    1
    36    10    71    1
    37    10    72    1
    38    11    12    1
    39    11    73    1
    40    11    74    1
    41    12    13    1
    42    12    23    1
    43    13    14    1
    44    13    75    1
    45    13    76    1
    46    14    15    1
    47    14    77    1
    48    14    78    1
    49    15    16    1
    50    15    79    1
    51    15    80    1
    52    16    17    1
    53    16    81    1
    54    16    82    1
    55    17    18    1
    56    17    83    1
    57    17    84    1
    58    18    19    1
    59    18    85    1
    60    18    86    1
    61    19    20    1
    62    19    87    1
    63    19    88    1
    64    20    21    1
    65    20    89    1
    66    20    90    1
    67    21    22    1
    68    21    91    1
    69    21    92    1
    70    22    93    1
    71    22    94    1
    72    22    95    1
    73    23    24    2
    74    23    25    1
    75    25    26    1
    76    25    27    1
    77    25    96    1
    78    26    97    1
    79    26    98    1
    80    26    99    1
    81    27    28    1
    82    28    29    1
    83    28    31    1
    84    28   100    1
    85    29    30    1
    86    29   101    1
    87    29   102    1
    88    30   103    1
    89    30   104    1
    90    30   105    1
    91    31    32    2
    92    31    33    1
    93    33    34    1
    94    33    44    1
    95    34    35    1
    96    34   106    1
    97    34   107    1
    98    35    36    1
    99    35   108    1
   100    35   109    1
   101    36    37    1
   102    36   110    1
   103    36   111    1
   104    37    38    1
   105    37   112    1
   106    37   113    1
   107    38    39    1
   108    38   114    1
   109    38   115    1
   110    39    40    1
   111    39   116    1
   112    39   117    1
   113    40    41    1
   114    40   118    1
   115    40   119    1
   116    41    42    1
   117    41   120    1
   118    41   121    1
   119    42    43    1
   120    42   122    1
   121    42   123    1
   122    43   124    1
   123    43   125    1
   124    43   126    1
   125    44    45    1
   126    44   127    1
   127    44   128    1
   128    45    46    1
   129    45   129    1
   130    45   130    1
   131    46    47    1
   132    46   131    1
   133    46   132    1
   134    47    48    1
   135    47   133    1
   136    47   134    1
   137    48    49    1
   138    48   135    1
   139    48   136    1
   140    49    50    1
   141    49   137    1
   142    49   138    1
   143    50    51    1
   144    50   139    1
   145    50   140    1
   146    51    52    1
   147    51   141    1
   148    51   142    1
   149    52    53    1
   150    52   143    1
   151    52   144    1
   152    53   145    1
   153    53   146    1
   154    53   147    1
   155   148   149    1
   156   148   200    1
   157   148   201    1
   158   148   202    1
   159   149   150    1
   160   149   203    1
   161   149   204    1
   162   150   151    1
   163   150   205    1
   164   150   206    1
   165   151   152    1
   166   151   207    1
   167   151   208    1
   168   152   153    1
   169   152   209    1
   170   152   210    1
   171   153   154    1
   172   153   211    1
   173   153   212    1
   174   154   155    1
   175   154   213    1
   176   154   214    1
   177   155   156    1
   178   155   215    1
   179   155   216    1
   180   156   157    1
   181   156   217    1
   182   156   218    1
   183   157   158    1
   184   157   219    1
   185   157   220    1
   186   158   159    1
   187   158   169    1
   188   159   160    1
   189   159   221    1
   190   159   222    1
   191   160   161    1
   192   160   223    1
   193   160   224    1
   194   161   162    1
   195   161   225    1
   196   161   226    1
   197   162   163    1
   198   162   227    1
   199   162   228    1
   200   163   164    1
   201   163   229    1
   202   163   230    1
   203   164   165    1
   204   164   231    1
   205   164   232    1
   206   165   166    1
   207   165   233    1
   208   165   234    1
   209   166   167    1
   210   166   235    1
   211   166   236    1
   212   167   168    1
   213   167   237    1
   214   167   238    1
   215   168   239    1
   216   168   240    1
   217   168   241    1
   218   169   170    2
   219   169   171    1
   220   171   172    1
   221   171   173    1
   222   171   242    1
   223   172   243    1
   224   172   244    1
   225   172   245    1
   226   173   174    1
   227   174   175    1
   228   174   177    1
   229   174   246    1
   230   175   176    1
   231   175   247    1
   232   175   248    1
   233   176   249    1
   234   176   250    1
   235   176   251    1
   236   177   178    2
   237   177   179    1
   238   179   180    1
   239   179   190    1
   240   180   181    1
   241   180   252    1
   242   180   253    1
   243   181   182    1
   244   181   254    1
   245   181   255    1
   246   182   183    1
   247   182   256    1
   248   182   257    1
   249   183   184    1
   250   183   258    1
   251   183   259    1
   252   184   185    1
   253   184   260    1
   254   184   261    1
   255   185   186    1
   256   185   262    1
   257   185   263    1
   258   186   187    1
   259   186   264    1
   260   186   265    1
   261   187   188    1
   262   187   266    1
   263   187   267    1
   264   188   189    1
   265   188   268    1
   266   188   269    1
   267   189   270    1
   268   189   271    1
   269   189   272    1
   270   190   191    1
   271   190   273    1
   272   190   274    1
   273   191   192    1
   274   191   275    1
   275   191   276    1
   276   192   193    1
   277   192   277    1
   278   192   278    1
   279   193   194    1
   280   193   279    1
   281   193   280    1
   282   194   195    1
   283   194   281    1
   284   194   282    1
   285   195   196    1
   286   195   283    1
   287   195   284    1
   288   196   197    1
   289   196   285    1
   290   196   286    1
   291   197   198    1
   292   197   287    1
   293   197   288    1
   294   198   199    1
   295   198   289    1
   296   198   290    1
   297   199   291    1
   298   199   292    1
   299   199   293    1
   300   294   295    1
   301   294   346    1
   302   294   347    1
   303   294   348    1
   304   295   296    1
   305   295   349    1
   306   295   350    1
   307   296   297    1
   308   296   351    1
   309   296   352    1
   310   297   298    1
   311   297   353    1
   312   297   354    1
   313   298   299    1
   314   298   355    1
   315   298   356    1
   316   299   300    1
   317   299   357    1
   318   299   358    1
   319   300   301    1
   320   300   359    1
   321   300   360    1
   322   301   302    1
   323   301   361    1
   324   301   362    1
   325   302   303    1
   326   302   363    1
   327   302   364    1
   328   303   304    1
   329   303   365    1
   330   303   366    1
   331   304   305    1
   332   304   315    1
   333   305   306    1
   334   305   367    1
   335   305   368    1
   336   306   307    1
   337   306   369    1
   338   306   370    1
   339   307   308    1
   340   307   371    1
   341   307   372    1
   342   308   309    1
   343   308   373    1
   344   308   374    1
   345   309   310    1
   346   309   375    1
   347   309   376    1
   348   310   311    1
   349   310   377    1
   350   310   378    1
   351   311   312    1
   352   311   379    1
   353   311   380    1
   354   312   313    1
   355   312   381    1
   356   312   382    1
   357   313   314    1
   358   313   383    1
   359   313   384    1
   360   314   385    1
   361   314   386    1
   362   314   387    1
   363   315   316    2
   364   315   317    1
   365   317   318    1
   366   317   319    1
   367   317   388    1
   368   318   389    1
   369   318   390    1
   370   318   391    1
   371   319   320    1
   372   320   321    1
   373   320   323    1
   374   320   392    1
   375   321   322    1
   376   321   393    1
   377   321   394    1
   378   322   395    1
   379   322   396    1
   380   322   397    1
   381   323   324    2
   382   323   325    1
   383   325   326    1
   384   325   336    1
   385   326   327    1
   386   326   398    1
   387   326   399    1
   388   327   328    1
   389   327   400    1
   390   327   401    1
   391   328   329    1
   392   328   402    1
   393   328   403    1
   394   329   330    1
   395   329   404    1
   396   329   405    1
   397   330   331    1
   398   330   406    1
   399   330   407    1
   400   331   332    1
   401   331   408    1
   402   331   409    1
   403   332   333    1
   404   332   410    1
   405   332   411    1
   406   333   334    1
   407   333   412    1
   408   333   413    1
   409   334   335    1
   410   334   414    1
   411   334   415    1
   412   335   416    1
   413   335   417    1
   414   335   418    1
   415   336   337    1
   416   336   419    1
   417   336   420    1
   418   337   338    1
   419   337   421    1
   420   337   422    1
   421   338   339    1
   422   338   423    1
   423   338   424    1
   424   339   340    1
   425   339   425    1
   426   339   426    1
   427   340   341    1
   428   340   427    1
   429   340   428    1
   430   341   342    1
   431   341   429    1
   432   341   430    1
   433   342   343    1
   434   342   431    1
   435   342   432    1
   436   343   344    1
   437   343   433    1
   438   343   434    1
   439   344   345    1
   440   344   435    1
   441   344   436    1
   442   345   437    1
   443   345   438    1
   444   345   439    1
@<TRIPOS>SUBSTRUCTURE
     1 RES1      439 GROUP             0 ****  ****    0  
