@<TRIPOS>MOLECULE
tri_tri_mer_capped_0_nunpairedes_0_charge_3 Charge: 3 Unpaired_Electrons: 7 XTB_Unpaired_Electrons: 0 XTB_Charge: 3
   394   399     1     0     0
SMALL
NoCharges
****
Generated from Architector

@<TRIPOS>ATOM
     1 Gd1      -0.0037   -0.1591    0.0265   Gd        1 RES1   0.0000
     2 C1       -1.4268    8.0517   -2.6532   C.3       1 RES1   0.0000
     3 C2       -0.9607    8.7542   -1.3825   C.3       1 RES1   0.0000
     4 C3       -1.2295    7.9964   -0.0730   C.3       1 RES1   0.0000
     5 C4       -0.1064    7.0677    0.4063   C.3       1 RES1   0.0000
     6 C5       -0.3273    6.5472    1.8430   C.3       1 RES1   0.0000
     7 C6       -0.8188    5.0979    2.0356   C.3       1 RES1   0.0000
     8 C7        0.2548    3.9896    1.9194   C.3       1 RES1   0.0000
     9 C8        0.5680    3.3473    3.2803   C.3       1 RES1   0.0000
    10 N1        1.6377    2.3247    3.3421   N.am      1 RES1   0.0000
    11 C9        2.5675    2.5408    4.4432   C.3       1 RES1   0.0000
    12 C10       1.9519    2.2175    5.8166   C.3       1 RES1   0.0000
    13 C11       2.5909    3.0579    6.9297   C.3       1 RES1   0.0000
    14 C12       4.1275    2.9824    6.9644   C.3       1 RES1   0.0000
    15 C13       4.8130    4.3388    7.2142   C.3       1 RES1   0.0000
    16 C14       5.9007    4.6155    6.1723   C.3       1 RES1   0.0000
    17 C15       6.3723    6.0701    6.1882   C.3       1 RES1   0.0000
    18 C16       7.1079    6.4425    4.9041   C.3       1 RES1   0.0000
    19 C17       1.5728    1.2351    2.5673   C.2       1 RES1   0.0000
    20 O1        0.5765    1.0736    1.8362   O.2       1 RES1   0.0000
    21 C18       2.7694    0.2341    2.3602   C.3       1 RES1   0.0000
    22 C19       3.4351   -0.4839    3.5473   C.3       1 RES1   0.0000
    23 C20       2.5074   -1.4027    4.3361   C.3       1 RES1   0.0000
    24 C21       3.1998   -1.9574    5.5749   C.3       1 RES1   0.0000
    25 O2        2.2663   -0.7118    1.3893   O.3       1 RES1   0.0000
    26 C22       3.1400   -1.6952    0.8094   C.3       1 RES1   0.0000
    27 C23       4.2059   -1.1402   -0.1747   C.3       1 RES1   0.0000
    28 C24       5.6502   -1.0998    0.3365   C.3       1 RES1   0.0000
    29 C25       6.6441   -0.8674   -0.8002   C.3       1 RES1   0.0000
    30 C26       2.2314   -2.5462   -0.0971   C.2       1 RES1   0.0000
    31 O3        1.1865   -2.0216   -0.5309   O.2       1 RES1   0.0000
    32 N2        2.6433   -3.7276   -0.5518   N.am      1 RES1   0.0000
    33 C27       1.8702   -4.2855   -1.6591   C.3       1 RES1   0.0000
    34 C28       0.6981   -5.1539   -1.2147   C.3       1 RES1   0.0000
    35 C29      -0.1308   -5.6653   -2.3937   C.3       1 RES1   0.0000
    36 C30       0.5836   -6.7008   -3.2663   C.3       1 RES1   0.0000
    37 C31      -0.4189   -7.5636   -4.0338   C.3       1 RES1   0.0000
    38 C32       0.2470   -8.5259   -5.0169   C.3       1 RES1   0.0000
    39 C33       0.7283   -7.8587   -6.3046   C.3       1 RES1   0.0000
    40 C34       1.2944   -8.8833   -7.2769   C.3       1 RES1   0.0000
    41 C35       3.6866   -4.5406    0.0848   C.3       1 RES1   0.0000
    42 C36       4.1012   -5.7795   -0.7160   C.3       1 RES1   0.0000
    43 C37       5.3274   -6.4824   -0.1244   C.3       1 RES1   0.0000
    44 C38       5.1260   -7.0089    1.2975   C.3       1 RES1   0.0000
    45 C39       6.4047   -7.6326    1.8679   C.3       1 RES1   0.0000
    46 C40       7.6216   -6.7055    1.8052   C.3       1 RES1   0.0000
    47 C41       7.3744   -5.2961    2.3450   C.3       1 RES1   0.0000
    48 C42       8.6726   -4.4964    2.3615   C.3       1 RES1   0.0000
    49 H1       -1.2122    8.6763   -3.5185   H         1 RES1   0.0000
    50 H2       -2.4987    7.8649   -2.6305   H         1 RES1   0.0000
    51 H3       -0.9288    7.0988   -2.7976   H         1 RES1   0.0000
    52 H4       -1.4908    9.7082   -1.3382   H         1 RES1   0.0000
    53 H5        0.1066    8.9766   -1.4510   H         1 RES1   0.0000
    54 H6       -2.1507    7.4150   -0.1716   H         1 RES1   0.0000
    55 H7       -1.3852    8.7510    0.7009   H         1 RES1   0.0000
    56 H8        0.8298    7.6318    0.3824   H         1 RES1   0.0000
    57 H9        0.0071    6.2412   -0.2896   H         1 RES1   0.0000
    58 H10      -1.0693    7.1980    2.3133   H         1 RES1   0.0000
    59 H11       0.6024    6.6894    2.3874   H         1 RES1   0.0000
    60 H12      -1.6177    4.9084    1.3244   H         1 RES1   0.0000
    61 H13      -1.2550    5.0672    3.0353   H         1 RES1   0.0000
    62 H14       1.1407    4.4455    1.4948   H         1 RES1   0.0000
    63 H15      -0.0671    3.1961    1.2471   H         1 RES1   0.0000
    64 H16      -0.3613    2.9153    3.6539   H         1 RES1   0.0000
    65 H17       0.8832    4.1312    3.9679   H         1 RES1   0.0000
    66 H18       2.8592    3.5926    4.4424   H         1 RES1   0.0000
    67 H19       3.4667    1.9590    4.2671   H         1 RES1   0.0000
    68 H20       2.0763    1.1598    6.0477   H         1 RES1   0.0000
    69 H21       0.8785    2.4260    5.7898   H         1 RES1   0.0000
    70 H22       2.1756    2.7407    7.8863   H         1 RES1   0.0000
    71 H23       2.2872    4.0941    6.7871   H         1 RES1   0.0000
    72 H24       4.4862    2.6196    6.0019   H         1 RES1   0.0000
    73 H25       4.4399    2.2613    7.7181   H         1 RES1   0.0000
    74 H26       5.2500    4.3618    8.2109   H         1 RES1   0.0000
    75 H27       4.0709    5.1417    7.1675   H         1 RES1   0.0000
    76 H28       5.4945    4.3955    5.1779   H         1 RES1   0.0000
    77 H29       6.7539    3.9525    6.3337   H         1 RES1   0.0000
    78 H30       7.0227    6.2489    7.0461   H         1 RES1   0.0000
    79 H31       5.5037    6.7240    6.2899   H         1 RES1   0.0000
    80 H32       7.9364    5.7634    4.7176   H         1 RES1   0.0000
    81 H33       7.4953    7.4565    4.9632   H         1 RES1   0.0000
    82 H34       6.4398    6.3991    4.0455   H         1 RES1   0.0000
    83 H35       3.5345    0.8592    1.8765   H         1 RES1   0.0000
    84 H36       4.2580   -1.0751    3.1353   H         1 RES1   0.0000
    85 H37       3.8963    0.2358    4.2204   H         1 RES1   0.0000
    86 H38       2.2077   -2.2332    3.6940   H         1 RES1   0.0000
    87 H39       1.6079   -0.8531    4.6295   H         1 RES1   0.0000
    88 H40       4.0874   -2.5261    5.3118   H         1 RES1   0.0000
    89 H41       2.5359   -2.6106    6.1291   H         1 RES1   0.0000
    90 H42       3.4938   -1.1603    6.2499   H         1 RES1   0.0000
    91 H43       3.6106   -2.2901    1.5970   H         1 RES1   0.0000
    92 H44       4.1873   -1.7623   -1.0723   H         1 RES1   0.0000
    93 H45       3.8909   -0.1438   -0.4882   H         1 RES1   0.0000
    94 H46       5.9103   -2.0427    0.8240   H         1 RES1   0.0000
    95 H47       5.7598   -0.3030    1.0746   H         1 RES1   0.0000
    96 H48       6.5849   -1.6565   -1.5467   H         1 RES1   0.0000
    97 H49       7.6580   -0.8489   -0.4142   H         1 RES1   0.0000
    98 H50       6.4635    0.0881   -1.2864   H         1 RES1   0.0000
    99 H51       2.5297   -4.8408   -2.3180   H         1 RES1   0.0000
   100 H52       1.4798   -3.4361   -2.2214   H         1 RES1   0.0000
   101 H53       0.0634   -4.5573   -0.5556   H         1 RES1   0.0000
   102 H54       1.0590   -6.0176   -0.6545   H         1 RES1   0.0000
   103 H55      -0.4446   -4.8221   -3.0158   H         1 RES1   0.0000
   104 H56      -1.0268   -6.1364   -1.9826   H         1 RES1   0.0000
   105 H57       1.1864   -7.3596   -2.6400   H         1 RES1   0.0000
   106 H58       1.2537   -6.2049   -3.9688   H         1 RES1   0.0000
   107 H59      -1.1165   -6.9241   -4.5763   H         1 RES1   0.0000
   108 H60      -1.0111   -8.1366   -3.3168   H         1 RES1   0.0000
   109 H61      -0.4673   -9.3061   -5.2818   H         1 RES1   0.0000
   110 H62       1.0872   -9.0156   -4.5228   H         1 RES1   0.0000
   111 H63       1.4980   -7.1164   -6.0806   H         1 RES1   0.0000
   112 H64      -0.1098   -7.3384   -6.7743   H         1 RES1   0.0000
   113 H65       2.1294   -9.4116   -6.8270   H         1 RES1   0.0000
   114 H66       1.6410   -8.4029   -8.1863   H         1 RES1   0.0000
   115 H67       0.5367   -9.6111   -7.5494   H         1 RES1   0.0000
   116 H68       3.3084   -4.8656    1.0602   H         1 RES1   0.0000
   117 H69       4.5818   -3.9345    0.2514   H         1 RES1   0.0000
   118 H70       4.3783   -5.4943   -1.7311   H         1 RES1   0.0000
   119 H71       3.2813   -6.4957   -0.7621   H         1 RES1   0.0000
   120 H72       6.1657   -5.7853   -0.1382   H         1 RES1   0.0000
   121 H73       5.5929   -7.3200   -0.7750   H         1 RES1   0.0000
   122 H74       4.3249   -7.7578    1.2997   H         1 RES1   0.0000
   123 H75       4.8314   -6.1884    1.9596   H         1 RES1   0.0000
   124 H76       6.6417   -8.5448    1.3176   H         1 RES1   0.0000
   125 H77       6.2133   -7.9114    2.9081   H         1 RES1   0.0000
   126 H78       7.9777   -6.6303    0.7760   H         1 RES1   0.0000
   127 H79       8.4285   -7.1614    2.3792   H         1 RES1   0.0000
   128 H80       6.9551   -5.3542    3.3537   H         1 RES1   0.0000
   129 H81       6.6549   -4.7644    1.7129   H         1 RES1   0.0000
   130 H82       9.4029   -4.9797    3.0035   H         1 RES1   0.0000
   131 H83       8.5079   -3.4854    2.7321   H         1 RES1   0.0000
   132 H84       9.0917   -4.4373    1.3577   H         1 RES1   0.0000
   133 C43       6.3803    5.8346   -1.5388   C.3       1 RES1   0.0000
   134 C44       5.2375    6.8451   -1.6348   C.3       1 RES1   0.0000
   135 C45       4.0958    6.3771   -2.5547   C.3       1 RES1   0.0000
   136 C46       2.7428    6.1702   -1.8621   C.3       1 RES1   0.0000
   137 C47       1.6029    5.8799   -2.8627   C.3       1 RES1   0.0000
   138 C48       0.9122    4.5023   -2.8398   C.3       1 RES1   0.0000
   139 C49       0.1658    4.0663   -1.5569   C.3       1 RES1   0.0000
   140 C50      -1.3634    4.1756   -1.6837   C.3       1 RES1   0.0000
   141 N3       -2.2204    3.6767   -0.5796   N.am      1 RES1   0.0000
   142 C51      -3.4064    4.5108   -0.3782   C.3       1 RES1   0.0000
   143 C52      -4.4106    4.3850   -1.5527   C.3       1 RES1   0.0000
   144 C53      -4.9319    5.7301   -2.0759   C.3       1 RES1   0.0000
   145 C54      -5.9088    6.4208   -1.1070   C.3       1 RES1   0.0000
   146 C55      -5.4510    7.8095   -0.6346   C.3       1 RES1   0.0000
   147 C56      -4.9103    7.8132    0.7949   C.3       1 RES1   0.0000
   148 C57      -4.5031    9.2174    1.2405   C.3       1 RES1   0.0000
   149 C58      -3.7467    9.2069    2.5648   C.3       1 RES1   0.0000
   150 C59      -2.0280    2.4516   -0.0781   C.2       1 RES1   0.0000
   151 O4       -1.1265    1.7333   -0.5496   O.2       1 RES1   0.0000
   152 C60      -2.7546    1.9189    1.2059   C.3       1 RES1   0.0000
   153 C61      -4.2761    1.7231    1.1274   C.3       1 RES1   0.0000
   154 C62      -4.7094    0.8748   -0.0646   C.3       1 RES1   0.0000
   155 C63      -6.2152    0.6358   -0.0323   C.3       1 RES1   0.0000
   156 O5       -2.0898    0.6636    1.4699   O.3       1 RES1   0.0000
   157 C64      -2.3922   -0.0684    2.6664   C.3       1 RES1   0.0000
   158 C65      -1.8959    0.6127    3.9619   C.3       1 RES1   0.0000
   159 C66      -2.9478    1.3716    4.7730   C.3       1 RES1   0.0000
   160 C67      -2.3521    1.9053    6.0727   C.3       1 RES1   0.0000
   161 C68      -1.5748   -1.3601    2.5455   C.2       1 RES1   0.0000
   162 O6       -0.7425   -1.4545    1.6255   O.2       1 RES1   0.0000
   163 N4       -1.6198   -2.2883    3.4980   N.am      1 RES1   0.0000
   164 C69      -0.5073   -3.2353    3.5125   C.3       1 RES1   0.0000
   165 C70      -0.5928   -4.3199    2.4417   C.3       1 RES1   0.0000
   166 C71       0.6052   -5.2629    2.4816   C.3       1 RES1   0.0000
   167 C72       0.5536   -6.2826    3.6172   C.3       1 RES1   0.0000
   168 C73       1.3285   -7.5415    3.2363   C.3       1 RES1   0.0000
   169 C74       1.4074   -8.5598    4.3724   C.3       1 RES1   0.0000
   170 C75       2.5166   -8.2420    5.3755   C.3       1 RES1   0.0000
   171 C76       2.7209   -9.3918    6.3511   C.3       1 RES1   0.0000
   172 C77      -2.6550   -2.4567    4.5014   C.3       1 RES1   0.0000
   173 C78      -3.1062   -3.9181    4.5762   C.3       1 RES1   0.0000
   174 C79      -4.3968   -4.0581    5.3778   C.3       1 RES1   0.0000
   175 C80      -5.6078   -3.7749    4.4922   C.3       1 RES1   0.0000
   176 C81      -6.9276   -3.7502    5.2623   C.3       1 RES1   0.0000
   177 C82      -6.9527   -2.7503    6.4203   C.3       1 RES1   0.0000
   178 C83      -6.5510   -1.3293    6.0249   C.3       1 RES1   0.0000
   179 C84      -6.7315   -0.3492    7.1790   C.3       1 RES1   0.0000
   180 H85       7.2006    6.2276   -0.9390   H         1 RES1   0.0000
   181 H86       6.7757    5.5984   -2.5270   H         1 RES1   0.0000
   182 H87       6.0564    4.9026   -1.0760   H         1 RES1   0.0000
   183 H88       5.6580    7.7707   -2.0362   H         1 RES1   0.0000
   184 H89       4.8541    7.0674   -0.6361   H         1 RES1   0.0000
   185 H90       4.3958    5.4527   -3.0543   H         1 RES1   0.0000
   186 H91       3.9602    7.1307   -3.3300   H         1 RES1   0.0000
   187 H92       2.5157    7.0944   -1.3243   H         1 RES1   0.0000
   188 H93       2.8203    5.3832   -1.1138   H         1 RES1   0.0000
   189 H94       2.0171    5.9903   -3.8705   H         1 RES1   0.0000
   190 H95       0.8558    6.6596   -2.7406   H         1 RES1   0.0000
   191 H96       1.6745    3.7635   -3.0734   H         1 RES1   0.0000
   192 H97       0.2104    4.5240   -3.6749   H         1 RES1   0.0000
   193 H98       0.5330    4.6860   -0.7471   H         1 RES1   0.0000
   194 H99       0.4172    3.0372   -1.3111   H         1 RES1   0.0000
   195 H100     -1.6647    3.6672   -2.6044   H         1 RES1   0.0000
   196 H101     -1.6052    5.2324   -1.7815   H         1 RES1   0.0000
   197 H102     -3.0830    5.5531   -0.3149   H         1 RES1   0.0000
   198 H103     -3.8810    4.2637    0.5715   H         1 RES1   0.0000
   199 H104     -5.2757    3.7940   -1.2441   H         1 RES1   0.0000
   200 H105     -3.9304    3.8535   -2.3790   H         1 RES1   0.0000
   201 H106     -5.4384    5.5361   -3.0231   H         1 RES1   0.0000
   202 H107     -4.0921    6.3905   -2.2994   H         1 RES1   0.0000
   203 H108     -6.0510    5.7830   -0.2341   H         1 RES1   0.0000
   204 H109     -6.8822    6.5166   -1.5864   H         1 RES1   0.0000
   205 H110     -6.2842    8.5097   -0.6948   H         1 RES1   0.0000
   206 H111     -4.6758    8.1848   -1.3063   H         1 RES1   0.0000
   207 H112     -4.0415    7.1518    0.8642   H         1 RES1   0.0000
   208 H113     -5.6707    7.4248    1.4758   H         1 RES1   0.0000
   209 H114     -5.3957    9.8361    1.3477   H         1 RES1   0.0000
   210 H115     -3.8726    9.6697    0.4713   H         1 RES1   0.0000
   211 H116     -4.3538    8.7614    3.3507   H         1 RES1   0.0000
   212 H117     -3.4857   10.2197    2.8630   H         1 RES1   0.0000
   213 H118     -2.8216    8.6355    2.4830   H         1 RES1   0.0000
   214 H119     -2.5096    2.6405    2.0060   H         1 RES1   0.0000
   215 H120     -4.6032    1.2393    2.0526   H         1 RES1   0.0000
   216 H121     -4.7854    2.6842    1.1015   H         1 RES1   0.0000
   217 H122     -4.1676   -0.0726   -0.0234   H         1 RES1   0.0000
   218 H123     -4.4176    1.3792   -0.9920   H         1 RES1   0.0000
   219 H124     -6.5146    0.1367    0.8883   H         1 RES1   0.0000
   220 H125     -6.5342    0.0254   -0.8713   H         1 RES1   0.0000
   221 H126     -6.7380    1.5858   -0.0939   H         1 RES1   0.0000
   222 H127     -3.4619   -0.2953    2.7108   H         1 RES1   0.0000
   223 H128     -1.4442   -0.1340    4.6195   H         1 RES1   0.0000
   224 H129     -1.0918    1.2799    3.6558   H         1 RES1   0.0000
   225 H130     -3.7796    0.7042    5.0131   H         1 RES1   0.0000
   226 H131     -3.3456    2.2087    4.1967   H         1 RES1   0.0000
   227 H132     -1.9499    1.0934    6.6736   H         1 RES1   0.0000
   228 H133     -3.1174    2.4121    6.6520   H         1 RES1   0.0000
   229 H134     -1.5560    2.6186    5.8685   H         1 RES1   0.0000
   230 H135     -0.4272   -3.6614    4.5100   H         1 RES1   0.0000
   231 H136      0.3925   -2.6498    3.3200   H         1 RES1   0.0000
   232 H137     -0.6346   -3.8179    1.4717   H         1 RES1   0.0000
   233 H138     -1.4977   -4.9128    2.5638   H         1 RES1   0.0000
   234 H139      1.5290   -4.6830    2.5417   H         1 RES1   0.0000
   235 H140      0.6197   -5.8122    1.5418   H         1 RES1   0.0000
   236 H141     -0.4809   -6.5652    3.8147   H         1 RES1   0.0000
   237 H142      0.9617   -5.8530    4.5305   H         1 RES1   0.0000
   238 H143      2.3445   -7.2731    2.9386   H         1 RES1   0.0000
   239 H144      0.8412   -7.9992    2.3713   H         1 RES1   0.0000
   240 H145      1.5971   -9.5481    3.9504   H         1 RES1   0.0000
   241 H146      0.4467   -8.6116    4.8890   H         1 RES1   0.0000
   242 H147      2.2717   -7.3321    5.9300   H         1 RES1   0.0000
   243 H148      3.4465   -8.0593    4.8287   H         1 RES1   0.0000
   244 H149      1.8076   -9.5863    6.9051   H         1 RES1   0.0000
   245 H150      3.5104   -9.1634    7.0595   H         1 RES1   0.0000
   246 H151      2.9960  -10.2951    5.8148   H         1 RES1   0.0000
   247 H152     -3.5042   -1.8211    4.2483   H         1 RES1   0.0000
   248 H153     -2.2888   -2.1445    5.4858   H         1 RES1   0.0000
   249 H154     -3.2958   -4.2778    3.5650   H         1 RES1   0.0000
   250 H155     -2.3297   -4.5350    5.0264   H         1 RES1   0.0000
   251 H156     -4.3707   -3.3716    6.2224   H         1 RES1   0.0000
   252 H157     -4.4785   -5.0693    5.7780   H         1 RES1   0.0000
   253 H158     -5.6551   -4.5524    3.7232   H         1 RES1   0.0000
   254 H159     -5.4776   -2.8193    3.9744   H         1 RES1   0.0000
   255 H160     -7.1329   -4.7457    5.6586   H         1 RES1   0.0000
   256 H161     -7.7266   -3.5147    4.5567   H         1 RES1   0.0000
   257 H162     -6.2997   -3.0999    7.2211   H         1 RES1   0.0000
   258 H163     -7.9633   -2.7245    6.8270   H         1 RES1   0.0000
   259 H164     -7.1553   -1.0025    5.1746   H         1 RES1   0.0000
   260 H165     -5.5003   -1.3061    5.7201   H         1 RES1   0.0000
   261 H166     -7.7673   -0.3353    7.5061   H         1 RES1   0.0000
   262 H167     -6.4581    0.6614    6.8772   H         1 RES1   0.0000
   263 H168     -6.1092   -0.6357    8.0251   H         1 RES1   0.0000
   264 C85       1.5967    6.9063    5.0213   C.3       1 RES1   0.0000
   265 C86       2.7332    7.4740    4.1710   C.3       1 RES1   0.0000
   266 C87       3.7159    6.4558    3.5750   C.3       1 RES1   0.0000
   267 C88       3.2757    5.7159    2.3048   C.3       1 RES1   0.0000
   268 C89       4.4146    4.8922    1.6644   C.3       1 RES1   0.0000
   269 C90       4.0865    3.4147    1.3957   C.3       1 RES1   0.0000
   270 C91       3.1460    3.1272    0.2051   C.3       1 RES1   0.0000
   271 C92       3.8984    2.6424   -1.0413   C.3       1 RES1   0.0000
   272 N5        3.1291    2.1459   -2.2079   N.am      1 RES1   0.0000
   273 C93       3.8004    2.4379   -3.4748   C.3       1 RES1   0.0000
   274 C94       5.0151    1.5043   -3.6970   C.3       1 RES1   0.0000
   275 C95       6.2898    2.2692   -4.0620   C.3       1 RES1   0.0000
   276 C96       6.2257    2.8098   -5.5005   C.3       1 RES1   0.0000
   277 C97       6.6375    4.2846   -5.6326   C.3       1 RES1   0.0000
   278 C98       5.4544    5.1563   -6.0534   C.3       1 RES1   0.0000
   279 C99       5.7783    6.6469   -6.0056   C.3       1 RES1   0.0000
   280 C100      4.5239    7.5060   -6.1232   C.3       1 RES1   0.0000
   281 C101      2.1079    1.2945   -2.0660   C.2       1 RES1   0.0000
   282 O7        1.7728    0.8945   -0.9337   O.2       1 RES1   0.0000
   283 C102      1.1797    0.8848   -3.2560   C.3       1 RES1   0.0000
   284 C103      1.7970    0.0779   -4.4108   C.3       1 RES1   0.0000
   285 C104      2.4992   -1.2019   -3.9636   C.3       1 RES1   0.0000
   286 C105      2.9071   -2.0634   -5.1568   C.3       1 RES1   0.0000
   287 O8        0.1181    0.1497   -2.6111   O.3       1 RES1   0.0000
   288 C106     -1.0190   -0.2696   -3.3831   C.3       1 RES1   0.0000
   289 C107     -1.9589    0.8758   -3.8378   C.3       1 RES1   0.0000
   290 C108     -1.8230    1.3326   -5.2946   C.3       1 RES1   0.0000
   291 C109     -2.9346    2.3182   -5.6436   C.3       1 RES1   0.0000
   292 C110     -1.8610   -1.0951   -2.4031   C.2       1 RES1   0.0000
   293 O9       -1.7054   -0.8689   -1.1884   O.2       1 RES1   0.0000
   294 N6       -2.8261   -1.9074   -2.8172   N.am      1 RES1   0.0000
   295 C111     -3.6904   -2.4490   -1.7697   C.3       1 RES1   0.0000
   296 C112     -2.9178   -3.4072   -0.8649   C.3       1 RES1   0.0000
   297 C113     -3.8157   -4.1728    0.0992   C.3       1 RES1   0.0000
   298 C114     -4.4766   -5.3768   -0.5644   C.3       1 RES1   0.0000
   299 C115     -5.0950   -6.3355    0.4618   C.3       1 RES1   0.0000
   300 C116     -6.6224   -6.3927    0.4331   C.3       1 RES1   0.0000
   301 C117     -7.3183   -5.1919    1.0728   C.3       1 RES1   0.0000
   302 C118     -8.8145   -5.4391    1.2062   C.3       1 RES1   0.0000
   303 C119     -3.0640   -2.3094   -4.1922   C.3       1 RES1   0.0000
   304 C120     -3.3482   -3.8092   -4.3297   C.3       1 RES1   0.0000
   305 C121     -3.2893   -4.2646   -5.7871   C.3       1 RES1   0.0000
   306 C122     -1.8518   -4.4074   -6.2877   C.3       1 RES1   0.0000
   307 C123     -1.7599   -4.5430   -7.8085   C.3       1 RES1   0.0000
   308 C124     -2.3618   -3.3688   -8.5855   C.3       1 RES1   0.0000
   309 C125     -1.8388   -1.9989   -8.1532   C.3       1 RES1   0.0000
   310 C126     -2.3540   -0.8831   -9.0577   C.3       1 RES1   0.0000
   311 H169      1.1123    7.7123    5.5742   H         1 RES1   0.0000
   312 H170      1.9776    6.1881    5.7462   H         1 RES1   0.0000
   313 H171      0.8335    6.4181    4.4204   H         1 RES1   0.0000
   314 H172      3.3201    8.1294    4.8193   H         1 RES1   0.0000
   315 H173      2.3260    8.0966    3.3714   H         1 RES1   0.0000
   316 H174      3.9655    5.7208    4.3461   H         1 RES1   0.0000
   317 H175      4.6147    7.0208    3.3229   H         1 RES1   0.0000
   318 H176      2.8944    6.4489    1.5870   H         1 RES1   0.0000
   319 H177      2.4556    5.0510    2.5641   H         1 RES1   0.0000
   320 H178      5.2657    4.9020    2.3475   H         1 RES1   0.0000
   321 H179      4.7495    5.3731    0.7476   H         1 RES1   0.0000
   322 H180      3.6425    3.0258    2.3108   H         1 RES1   0.0000
   323 H181      5.0358    2.8938    1.2425   H         1 RES1   0.0000
   324 H182      2.6033    4.0423   -0.0104   H         1 RES1   0.0000
   325 H183      2.4117    2.3765    0.4807   H         1 RES1   0.0000
   326 H184      4.6065    1.8670   -0.7342   H         1 RES1   0.0000
   327 H185      4.4755    3.4881   -1.4115   H         1 RES1   0.0000
   328 H186      4.1543    3.4717   -3.4409   H         1 RES1   0.0000
   329 H187      3.0895    2.3756   -4.2978   H         1 RES1   0.0000
   330 H188      4.8117    0.7918   -4.4993   H         1 RES1   0.0000
   331 H189      5.1852    0.9273   -2.7861   H         1 RES1   0.0000
   332 H190      7.1418    1.5970   -3.9518   H         1 RES1   0.0000
   333 H191      6.4462    3.0859   -3.3559   H         1 RES1   0.0000
   334 H192      5.1996    2.7141   -5.8600   H         1 RES1   0.0000
   335 H193      6.8465    2.1902   -6.1455   H         1 RES1   0.0000
   336 H194      7.4481    4.3890   -6.3533   H         1 RES1   0.0000
   337 H195      7.0202    4.6411   -4.6733   H         1 RES1   0.0000
   338 H196      4.6115    4.9558   -5.3839   H         1 RES1   0.0000
   339 H197      5.1418    4.8828   -7.0636   H         1 RES1   0.0000
   340 H198      6.4654    6.8965   -6.8143   H         1 RES1   0.0000
   341 H199      6.2793    6.8754   -5.0622   H         1 RES1   0.0000
   342 H200      3.9528    7.2413   -7.0107   H         1 RES1   0.0000
   343 H201      4.7862    8.5597   -6.1751   H         1 RES1   0.0000
   344 H202      3.8756    7.3692   -5.2586   H         1 RES1   0.0000
   345 H203      0.7709    1.8306   -3.6493   H         1 RES1   0.0000
   346 H204      0.9930   -0.1698   -5.1087   H         1 RES1   0.0000
   347 H205      2.4946    0.6966   -4.9670   H         1 RES1   0.0000
   348 H206      1.8239   -1.7630   -3.3125   H         1 RES1   0.0000
   349 H207      3.3869   -0.9378   -3.3814   H         1 RES1   0.0000
   350 H208      2.0392   -2.3758   -5.7349   H         1 RES1   0.0000
   351 H209      3.4329   -2.9545   -4.8247   H         1 RES1   0.0000
   352 H210      3.5753   -1.5152   -5.8161   H         1 RES1   0.0000
   353 H211     -0.6867   -0.8680   -4.2364   H         1 RES1   0.0000
   354 H212     -2.9959    0.5537   -3.6966   H         1 RES1   0.0000
   355 H213     -1.7926    1.7119   -3.1551   H         1 RES1   0.0000
   356 H214     -1.8878    0.4685   -5.9618   H         1 RES1   0.0000
   357 H215     -0.8586    1.8148   -5.4633   H         1 RES1   0.0000
   358 H216     -3.9080    1.8509   -5.5260   H         1 RES1   0.0000
   359 H217     -2.8416    2.6554   -6.6705   H         1 RES1   0.0000
   360 H218     -2.8875    3.1933   -4.9992   H         1 RES1   0.0000
   361 H219     -4.5421   -2.9403   -2.2302   H         1 RES1   0.0000
   362 H220     -4.0701   -1.6096   -1.1860   H         1 RES1   0.0000
   363 H221     -2.1685   -2.8360   -0.3067   H         1 RES1   0.0000
   364 H222     -2.3911   -4.1230   -1.4956   H         1 RES1   0.0000
   365 H223     -4.5696   -3.5072    0.5238   H         1 RES1   0.0000
   366 H224     -3.1859   -4.5317    0.9143   H         1 RES1   0.0000
   367 H225     -3.7197   -5.9059   -1.1484   H         1 RES1   0.0000
   368 H226     -5.2381   -5.0380   -1.2654   H         1 RES1   0.0000
   369 H227     -4.7691   -6.0506    1.4649   H         1 RES1   0.0000
   370 H228     -4.7176   -7.3406    0.2768   H         1 RES1   0.0000
   371 H229     -6.9384   -7.2840    0.9764   H         1 RES1   0.0000
   372 H230     -6.9600   -6.5096   -0.5985   H         1 RES1   0.0000
   373 H231     -7.1433   -4.2856    0.4866   H         1 RES1   0.0000
   374 H232     -6.8975   -5.0308    2.0674   H         1 RES1   0.0000
   375 H233     -9.2657   -5.5783    0.2299   H         1 RES1   0.0000
   376 H234     -9.3100   -4.6078    1.6978   H         1 RES1   0.0000
   377 H235     -8.9949   -6.3339    1.7935   H         1 RES1   0.0000
   378 H236     -2.1851   -2.0562   -4.7839   H         1 RES1   0.0000
   379 H237     -3.9034   -1.7382   -4.6029   H         1 RES1   0.0000
   380 H238     -4.3372   -4.0428   -3.9415   H         1 RES1   0.0000
   381 H239     -2.6118   -4.3759   -3.7608   H         1 RES1   0.0000
   382 H240     -3.8384   -3.5534   -6.4031   H         1 RES1   0.0000
   383 H241     -3.7878   -5.2316   -5.8782   H         1 RES1   0.0000
   384 H242     -1.4052   -5.2911   -5.8222   H         1 RES1   0.0000
   385 H243     -1.2521   -3.5488   -5.9725   H         1 RES1   0.0000
   386 H244     -2.2716   -5.4560   -8.1155   H         1 RES1   0.0000
   387 H245     -0.7061   -4.6539   -8.0743   H         1 RES1   0.0000
   388 H246     -3.4488   -3.3825   -8.4965   H         1 RES1   0.0000
   389 H247     -2.1335   -3.5101   -9.6415   H         1 RES1   0.0000
   390 H248     -0.7449   -2.0029   -8.1723   H         1 RES1   0.0000
   391 H249     -2.1619   -1.7824   -7.1300   H         1 RES1   0.0000
   392 H250     -2.0560   -1.0612  -10.0878   H         1 RES1   0.0000
   393 H251     -1.9520    0.0829   -8.7502   H         1 RES1   0.0000
   394 H252     -3.4412   -0.8309   -9.0190   H         1 RES1   0.0000
@<TRIPOS>BOND
     1     1    20    1
     2     1    25    1
     3     1    31    1
     4     1   151    1
     5     1   156    1
     6     1   162    1
     7     1   282    1
     8     1   287    1
     9     1   293    1
    10     2     3    1
    11     2    49    1
    12     2    50    1
    13     2    51    1
    14     3     4    1
    15     3    52    1
    16     3    53    1
    17     4     5    1
    18     4    54    1
    19     4    55    1
    20     5     6    1
    21     5    56    1
    22     5    57    1
    23     6     7    1
    24     6    58    1
    25     6    59    1
    26     7     8    1
    27     7    60    1
    28     7    61    1
    29     8     9    1
    30     8    62    1
    31     8    63    1
    32     9    10    1
    33     9    64    1
    34     9    65    1
    35    10    11    1
    36    10    19    1
    37    11    12    1
    38    11    66    1
    39    11    67    1
    40    12    13    1
    41    12    68    1
    42    12    69    1
    43    13    14    1
    44    13    70    1
    45    13    71    1
    46    14    15    1
    47    14    72    1
    48    14    73    1
    49    15    16    1
    50    15    74    1
    51    15    75    1
    52    16    17    1
    53    16    76    1
    54    16    77    1
    55    17    18    1
    56    17    78    1
    57    17    79    1
    58    18    80    1
    59    18    81    1
    60    18    82    1
    61    19    20    2
    62    19    21    1
    63    21    22    1
    64    21    25    1
    65    21    83    1
    66    22    23    1
    67    22    84    1
    68    22    85    1
    69    23    24    1
    70    23    86    1
    71    23    87    1
    72    24    88    1
    73    24    89    1
    74    24    90    1
    75    25    26    1
    76    26    27    1
    77    26    30    1
    78    26    91    1
    79    27    28    1
    80    27    92    1
    81    27    93    1
    82    28    29    1
    83    28    94    1
    84    28    95    1
    85    29    96    1
    86    29    97    1
    87    29    98    1
    88    30    31    2
    89    30    32    1
    90    32    33    1
    91    32    41    1
    92    33    34    1
    93    33    99    1
    94    33   100    1
    95    34    35    1
    96    34   101    1
    97    34   102    1
    98    35    36    1
    99    35   103    1
   100    35   104    1
   101    36    37    1
   102    36   105    1
   103    36   106    1
   104    37    38    1
   105    37   107    1
   106    37   108    1
   107    38    39    1
   108    38   109    1
   109    38   110    1
   110    39    40    1
   111    39   111    1
   112    39   112    1
   113    40   113    1
   114    40   114    1
   115    40   115    1
   116    41    42    1
   117    41   116    1
   118    41   117    1
   119    42    43    1
   120    42   118    1
   121    42   119    1
   122    43    44    1
   123    43   120    1
   124    43   121    1
   125    44    45    1
   126    44   122    1
   127    44   123    1
   128    45    46    1
   129    45   124    1
   130    45   125    1
   131    46    47    1
   132    46   126    1
   133    46   127    1
   134    47    48    1
   135    47   128    1
   136    47   129    1
   137    48   130    1
   138    48   131    1
   139    48   132    1
   140   133   134    1
   141   133   180    1
   142   133   181    1
   143   133   182    1
   144   134   135    1
   145   134   183    1
   146   134   184    1
   147   135   136    1
   148   135   185    1
   149   135   186    1
   150   136   137    1
   151   136   187    1
   152   136   188    1
   153   137   138    1
   154   137   189    1
   155   137   190    1
   156   138   139    1
   157   138   191    1
   158   138   192    1
   159   139   140    1
   160   139   193    1
   161   139   194    1
   162   140   141    1
   163   140   195    1
   164   140   196    1
   165   141   142    1
   166   141   150    1
   167   142   143    1
   168   142   197    1
   169   142   198    1
   170   143   144    1
   171   143   199    1
   172   143   200    1
   173   144   145    1
   174   144   201    1
   175   144   202    1
   176   145   146    1
   177   145   203    1
   178   145   204    1
   179   146   147    1
   180   146   205    1
   181   146   206    1
   182   147   148    1
   183   147   207    1
   184   147   208    1
   185   148   149    1
   186   148   209    1
   187   148   210    1
   188   149   211    1
   189   149   212    1
   190   149   213    1
   191   150   151    2
   192   150   152    1
   193   152   153    1
   194   152   156    1
   195   152   214    1
   196   153   154    1
   197   153   215    1
   198   153   216    1
   199   154   155    1
   200   154   217    1
   201   154   218    1
   202   155   219    1
   203   155   220    1
   204   155   221    1
   205   156   157    1
   206   157   158    1
   207   157   161    1
   208   157   222    1
   209   158   159    1
   210   158   223    1
   211   158   224    1
   212   159   160    1
   213   159   225    1
   214   159   226    1
   215   160   227    1
   216   160   228    1
   217   160   229    1
   218   161   162    2
   219   161   163    1
   220   163   164    1
   221   163   172    1
   222   164   165    1
   223   164   230    1
   224   164   231    1
   225   165   166    1
   226   165   232    1
   227   165   233    1
   228   166   167    1
   229   166   234    1
   230   166   235    1
   231   167   168    1
   232   167   236    1
   233   167   237    1
   234   168   169    1
   235   168   238    1
   236   168   239    1
   237   169   170    1
   238   169   240    1
   239   169   241    1
   240   170   171    1
   241   170   242    1
   242   170   243    1
   243   171   244    1
   244   171   245    1
   245   171   246    1
   246   172   173    1
   247   172   247    1
   248   172   248    1
   249   173   174    1
   250   173   249    1
   251   173   250    1
   252   174   175    1
   253   174   251    1
   254   174   252    1
   255   175   176    1
   256   175   253    1
   257   175   254    1
   258   176   177    1
   259   176   255    1
   260   176   256    1
   261   177   178    1
   262   177   257    1
   263   177   258    1
   264   178   179    1
   265   178   259    1
   266   178   260    1
   267   179   261    1
   268   179   262    1
   269   179   263    1
   270   264   265    1
   271   264   311    1
   272   264   312    1
   273   264   313    1
   274   265   266    1
   275   265   314    1
   276   265   315    1
   277   266   267    1
   278   266   316    1
   279   266   317    1
   280   267   268    1
   281   267   318    1
   282   267   319    1
   283   268   269    1
   284   268   320    1
   285   268   321    1
   286   269   270    1
   287   269   322    1
   288   269   323    1
   289   270   271    1
   290   270   324    1
   291   270   325    1
   292   271   272    1
   293   271   326    1
   294   271   327    1
   295   272   273    1
   296   272   281    1
   297   273   274    1
   298   273   328    1
   299   273   329    1
   300   274   275    1
   301   274   330    1
   302   274   331    1
   303   275   276    1
   304   275   332    1
   305   275   333    1
   306   276   277    1
   307   276   334    1
   308   276   335    1
   309   277   278    1
   310   277   336    1
   311   277   337    1
   312   278   279    1
   313   278   338    1
   314   278   339    1
   315   279   280    1
   316   279   340    1
   317   279   341    1
   318   280   342    1
   319   280   343    1
   320   280   344    1
   321   281   282    2
   322   281   283    1
   323   283   284    1
   324   283   287    1
   325   283   345    1
   326   284   285    1
   327   284   346    1
   328   284   347    1
   329   285   286    1
   330   285   348    1
   331   285   349    1
   332   286   350    1
   333   286   351    1
   334   286   352    1
   335   287   288    1
   336   288   289    1
   337   288   292    1
   338   288   353    1
   339   289   290    1
   340   289   354    1
   341   289   355    1
   342   290   291    1
   343   290   356    1
   344   290   357    1
   345   291   358    1
   346   291   359    1
   347   291   360    1
   348   292   293    2
   349   292   294    1
   350   294   295    1
   351   294   303    1
   352   295   296    1
   353   295   361    1
   354   295   362    1
   355   296   297    1
   356   296   363    1
   357   296   364    1
   358   297   298    1
   359   297   365    1
   360   297   366    1
   361   298   299    1
   362   298   367    1
   363   298   368    1
   364   299   300    1
   365   299   369    1
   366   299   370    1
   367   300   301    1
   368   300   371    1
   369   300   372    1
   370   301   302    1
   371   301   373    1
   372   301   374    1
   373   302   375    1
   374   302   376    1
   375   302   377    1
   376   303   304    1
   377   303   378    1
   378   303   379    1
   379   304   305    1
   380   304   380    1
   381   304   381    1
   382   305   306    1
   383   305   382    1
   384   305   383    1
   385   306   307    1
   386   306   384    1
   387   306   385    1
   388   307   308    1
   389   307   386    1
   390   307   387    1
   391   308   309    1
   392   308   388    1
   393   308   389    1
   394   309   310    1
   395   309   390    1
   396   309   391    1
   397   310   392    1
   398   310   393    1
   399   310   394    1
@<TRIPOS>SUBSTRUCTURE
     1 RES1      394 GROUP             0 ****  ****    0  
