@<TRIPOS>MOLECULE
ICIGOT_geomtry_0_nunpairedes_0_charge_3 Charge: 3 Unpaired_Electrons: 0 XTB_Unpaired_Electrons: 0 XTB_Charge: 3
    61    66     1     0     0
SMALL
NoCharges
****
Generated from Architector

@<TRIPOS>ATOM
     1 Lu1       0.3549    0.1159    0.0798   Lu        1 RES1   0.0000
     2 C1        2.9960   -1.1929    0.7590   C.3       1 RES1   0.0000
     3 O1        1.6005   -1.5860    0.8148   O.3       1 RES1   0.0000
     4 C2        1.2808   -2.4111    1.9531   C.3       1 RES1   0.0000
     5 C3        0.9570   -1.6384    3.2448   C.3       1 RES1   0.0000
     6 N1       -0.1682   -0.6999    3.1540   N.am      1 RES1   0.0000
     7 C4       -1.5036   -1.1655    3.4694   C.3       1 RES1   0.0000
     8 C5       -2.2115   -1.6073    2.1747   C.3       1 RES1   0.0000
     9 O2       -2.0411   -0.5915    1.1622   O.3       1 RES1   0.0000
    10 C6       -3.3000   -0.0937    0.6759   C.3       1 RES1   0.0000
    11 C7        0.1097    0.4989    2.6296   C.2       1 RES1   0.0000
    12 O3        1.2202    0.6813    2.1015   O.2       1 RES1   0.0000
    13 C8       -0.8508    1.6903    2.4685   C.3       1 RES1   0.0000
    14 O4       -0.8046    2.0214    1.0594   O.3       1 RES1   0.0000
    15 C9        0.0565    3.1016    0.6142   C.3       1 RES1   0.0000
    16 C10       0.9139    2.4838   -0.5019   C.2       1 RES1   0.0000
    17 O5        1.7761    1.6604   -0.1419   O.2       1 RES1   0.0000
    18 N2        0.7052    2.6628   -1.8052   N.am      1 RES1   0.0000
    19 C11       1.7049    2.0747   -2.7032   C.3       1 RES1   0.0000
    20 C12       1.4172    0.6429   -3.1642   C.3       1 RES1   0.0000
    21 O6        1.3386   -0.2738   -2.0475   O.3       1 RES1   0.0000
    22 C13       1.5658   -1.6305   -2.4825   C.3       1 RES1   0.0000
    23 C14      -0.5261    3.1875   -2.3660   C.3       1 RES1   0.0000
    24 C15      -1.7372    2.3378   -1.9080   C.3       1 RES1   0.0000
    25 O7       -1.3613    0.9518   -1.7425   O.3       1 RES1   0.0000
    26 C16      -2.0355    0.0856   -2.6812   C.3       1 RES1   0.0000
    27 H1        3.6296   -2.0777    0.6446   H         1 RES1   0.0000
    28 H2        3.2961   -0.6348    1.6490   H         1 RES1   0.0000
    29 H3        3.1154   -0.5286   -0.1049   H         1 RES1   0.0000
    30 H4        2.1239   -3.0800    2.1604   H         1 RES1   0.0000
    31 H5        0.4265   -3.0204    1.6434   H         1 RES1   0.0000
    32 H6        1.8379   -1.0645    3.5383   H         1 RES1   0.0000
    33 H7        0.7385   -2.3528    4.0395   H         1 RES1   0.0000
    34 H8       -2.0687   -0.3729    3.9589   H         1 RES1   0.0000
    35 H9       -1.4445   -2.0042    4.1652   H         1 RES1   0.0000
    36 H10      -3.2705   -1.7730    2.3901   H         1 RES1   0.0000
    37 H11      -1.7833   -2.5429    1.7984   H         1 RES1   0.0000
    38 H12      -3.8194   -0.8596    0.0919   H         1 RES1   0.0000
    39 H13      -3.0891    0.7739    0.0535   H         1 RES1   0.0000
    40 H14      -3.9539    0.2131    1.4949   H         1 RES1   0.0000
    41 H15      -0.5143    2.5381    3.0768   H         1 RES1   0.0000
    42 H16      -1.8985    1.4828    2.6914   H         1 RES1   0.0000
    43 H17       0.7273    3.4348    1.4162   H         1 RES1   0.0000
    44 H18      -0.5759    3.9439    0.3232   H         1 RES1   0.0000
    45 H19       2.6709    2.0861   -2.1888   H         1 RES1   0.0000
    46 H20       1.7879    2.7126   -3.5836   H         1 RES1   0.0000
    47 H21       2.2537    0.3474   -3.8088   H         1 RES1   0.0000
    48 H22       0.4924    0.5794   -3.7497   H         1 RES1   0.0000
    49 H23       0.7514   -1.9724   -3.1325   H         1 RES1   0.0000
    50 H24       1.6347   -2.2616   -1.5924   H         1 RES1   0.0000
    51 H25       2.5091   -1.7083   -3.0305   H         1 RES1   0.0000
    52 H26      -0.4231    3.1413   -3.4500   H         1 RES1   0.0000
    53 H27      -0.6780    4.2350   -2.0937   H         1 RES1   0.0000
    54 H28      -2.5278    2.4306   -2.6569   H         1 RES1   0.0000
    55 H29      -2.1345    2.7004   -0.9548   H         1 RES1   0.0000
    56 H30      -3.0409   -0.1559   -2.3251   H         1 RES1   0.0000
    57 H31      -1.4534   -0.8306   -2.7779   H         1 RES1   0.0000
    58 H32      -2.1222    0.5435   -3.6695   H         1 RES1   0.0000
    59 O8       -0.7692   -2.0827   -0.6186   O.3       1 RES1   0.0000
    60 H33      -1.6972   -2.0744   -0.8944   H         1 RES1   0.0000
    61 H34      -0.4912   -2.9976   -0.7768   H         1 RES1   0.0000
@<TRIPOS>BOND
     1     1     3    1
     2     1     9    1
     3     1    12    1
     4     1    14    1
     5     1    17    1
     6     1    21    1
     7     1    25    1
     8     1    59    1
     9     2     3    1
    10     2    27    1
    11     2    28    1
    12     2    29    1
    13     3     4    1
    14     4     5    1
    15     4    30    1
    16     4    31    1
    17     5     6    1
    18     5    32    1
    19     5    33    1
    20     6     7    1
    21     6    11    1
    22     7     8    1
    23     7    34    1
    24     7    35    1
    25     8     9    1
    26     8    36    1
    27     8    37    1
    28     9    10    1
    29    10    38    1
    30    10    39    1
    31    10    40    1
    32    11    12    2
    33    11    13    1
    34    13    14    1
    35    13    41    1
    36    13    42    1
    37    14    15    1
    38    15    16    1
    39    15    43    1
    40    15    44    1
    41    16    17    2
    42    16    18    1
    43    18    19    1
    44    18    23    1
    45    19    20    1
    46    19    45    1
    47    19    46    1
    48    20    21    1
    49    20    47    1
    50    20    48    1
    51    21    22    1
    52    22    49    1
    53    22    50    1
    54    22    51    1
    55    23    24    1
    56    23    52    1
    57    23    53    1
    58    24    25    1
    59    24    54    1
    60    24    55    1
    61    25    26    1
    62    26    56    1
    63    26    57    1
    64    26    58    1
    65    59    60    1
    66    59    61    1
@<TRIPOS>SUBSTRUCTURE
     1 RES1       61 GROUP             0 ****  ****    0  
