@<TRIPOS>MOLECULE
capped_square_antiprismatic_0_nunpairedes_0_charge_3 Charge: 3 Unpaired_Electrons: 6 XTB_Unpaired_Electrons: 0 XTB_Charge: 3
   283   297     1     0     0
SMALL
NoCharges
****
Generated from Architector

@<TRIPOS>ATOM
     1 Eu1      -0.0081    0.0285    0.1102   Eu        1 RES1   0.0000
     2 C1        2.4801    3.5554    5.2137   C.3       1 RES1   0.0000
     3 C2        1.2858    4.0323    6.0323   C.3       1 RES1   0.0000
     4 C3        0.5661    2.9083    6.7820   C.3       1 RES1   0.0000
     5 C4        1.4124    2.2894    7.8948   C.3       1 RES1   0.0000
     6 C5        0.6031    1.5403    8.9562   C.3       1 RES1   0.0000
     7 C6       -0.0057    0.2176    8.4773   C.3       1 RES1   0.0000
     8 C7       -1.4470    0.3281    7.9751   C.3       1 RES1   0.0000
     9 C8       -1.8922   -0.9901    7.3310   C.3       1 RES1   0.0000
    10 O1       -0.9334   -1.5072    6.4086   O.3       1 RES1   0.0000
    11 C9       -0.6542   -0.9020    5.2664   C.ar      1 RES1   0.0000
    12 C10       0.4415   -1.3974    4.5390   C.ar      1 RES1   0.0000
    13 C11       0.7372   -0.8302    3.3119   C.ar      1 RES1   0.0000
    14 C12       1.7618   -1.4092    2.3822   C.2       1 RES1   0.0000
    15 O2        1.5227   -1.3775    1.1570   O.2       1 RES1   0.0000
    16 N1        2.8093   -2.0701    2.8807   N.am      1 RES1   0.0000
    17 C13       3.5427   -2.9522    1.9877   C.3       1 RES1   0.0000
    18 C14       3.4422   -1.6972    4.0955   C.ar      1 RES1   0.0000
    19 C15       3.5228   -0.3536    4.4434   C.ar      1 RES1   0.0000
    20 C16       4.2731    0.0378    5.5359   C.ar      1 RES1   0.0000
    21 C17       4.9709   -0.8886    6.3068   C.ar      1 RES1   0.0000
    22 C18       5.9039   -0.5109    7.4436   C.3       1 RES1   0.0000
    23 C19       5.5906   -1.3561    8.6887   C.3       1 RES1   0.0000
    24 C20       7.3266   -0.8191    6.9449   C.3       1 RES1   0.0000
    25 C21       5.8245    0.9694    7.8335   C.3       1 RES1   0.0000
    26 C22       4.8551   -2.2330    5.9518   C.ar      1 RES1   0.0000
    27 C23       4.1064   -2.6432    4.8664   C.ar      1 RES1   0.0000
    28 N2       -0.0248    0.1084    2.7469   N.ar      1 RES1   0.0000
    29 C24      -1.1070    0.5551    3.4032   C.ar      1 RES1   0.0000
    30 C25      -1.8367    1.5469    2.5292   C.2       1 RES1   0.0000
    31 O3       -1.4021    1.6542    1.3700   O.2       1 RES1   0.0000
    32 N3       -2.8301    2.3544    2.9779   N.am      1 RES1   0.0000
    33 C26      -3.8305    1.8653    3.9117   C.3       1 RES1   0.0000
    34 C27      -2.9544    3.7067    2.5301   C.ar      1 RES1   0.0000
    35 C28      -1.9360    4.3354    1.8176   C.ar      1 RES1   0.0000
    36 C29      -1.9354    5.7026    1.6181   C.ar      1 RES1   0.0000
    37 C30      -2.9400    6.5204    2.1206   C.ar      1 RES1   0.0000
    38 C31      -2.8998    8.0350    2.0599   C.3       1 RES1   0.0000
    39 C32      -3.1910    8.5971    3.4596   C.3       1 RES1   0.0000
    40 C33      -1.5489    8.5909    1.5869   C.3       1 RES1   0.0000
    41 C34      -3.9731    8.5248    1.0810   C.3       1 RES1   0.0000
    42 C35      -4.0177    5.8689    2.7179   C.ar      1 RES1   0.0000
    43 C36      -4.0295    4.5028    2.9287   C.ar      1 RES1   0.0000
    44 C37      -1.4091    0.1340    4.6922   C.ar      1 RES1   0.0000
    45 H1        2.8702    4.3754    4.6123   H         1 RES1   0.0000
    46 H2        2.1849    2.7405    4.5502   H         1 RES1   0.0000
    47 H3        3.2759    3.2057    5.8661   H         1 RES1   0.0000
    48 H4        0.5693    4.5173    5.3629   H         1 RES1   0.0000
    49 H5        1.6256    4.7798    6.7510   H         1 RES1   0.0000
    50 H6        0.2656    2.1383    6.0626   H         1 RES1   0.0000
    51 H7       -0.3374    3.3348    7.2250   H         1 RES1   0.0000
    52 H8        1.9552    3.0897    8.3995   H         1 RES1   0.0000
    53 H9        2.1508    1.6114    7.4627   H         1 RES1   0.0000
    54 H10      -0.1859    2.1872    9.3401   H         1 RES1   0.0000
    55 H11       1.2737    1.3250    9.7881   H         1 RES1   0.0000
    56 H12       0.0154   -0.5078    9.2916   H         1 RES1   0.0000
    57 H13       0.6207   -0.1849    7.6785   H         1 RES1   0.0000
    58 H14      -1.5283    1.1521    7.2670   H         1 RES1   0.0000
    59 H15      -2.1288    0.5378    8.8006   H         1 RES1   0.0000
    60 H16      -2.8765   -0.8911    6.8586   H         1 RES1   0.0000
    61 H17      -1.9643   -1.7701    8.0931   H         1 RES1   0.0000
    62 H18       1.0137   -2.2104    4.9530   H         1 RES1   0.0000
    63 H19       3.0889   -2.8638    1.0020   H         1 RES1   0.0000
    64 H20       3.4548   -3.9820    2.3349   H         1 RES1   0.0000
    65 H21       4.5910   -2.6623    1.9536   H         1 RES1   0.0000
    66 H22       3.0203    0.3818    3.8299   H         1 RES1   0.0000
    67 H23       4.3236    1.0890    5.7610   H         1 RES1   0.0000
    68 H24       5.7585   -2.4163    8.5161   H         1 RES1   0.0000
    69 H25       4.5564   -1.2125    8.9980   H         1 RES1   0.0000
    70 H26       6.2361   -1.0546    9.5104   H         1 RES1   0.0000
    71 H27       7.4529   -1.8835    6.7615   H         1 RES1   0.0000
    72 H28       8.0691   -0.5124    7.6768   H         1 RES1   0.0000
    73 H29       7.5192   -0.2852    6.0159   H         1 RES1   0.0000
    74 H30       4.8234    1.2387    8.1662   H         1 RES1   0.0000
    75 H31       6.1236    1.6153    7.0099   H         1 RES1   0.0000
    76 H32       6.5070    1.1575    8.6608   H         1 RES1   0.0000
    77 H33       5.3680   -2.9828    6.5316   H         1 RES1   0.0000
    78 H34       4.0344   -3.6897    4.6137   H         1 RES1   0.0000
    79 H35      -3.7383    0.7893    4.0209   H         1 RES1   0.0000
    80 H36      -4.8296    2.0450    3.5075   H         1 RES1   0.0000
    81 H37      -3.7574    2.3744    4.8759   H         1 RES1   0.0000
    82 H38      -1.1073    3.7662    1.4289   H         1 RES1   0.0000
    83 H39      -1.1069    6.1246    1.0737   H         1 RES1   0.0000
    84 H40      -2.4322    8.2746    4.1689   H         1 RES1   0.0000
    85 H41      -4.1620    8.2872    3.8329   H         1 RES1   0.0000
    86 H42      -3.1898    9.6819    3.4206   H         1 RES1   0.0000
    87 H43      -0.7073    8.0234    1.9786   H         1 RES1   0.0000
    88 H44      -1.4458    9.6184    1.9277   H         1 RES1   0.0000
    89 H45      -1.4994    8.6085    0.4989   H         1 RES1   0.0000
    90 H46      -4.9743    8.3048    1.4385   H         1 RES1   0.0000
    91 H47      -3.8386    8.0583    0.1070   H         1 RES1   0.0000
    92 H48      -3.8792    9.6000    0.9643   H         1 RES1   0.0000
    93 H49      -4.8645    6.4441    3.0544   H         1 RES1   0.0000
    94 H50      -4.8791    4.0753    3.4343   H         1 RES1   0.0000
    95 H51      -2.2195    0.5415    5.2690   H         1 RES1   0.0000
    96 C38       0.0772   -1.5031   -5.5109   C.3       1 RES1   0.0000
    97 C39       1.0955   -2.4342   -6.1624   C.3       1 RES1   0.0000
    98 C40       1.2341   -3.7849   -5.4555   C.3       1 RES1   0.0000
    99 C41      -0.0759   -4.5748   -5.4271   C.3       1 RES1   0.0000
   100 C42       0.0638   -6.1003   -5.3640   C.3       1 RES1   0.0000
   101 C43       0.3357   -6.6825   -3.9731   C.3       1 RES1   0.0000
   102 C44       1.8062   -6.6366   -3.5445   C.3       1 RES1   0.0000
   103 C45       1.9853   -6.8206   -2.0297   C.3       1 RES1   0.0000
   104 O4        0.9463   -6.2446   -1.2394   O.3       1 RES1   0.0000
   105 C46       0.6861   -4.9478   -1.2264   C.ar      1 RES1   0.0000
   106 C47      -0.4655   -4.5538   -0.5203   C.ar      1 RES1   0.0000
   107 C48      -0.7206   -3.2019   -0.3886   C.ar      1 RES1   0.0000
   108 C49      -1.6771   -2.6329    0.6075   C.2       1 RES1   0.0000
   109 O5       -1.3732   -1.5420    1.1377   O.2       1 RES1   0.0000
   110 N4       -2.7027   -3.3524    1.0756   N.am      1 RES1   0.0000
   111 C50      -3.2678   -2.8799    2.3297   C.3       1 RES1   0.0000
   112 C51      -3.6076   -4.0562    0.2307   C.ar      1 RES1   0.0000
   113 C52      -3.9520   -3.5051   -0.9946   C.ar      1 RES1   0.0000
   114 C53      -5.0583   -3.9764   -1.6782   C.ar      1 RES1   0.0000
   115 C54      -5.8504   -4.9908   -1.1529   C.ar      1 RES1   0.0000
   116 C55      -7.1940   -5.4042   -1.7203   C.3       1 RES1   0.0000
   117 C56      -7.1309   -6.8763   -2.1547   C.3       1 RES1   0.0000
   118 C57      -8.2218   -5.2162   -0.5903   C.3       1 RES1   0.0000
   119 C58      -7.6397   -4.5479   -2.9093   C.3       1 RES1   0.0000
   120 C59      -5.4041   -5.6147    0.0135   C.ar      1 RES1   0.0000
   121 C60      -4.3026   -5.1618    0.7047   C.ar      1 RES1   0.0000
   122 N5        0.0588   -2.2662   -0.9327   N.ar      1 RES1   0.0000
   123 C61       1.1590   -2.6093   -1.6171   C.ar      1 RES1   0.0000
   124 C62       1.8182   -1.3429   -2.1448   C.2       1 RES1   0.0000
   125 O6        1.2107   -0.2890   -1.8704   O.2       1 RES1   0.0000
   126 N6        2.9218   -1.3331   -2.9217   N.am      1 RES1   0.0000
   127 C63       3.9557   -2.3473   -2.7953   C.3       1 RES1   0.0000
   128 C64       3.1749   -0.2573   -3.8346   C.ar      1 RES1   0.0000
   129 C65       2.2065    0.6940   -4.1590   C.ar      1 RES1   0.0000
   130 C66       2.4347    1.6580   -5.1237   C.ar      1 RES1   0.0000
   131 C67       3.6383    1.7486   -5.8137   C.ar      1 RES1   0.0000
   132 C68       3.9276    2.8059   -6.8626   C.3       1 RES1   0.0000
   133 C69       4.5711    2.1420   -8.0882   C.3       1 RES1   0.0000
   134 C70       2.6642    3.5417   -7.3223   C.3       1 RES1   0.0000
   135 C71       4.8896    3.8337   -6.2454   C.3       1 RES1   0.0000
   136 C72       4.6054    0.8042   -5.4764   C.ar      1 RES1   0.0000
   137 C73       4.3817   -0.1802   -4.5329   C.ar      1 RES1   0.0000
   138 C74       1.5055   -3.9452   -1.7825   C.ar      1 RES1   0.0000
   139 H52       0.1940   -0.4967   -5.9083   H         1 RES1   0.0000
   140 H53       0.2144   -1.4679   -4.4287   H         1 RES1   0.0000
   141 H54      -0.9412   -1.8265   -5.7140   H         1 RES1   0.0000
   142 H55       2.0720   -1.9434   -6.1716   H         1 RES1   0.0000
   143 H56       0.8055   -2.6031   -7.2003   H         1 RES1   0.0000
   144 H57       1.5864   -3.6070   -4.4360   H         1 RES1   0.0000
   145 H58       1.9898   -4.3676   -5.9876   H         1 RES1   0.0000
   146 H59      -0.6222   -4.3379   -6.3410   H         1 RES1   0.0000
   147 H60      -0.6824   -4.2381   -4.5830   H         1 RES1   0.0000
   148 H61       0.8354   -6.4339   -6.0570   H         1 RES1   0.0000
   149 H62      -0.8821   -6.5230   -5.7080   H         1 RES1   0.0000
   150 H63      -0.0028   -7.7196   -3.9549   H         1 RES1   0.0000
   151 H64      -0.2734   -6.1322   -3.2543   H         1 RES1   0.0000
   152 H65       2.2446   -5.6934   -3.8652   H         1 RES1   0.0000
   153 H66       2.3739   -7.4325   -4.0294   H         1 RES1   0.0000
   154 H67       2.9629   -6.4433   -1.7088   H         1 RES1   0.0000
   155 H68       1.9370   -7.8777   -1.7622   H         1 RES1   0.0000
   156 H69      -1.0876   -5.3042   -0.0652   H         1 RES1   0.0000
   157 H70      -2.4467   -2.5939    2.9868   H         1 RES1   0.0000
   158 H71      -3.8440   -3.6788    2.7858   H         1 RES1   0.0000
   159 H72      -3.9115   -2.0151    2.1561   H         1 RES1   0.0000
   160 H73      -3.3946   -2.6652   -1.3850   H         1 RES1   0.0000
   161 H74      -5.3057   -3.4981   -2.6114   H         1 RES1   0.0000
   162 H75      -6.9659   -7.5396   -1.3079   H         1 RES1   0.0000
   163 H76      -6.3244   -7.0257   -2.8718   H         1 RES1   0.0000
   164 H77      -8.0661   -7.1635   -2.6294   H         1 RES1   0.0000
   165 H78      -8.0013   -5.8434    0.2698   H         1 RES1   0.0000
   166 H79      -9.2210   -5.4655   -0.9361   H         1 RES1   0.0000
   167 H80      -8.2211   -4.1769   -0.2644   H         1 RES1   0.0000
   168 H81      -7.0094   -4.7234   -3.7787   H         1 RES1   0.0000
   169 H82      -7.6308   -3.4894   -2.6528   H         1 RES1   0.0000
   170 H83      -8.6601   -4.8163   -3.1810   H         1 RES1   0.0000
   171 H84      -5.9505   -6.4525    0.4108   H         1 RES1   0.0000
   172 H85      -3.9981   -5.6455    1.6188   H         1 RES1   0.0000
   173 H86       3.8206   -2.9110   -1.8769   H         1 RES1   0.0000
   174 H87       4.9279   -1.8599   -2.7114   H         1 RES1   0.0000
   175 H88       3.9773   -3.0111   -3.6647   H         1 RES1   0.0000
   176 H89       1.2406    0.6947   -3.6834   H         1 RES1   0.0000
   177 H90       1.6334    2.3491   -5.3270   H         1 RES1   0.0000
   178 H91       3.9756    1.2920   -8.4130   H         1 RES1   0.0000
   179 H92       5.5801    1.8030   -7.8789   H         1 RES1   0.0000
   180 H93       4.6296    2.8498   -8.9087   H         1 RES1   0.0000
   181 H94       1.9116    2.8385   -7.6764   H         1 RES1   0.0000
   182 H95       2.9151    4.2070   -8.1457   H         1 RES1   0.0000
   183 H96       2.2527    4.1540   -6.5217   H         1 RES1   0.0000
   184 H97       5.8153    3.3657   -5.9208   H         1 RES1   0.0000
   185 H98       4.4241    4.3207   -5.3902   H         1 RES1   0.0000
   186 H99       5.1341    4.5985   -6.9763   H         1 RES1   0.0000
   187 H100      5.5636    0.8246   -5.9688   H         1 RES1   0.0000
   188 H101      5.1694   -0.8963   -4.3825   H         1 RES1   0.0000
   189 H102      2.3873   -4.2548   -2.3151   H         1 RES1   0.0000
   190 C75      -2.2830    4.3598   -7.3902   C.3       1 RES1   0.0000
   191 C76      -1.1433    3.9123   -6.4821   C.3       1 RES1   0.0000
   192 C77      -0.7616    4.9807   -5.4608   C.3       1 RES1   0.0000
   193 C78      -0.2366    6.2709   -6.0913   C.3       1 RES1   0.0000
   194 C79       0.1208    7.3056   -5.0235   C.3       1 RES1   0.0000
   195 C80      -1.1233    7.8961   -4.3488   C.3       1 RES1   0.0000
   196 C81      -0.9493    8.2811   -2.8717   C.3       1 RES1   0.0000
   197 C82      -0.4280    7.1459   -1.9930   C.3       1 RES1   0.0000
   198 O7       -1.2078    5.9838   -2.2568   O.3       1 RES1   0.0000
   199 C83      -0.8552    4.8006   -1.7951   C.ar      1 RES1   0.0000
   200 C84      -1.6804    3.7284   -2.1940   C.ar      1 RES1   0.0000
   201 C85      -1.4347    2.4637   -1.6935   C.ar      1 RES1   0.0000
   202 C86      -2.2148    1.1871   -1.9118   C.2       1 RES1   0.0000
   203 O8       -1.7459    0.1590   -1.3830   O.2       1 RES1   0.0000
   204 N7       -3.3282    1.1400   -2.6735   N.am      1 RES1   0.0000
   205 C87      -4.2754    2.2457   -2.6941   C.3       1 RES1   0.0000
   206 C88      -3.6919   -0.0425   -3.3857   C.ar      1 RES1   0.0000
   207 C89      -4.8384   -0.0466   -4.1804   C.ar      1 RES1   0.0000
   208 C90      -5.1590   -1.1314   -4.9728   C.ar      1 RES1   0.0000
   209 C91      -4.3678   -2.2747   -5.0171   C.ar      1 RES1   0.0000
   210 C92      -4.6399   -3.4058   -5.9861   C.3       1 RES1   0.0000
   211 C93      -4.3143   -4.7943   -5.4169   C.3       1 RES1   0.0000
   212 C94      -6.0984   -3.4081   -6.4538   C.3       1 RES1   0.0000
   213 C95      -3.7207   -3.1500   -7.1927   C.3       1 RES1   0.0000
   214 C96      -3.2350   -2.2708   -4.2096   C.ar      1 RES1   0.0000
   215 C97      -2.8904   -1.1866   -3.4242   C.ar      1 RES1   0.0000
   216 N8       -0.3563    2.2264   -0.9346   N.ar      1 RES1   0.0000
   217 C98       0.4512    3.2187   -0.5633   C.ar      1 RES1   0.0000
   218 C99       1.6020    2.6951    0.2620   C.2       1 RES1   0.0000
   219 O9        1.7158    1.4546    0.3648   O.2       1 RES1   0.0000
   220 N9        2.5214    3.4980    0.8002   N.am      1 RES1   0.0000
   221 C100      3.6811    2.8743    1.4259   C.3       1 RES1   0.0000
   222 C101      2.3580    4.8416    1.2661   C.ar      1 RES1   0.0000
   223 C102      1.4351    5.0878    2.2754   C.ar      1 RES1   0.0000
   224 C103      1.5055    6.2622    2.9977   C.ar      1 RES1   0.0000
   225 C104      2.5103    7.1998    2.7638   C.ar      1 RES1   0.0000
   226 C105      2.6879    8.3660    3.7127   C.3       1 RES1   0.0000
   227 C106      1.5622    9.3842    3.4774   C.3       1 RES1   0.0000
   228 C107      4.0491    9.0451    3.5353   C.3       1 RES1   0.0000
   229 C108      2.6292    7.8466    5.1581   C.3       1 RES1   0.0000
   230 C109      3.3344    6.9971    1.6567   C.ar      1 RES1   0.0000
   231 C110      3.2661    5.8334    0.9138   C.ar      1 RES1   0.0000
   232 C111      0.2317    4.5342   -0.9435   C.ar      1 RES1   0.0000
   233 H103     -2.6482    3.5214   -7.9779   H         1 RES1   0.0000
   234 H104     -1.9432    5.1277   -8.0796   H         1 RES1   0.0000
   235 H105     -3.1084    4.7647   -6.8047   H         1 RES1   0.0000
   236 H106     -0.2722    3.6746   -7.0943   H         1 RES1   0.0000
   237 H107     -1.4344    3.0005   -5.9470   H         1 RES1   0.0000
   238 H108      0.0065    4.5744   -4.7925   H         1 RES1   0.0000
   239 H109     -1.6361    5.2119   -4.8502   H         1 RES1   0.0000
   240 H110     -0.9826    6.6930   -6.7658   H         1 RES1   0.0000
   241 H111      0.6515    6.0396   -6.6844   H         1 RES1   0.0000
   242 H112      0.7083    8.1016   -5.4791   H         1 RES1   0.0000
   243 H113      0.7533    6.8145   -4.2856   H         1 RES1   0.0000
   244 H114     -1.9447    7.1820   -4.4149   H         1 RES1   0.0000
   245 H115     -1.4415    8.7922   -4.8837   H         1 RES1   0.0000
   246 H116     -1.9230    8.6097   -2.4941   H         1 RES1   0.0000
   247 H117     -0.2546    9.1167   -2.7706   H         1 RES1   0.0000
   248 H118     -0.5174    7.4131   -0.9315   H         1 RES1   0.0000
   249 H119      0.6263    6.9448   -2.2057   H         1 RES1   0.0000
   250 H120     -2.4666    3.9646   -2.8888   H         1 RES1   0.0000
   251 H121     -4.0306    2.9545   -1.9091   H         1 RES1   0.0000
   252 H122     -5.2717    1.8552   -2.4711   H         1 RES1   0.0000
   253 H123     -4.3056    2.7466   -3.6651   H         1 RES1   0.0000
   254 H124     -5.4907    0.8059   -4.2340   H         1 RES1   0.0000
   255 H125     -6.0514   -1.0665   -5.5685   H         1 RES1   0.0000
   256 H126     -4.8386   -4.9855   -4.4832   H         1 RES1   0.0000
   257 H127     -3.2477   -4.9377   -5.2589   H         1 RES1   0.0000
   258 H128     -4.6345   -5.5433   -6.1369   H         1 RES1   0.0000
   259 H129     -6.7840   -3.3757   -5.6081   H         1 RES1   0.0000
   260 H130     -6.2973   -4.3212   -7.0083   H         1 RES1   0.0000
   261 H131     -6.3082   -2.5721   -7.1166   H         1 RES1   0.0000
   262 H132     -2.6763   -3.2134   -6.8957   H         1 RES1   0.0000
   263 H133     -3.8986   -2.1635   -7.6148   H         1 RES1   0.0000
   264 H134     -3.9081   -3.8956   -7.9591   H         1 RES1   0.0000
   265 H135     -2.5993   -3.1410   -4.1757   H         1 RES1   0.0000
   266 H136     -1.9722   -1.2439   -2.8596   H         1 RES1   0.0000
   267 H137      3.8028    1.8667    1.0351   H         1 RES1   0.0000
   268 H138      3.5470    2.8354    2.5080   H         1 RES1   0.0000
   269 H139      4.5620    3.4720    1.1984   H         1 RES1   0.0000
   270 H140      0.7006    4.3346    2.5282   H         1 RES1   0.0000
   271 H141      0.7940    6.4114    3.7962   H         1 RES1   0.0000
   272 H142      1.4978    9.6576    2.4247   H         1 RES1   0.0000
   273 H143      1.7569   10.2855    4.0542   H         1 RES1   0.0000
   274 H144      0.6026    8.9795    3.7930   H         1 RES1   0.0000
   275 H145      4.1459    9.5375    2.5702   H         1 RES1   0.0000
   276 H146      4.8521    8.3171    3.6542   H         1 RES1   0.0000
   277 H147      4.1767    9.8055    4.3030   H         1 RES1   0.0000
   278 H148      1.6752    7.3806    5.3877   H         1 RES1   0.0000
   279 H149      2.7724    8.6693    5.8550   H         1 RES1   0.0000
   280 H150      3.4232    7.1185    5.3196   H         1 RES1   0.0000
   281 H151      4.0703    7.7342    1.3841   H         1 RES1   0.0000
   282 H152      3.9343    5.6768    0.0781   H         1 RES1   0.0000
   283 H153      0.8728    5.3226   -0.5840   H         1 RES1   0.0000
@<TRIPOS>BOND
     1     1    15    1
     2     1    28    1
     3     1    31    1
     4     1   109    1
     5     1   122    1
     6     1   125    1
     7     1   203    1
     8     1   216    1
     9     1   219    1
    10     2     3    1
    11     2    45    1
    12     2    46    1
    13     2    47    1
    14     3     4    1
    15     3    48    1
    16     3    49    1
    17     4     5    1
    18     4    50    1
    19     4    51    1
    20     5     6    1
    21     5    52    1
    22     5    53    1
    23     6     7    1
    24     6    54    1
    25     6    55    1
    26     7     8    1
    27     7    56    1
    28     7    57    1
    29     8     9    1
    30     8    58    1
    31     8    59    1
    32     9    10    1
    33     9    60    1
    34     9    61    1
    35    10    11    1
    36    11    12    1
    37    11    44    2
    38    12    13    2
    39    12    62    1
    40    13    14    1
    41    13    28    1
    42    14    15    2
    43    14    16    1
    44    16    17    1
    45    16    18    1
    46    17    63    1
    47    17    64    1
    48    17    65    1
    49    18    19    1
    50    18    27    2
    51    19    20    2
    52    19    66    1
    53    20    21    1
    54    20    67    1
    55    21    22    1
    56    21    26    2
    57    22    23    1
    58    22    24    1
    59    22    25    1
    60    23    68    1
    61    23    69    1
    62    23    70    1
    63    24    71    1
    64    24    72    1
    65    24    73    1
    66    25    74    1
    67    25    75    1
    68    25    76    1
    69    26    27    1
    70    26    77    1
    71    27    78    1
    72    28    29    2
    73    29    30    1
    74    29    44    1
    75    30    31    2
    76    30    32    1
    77    32    33    1
    78    32    34    1
    79    33    79    1
    80    33    80    1
    81    33    81    1
    82    34    35    1
    83    34    43    2
    84    35    36    2
    85    35    82    1
    86    36    37    1
    87    36    83    1
    88    37    38    1
    89    37    42    2
    90    38    39    1
    91    38    40    1
    92    38    41    1
    93    39    84    1
    94    39    85    1
    95    39    86    1
    96    40    87    1
    97    40    88    1
    98    40    89    1
    99    41    90    1
   100    41    91    1
   101    41    92    1
   102    42    43    1
   103    42    93    1
   104    43    94    1
   105    44    95    1
   106    96    97    1
   107    96   139    1
   108    96   140    1
   109    96   141    1
   110    97    98    1
   111    97   142    1
   112    97   143    1
   113    98    99    1
   114    98   144    1
   115    98   145    1
   116    99   100    1
   117    99   146    1
   118    99   147    1
   119   100   101    1
   120   100   148    1
   121   100   149    1
   122   101   102    1
   123   101   150    1
   124   101   151    1
   125   102   103    1
   126   102   152    1
   127   102   153    1
   128   103   104    1
   129   103   154    1
   130   103   155    1
   131   104   105    1
   132   105   106    1
   133   105   138    2
   134   106   107    2
   135   106   156    1
   136   107   108    1
   137   107   122    1
   138   108   109    2
   139   108   110    1
   140   110   111    1
   141   110   112    1
   142   111   157    1
   143   111   158    1
   144   111   159    1
   145   112   113    1
   146   112   121    2
   147   113   114    2
   148   113   160    1
   149   114   115    1
   150   114   161    1
   151   115   116    1
   152   115   120    2
   153   116   117    1
   154   116   118    1
   155   116   119    1
   156   117   162    1
   157   117   163    1
   158   117   164    1
   159   118   165    1
   160   118   166    1
   161   118   167    1
   162   119   168    1
   163   119   169    1
   164   119   170    1
   165   120   121    1
   166   120   171    1
   167   121   172    1
   168   122   123    2
   169   123   124    1
   170   123   138    1
   171   124   125    2
   172   124   126    1
   173   126   127    1
   174   126   128    1
   175   127   173    1
   176   127   174    1
   177   127   175    1
   178   128   129    1
   179   128   137    2
   180   129   130    2
   181   129   176    1
   182   130   131    1
   183   130   177    1
   184   131   132    1
   185   131   136    2
   186   132   133    1
   187   132   134    1
   188   132   135    1
   189   133   178    1
   190   133   179    1
   191   133   180    1
   192   134   181    1
   193   134   182    1
   194   134   183    1
   195   135   184    1
   196   135   185    1
   197   135   186    1
   198   136   137    1
   199   136   187    1
   200   137   188    1
   201   138   189    1
   202   190   191    1
   203   190   233    1
   204   190   234    1
   205   190   235    1
   206   191   192    1
   207   191   236    1
   208   191   237    1
   209   192   193    1
   210   192   238    1
   211   192   239    1
   212   193   194    1
   213   193   240    1
   214   193   241    1
   215   194   195    1
   216   194   242    1
   217   194   243    1
   218   195   196    1
   219   195   244    1
   220   195   245    1
   221   196   197    1
   222   196   246    1
   223   196   247    1
   224   197   198    1
   225   197   248    1
   226   197   249    1
   227   198   199    1
   228   199   200    1
   229   199   232    2
   230   200   201    2
   231   200   250    1
   232   201   202    1
   233   201   216    1
   234   202   203    2
   235   202   204    1
   236   204   205    1
   237   204   206    1
   238   205   251    1
   239   205   252    1
   240   205   253    1
   241   206   207    1
   242   206   215    2
   243   207   208    2
   244   207   254    1
   245   208   209    1
   246   208   255    1
   247   209   210    1
   248   209   214    2
   249   210   211    1
   250   210   212    1
   251   210   213    1
   252   211   256    1
   253   211   257    1
   254   211   258    1
   255   212   259    1
   256   212   260    1
   257   212   261    1
   258   213   262    1
   259   213   263    1
   260   213   264    1
   261   214   215    1
   262   214   265    1
   263   215   266    1
   264   216   217    2
   265   217   218    1
   266   217   232    1
   267   218   219    2
   268   218   220    1
   269   220   221    1
   270   220   222    1
   271   221   267    1
   272   221   268    1
   273   221   269    1
   274   222   223    1
   275   222   231    2
   276   223   224    2
   277   223   270    1
   278   224   225    1
   279   224   271    1
   280   225   226    1
   281   225   230    2
   282   226   227    1
   283   226   228    1
   284   226   229    1
   285   227   272    1
   286   227   273    1
   287   227   274    1
   288   228   275    1
   289   228   276    1
   290   228   277    1
   291   229   278    1
   292   229   279    1
   293   229   280    1
   294   230   231    1
   295   230   281    1
   296   231   282    1
   297   232   283    1
@<TRIPOS>SUBSTRUCTURE
     1 RES1      283 GROUP             0 ****  ****    0  
