@<TRIPOS>MOLECULE
capped_square_antiprismatic_0_nunpairedes_0_charge_3 Charge: 3 Unpaired_Electrons: 6 XTB_Unpaired_Electrons: 0 XTB_Charge: 3
   190   204     1     0     0
SMALL
NoCharges
****
Generated from Architector

@<TRIPOS>ATOM
     1 Eu1       0.2645   -0.1594    0.1478   Eu        1 RES1   0.0000
     2 C1       -8.1066    4.7241   -0.1535   C.3       1 RES1   0.0000
     3 C2       -6.6982    5.0859   -0.6564   C.3       1 RES1   0.0000
     4 C3       -6.6723    4.8667   -2.1725   C.3       1 RES1   0.0000
     5 C4       -6.4491    6.5813   -0.3926   C.3       1 RES1   0.0000
     6 C5       -5.6581    4.2686    0.0841   C.ar      1 RES1   0.0000
     7 C6       -4.7242    3.4334   -0.5317   C.ar      1 RES1   0.0000
     8 C7       -3.7905    2.7122    0.1952   C.ar      1 RES1   0.0000
     9 C8       -3.7859    2.7835    1.5853   C.ar      1 RES1   0.0000
    10 N1       -2.9454    1.9886    2.4041   N.am      1 RES1   0.0000
    11 C9       -1.8420    1.3031    2.1042   C.2       1 RES1   0.0000
    12 O1       -1.2887    1.3186    0.9824   O.2       1 RES1   0.0000
    13 C10      -1.2409    0.4275    3.1774   C.ar      1 RES1   0.0000
    14 C11      -1.7636    0.1340    4.3821   C.ar      1 RES1   0.0000
    15 C12      -1.1674   -0.8941    5.2555   C.ar      1 RES1   0.0000
    16 O2       -1.5506   -1.1377    6.3694   O.2       1 RES1   0.0000
    17 C13      -0.1155   -1.6671    4.5653   C.ar      1 RES1   0.0000
    18 C14       0.3637   -1.2848    3.3695   C.ar      1 RES1   0.0000
    19 C15       1.3156   -2.0016    2.4455   C.2       1 RES1   0.0000
    20 O3        1.4412   -1.4912    1.3151   O.2       1 RES1   0.0000
    21 N2        1.9250   -3.1453    2.7664   N.am      1 RES1   0.0000
    22 C16       2.6656   -3.9831    1.8842   C.ar      1 RES1   0.0000
    23 C17       3.3016   -5.0989    2.4357   C.ar      1 RES1   0.0000
    24 C18       3.9790   -5.9852    1.6270   C.ar      1 RES1   0.0000
    25 C19       4.0481   -5.8374    0.2376   C.ar      1 RES1   0.0000
    26 C20       4.8042   -6.8521   -0.5934   C.3       1 RES1   0.0000
    27 C21       4.6258   -6.6896   -2.1074   C.3       1 RES1   0.0000
    28 C22       6.3000   -6.7132   -0.2547   C.3       1 RES1   0.0000
    29 C23       4.3402   -8.2692   -0.2187   C.3       1 RES1   0.0000
    30 C24       3.4460   -4.6975   -0.2890   C.ar      1 RES1   0.0000
    31 C25       2.7780   -3.7833    0.5076   C.ar      1 RES1   0.0000
    32 O4       -0.0993   -0.1664    2.7220   O.2       1 RES1   0.0000
    33 C26      -4.6976    3.6316    2.2219   C.ar      1 RES1   0.0000
    34 C27      -5.5997    4.3581    1.4772   C.ar      1 RES1   0.0000
    35 H1       -8.8326    5.3164   -0.7049   H         1 RES1   0.0000
    36 H2       -8.2354    4.9371    0.9039   H         1 RES1   0.0000
    37 H3       -8.3201    3.6713   -0.3256   H         1 RES1   0.0000
    38 H4       -7.4505    5.4853   -2.6163   H         1 RES1   0.0000
    39 H5       -6.8818    3.8272   -2.4260   H         1 RES1   0.0000
    40 H6       -5.7174    5.1703   -2.6016   H         1 RES1   0.0000
    41 H7       -7.2015    7.1564   -0.9258   H         1 RES1   0.0000
    42 H8       -5.4679    6.8798   -0.7551   H         1 RES1   0.0000
    43 H9       -6.5203    6.8303    0.6623   H         1 RES1   0.0000
    44 H10      -4.7273    3.3239   -1.6036   H         1 RES1   0.0000
    45 H11      -3.0799    2.0744   -0.3165   H         1 RES1   0.0000
    46 H12      -3.2833    1.9311    3.3587   H         1 RES1   0.0000
    47 H13      -2.6610    0.5906    4.7644   H         1 RES1   0.0000
    48 H14       0.2165   -2.5647    5.0602   H         1 RES1   0.0000
    49 H15       1.8812   -3.4894    3.7206   H         1 RES1   0.0000
    50 H16       3.2758   -5.2618    3.5051   H         1 RES1   0.0000
    51 H17       4.4766   -6.8110    2.1055   H         1 RES1   0.0000
    52 H18       5.0301   -5.7488   -2.4739   H         1 RES1   0.0000
    53 H19       3.5804   -6.7739   -2.3972   H         1 RES1   0.0000
    54 H20       5.1726   -7.4895   -2.6016   H         1 RES1   0.0000
    55 H21       6.6742   -5.7300   -0.5367   H         1 RES1   0.0000
    56 H22       6.8590   -7.4678   -0.8031   H         1 RES1   0.0000
    57 H23       6.4761   -6.8610    0.8083   H         1 RES1   0.0000
    58 H24       3.2821   -8.3965   -0.4422   H         1 RES1   0.0000
    59 H25       4.5029   -8.4835    0.8341   H         1 RES1   0.0000
    60 H26       4.9111   -8.9901   -0.7993   H         1 RES1   0.0000
    61 H27       3.5157   -4.4952   -1.3440   H         1 RES1   0.0000
    62 H28       2.3742   -2.8960    0.0492   H         1 RES1   0.0000
    63 H29      -4.6900    3.7237    3.2996   H         1 RES1   0.0000
    64 H30      -6.2876    5.0076    1.9902   H         1 RES1   0.0000
    65 C28      -6.9773   -8.1439    1.4757   C.3       1 RES1   0.0000
    66 C29      -6.4538   -7.4908    0.1956   C.3       1 RES1   0.0000
    67 C30      -5.7053   -8.5542   -0.6252   C.3       1 RES1   0.0000
    68 C31      -7.6483   -6.9467   -0.6043   C.3       1 RES1   0.0000
    69 C32      -5.4756   -6.3765    0.4770   C.ar      1 RES1   0.0000
    70 C33      -4.9221   -5.6517   -0.5803   C.ar      1 RES1   0.0000
    71 C34      -3.9824   -4.6662   -0.3777   C.ar      1 RES1   0.0000
    72 C35      -3.5758   -4.3753    0.9209   C.ar      1 RES1   0.0000
    73 N3       -2.6874   -3.3211    1.2123   N.am      1 RES1   0.0000
    74 C36      -1.6941   -2.7270    0.5621   C.2       1 RES1   0.0000
    75 O5       -1.3321   -1.5812    0.9415   O.2       1 RES1   0.0000
    76 C37      -0.8888   -3.3422   -0.5335   C.ar      1 RES1   0.0000
    77 C38      -0.8924   -4.5931   -1.0247   C.ar      1 RES1   0.0000
    78 C39       0.0283   -4.9916   -2.1089   C.ar      1 RES1   0.0000
    79 O6        0.1612   -6.1275   -2.4895   O.2       1 RES1   0.0000
    80 C40       0.7820   -3.8525   -2.6757   C.ar      1 RES1   0.0000
    81 C41       0.7683   -2.6550   -2.0664   C.ar      1 RES1   0.0000
    82 C42       1.6790   -1.4825   -2.2652   C.2       1 RES1   0.0000
    83 O7        1.9885   -0.8415   -1.2363   O.2       1 RES1   0.0000
    84 N4        2.2310   -1.1485   -3.4371   N.am      1 RES1   0.0000
    85 C43       1.6247   -0.8494   -4.6751   C.ar      1 RES1   0.0000
    86 C44       0.3189   -1.1940   -4.9997   C.ar      1 RES1   0.0000
    87 C45      -0.2849   -0.5697   -6.0740   C.ar      1 RES1   0.0000
    88 C46       0.3770    0.3761   -6.8579   C.ar      1 RES1   0.0000
    89 C47      -0.3422    1.0811   -7.9853   C.3       1 RES1   0.0000
    90 C48      -0.8001    0.0037   -8.9772   C.3       1 RES1   0.0000
    91 C49       0.5527    2.0763   -8.7262   C.3       1 RES1   0.0000
    92 C50      -1.5469    1.8511   -7.4202   C.3       1 RES1   0.0000
    93 C51       1.7145    0.6238   -6.5699   C.ar      1 RES1   0.0000
    94 C52       2.3325    0.0286   -5.4919   C.ar      1 RES1   0.0000
    95 O8        0.0043   -2.4044   -0.9640   O.2       1 RES1   0.0000
    96 C53      -4.1454   -5.0491    1.9978   C.ar      1 RES1   0.0000
    97 C54      -5.0694   -6.0468    1.7678   C.ar      1 RES1   0.0000
    98 H31      -7.6508   -8.9532    1.2131   H         1 RES1   0.0000
    99 H32      -7.5327   -7.4345    2.0835   H         1 RES1   0.0000
   100 H33      -6.1679   -8.5661    2.0663   H         1 RES1   0.0000
   101 H34      -6.3827   -9.3700   -0.8589   H         1 RES1   0.0000
   102 H35      -4.8667   -8.9467   -0.0528   H         1 RES1   0.0000
   103 H36      -5.3216   -8.1464   -1.5567   H         1 RES1   0.0000
   104 H37      -8.3540   -7.7537   -0.7790   H         1 RES1   0.0000
   105 H38      -7.3466   -6.5473   -1.5697   H         1 RES1   0.0000
   106 H39      -8.1553   -6.1629   -0.0442   H         1 RES1   0.0000
   107 H40      -5.2513   -5.8437   -1.5860   H         1 RES1   0.0000
   108 H41      -3.6046   -4.0886   -1.2088   H         1 RES1   0.0000
   109 H42      -2.9543   -2.7943    2.0419   H         1 RES1   0.0000
   110 H43      -1.5720   -5.3338   -0.6373   H         1 RES1   0.0000
   111 H44       1.3874   -4.0406   -3.5476   H         1 RES1   0.0000
   112 H45       3.0502   -0.5570   -3.2980   H         1 RES1   0.0000
   113 H46      -0.2381   -1.9202   -4.4282   H         1 RES1   0.0000
   114 H47      -1.3078   -0.8255   -6.2927   H         1 RES1   0.0000
   115 H48       0.0583   -0.5721   -9.3175   H         1 RES1   0.0000
   116 H49      -1.2652    0.4732   -9.8376   H         1 RES1   0.0000
   117 H50      -1.5151   -0.6798   -8.5269   H         1 RES1   0.0000
   118 H51       1.4201    1.5872   -9.1587   H         1 RES1   0.0000
   119 H52       0.8841    2.8820   -8.0760   H         1 RES1   0.0000
   120 H53      -0.0127    2.5178   -9.5397   H         1 RES1   0.0000
   121 H54      -2.2335    1.1965   -6.8864   H         1 RES1   0.0000
   122 H55      -2.0840    2.3124   -8.2437   H         1 RES1   0.0000
   123 H56      -1.2089    2.6388   -6.7465   H         1 RES1   0.0000
   124 H57       2.2745    1.3150   -7.1711   H         1 RES1   0.0000
   125 H58       3.3626    0.2579   -5.2585   H         1 RES1   0.0000
   126 H59      -3.8622   -4.7943    3.0093   H         1 RES1   0.0000
   127 H60      -5.4915   -6.5675    2.6068   H         1 RES1   0.0000
   128 C55       7.9704    2.9274    4.0275   C.3       1 RES1   0.0000
   129 C56       6.7992    2.1225    4.6155   C.3       1 RES1   0.0000
   130 C57       7.1923    0.6456    4.6606   C.3       1 RES1   0.0000
   131 C58       6.4677    2.6120    6.0298   C.3       1 RES1   0.0000
   132 C59       5.6078    2.3680    3.7300   C.ar      1 RES1   0.0000
   133 C60       4.9093    1.3593    3.0748   C.ar      1 RES1   0.0000
   134 C61       3.9266    1.6514    2.1504   C.ar      1 RES1   0.0000
   135 C62       3.6317    2.9845    1.8656   C.ar      1 RES1   0.0000
   136 N5        2.7370    3.3577    0.8446   N.am      1 RES1   0.0000
   137 C63       1.8135    2.5765    0.3077   C.2       1 RES1   0.0000
   138 O9        1.5969    1.4036    0.6909   O.2       1 RES1   0.0000
   139 C64       0.9504    3.0782   -0.8012   C.ar      1 RES1   0.0000
   140 C65       0.7180    4.3373   -1.2074   C.ar      1 RES1   0.0000
   141 C66      -0.2256    4.6211   -2.2991   C.ar      1 RES1   0.0000
   142 O10      -0.3659    5.7037   -2.8092   O.2       1 RES1   0.0000
   143 C67      -1.0091    3.4311   -2.6914   C.ar      1 RES1   0.0000
   144 C68      -0.7116    2.2119   -2.2163   C.ar      1 RES1   0.0000
   145 C69      -1.3808    0.8882   -2.4270   C.2       1 RES1   0.0000
   146 O11      -0.9896   -0.0339   -1.6719   O.2       1 RES1   0.0000
   147 N6       -2.3198    0.7268   -3.3530   N.am      1 RES1   0.0000
   148 C70      -2.9834   -0.4873   -3.6638   C.ar      1 RES1   0.0000
   149 C71      -4.1685   -0.4634   -4.4029   C.ar      1 RES1   0.0000
   150 C72      -4.7821   -1.6491   -4.7616   C.ar      1 RES1   0.0000
   151 C73      -4.2309   -2.8950   -4.4428   C.ar      1 RES1   0.0000
   152 C74      -4.8419   -4.1877   -4.9315   C.3       1 RES1   0.0000
   153 C75      -4.0487   -5.4247   -4.4922   C.3       1 RES1   0.0000
   154 C76      -6.2815   -4.2898   -4.4101   C.3       1 RES1   0.0000
   155 C77      -4.8668   -4.1447   -6.4676   C.3       1 RES1   0.0000
   156 C78      -3.0789   -2.8891   -3.6670   C.ar      1 RES1   0.0000
   157 C79      -2.4750   -1.7186   -3.2646   C.ar      1 RES1   0.0000
   158 O12       0.3190    2.0001   -1.3493   O.2       1 RES1   0.0000
   159 C80       4.2492    4.0083    2.5858   C.ar      1 RES1   0.0000
   160 C81       5.2090    3.6881    3.5132   C.ar      1 RES1   0.0000
   161 H61       8.8697    2.7345    4.6029   H         1 RES1   0.0000
   162 H62       7.7769    3.9958    4.0481   H         1 RES1   0.0000
   163 H63       8.1472    2.6321    2.9948   H         1 RES1   0.0000
   164 H64       8.0896    0.5380    5.2641   H         1 RES1   0.0000
   165 H65       7.4085    0.2759    3.6582   H         1 RES1   0.0000
   166 H66       6.4033    0.0434    5.1104   H         1 RES1   0.0000
   167 H67       7.3349    2.4795    6.6669   H         1 RES1   0.0000
   168 H68       5.6365    2.0420    6.4384   H         1 RES1   0.0000
   169 H69       6.1925    3.6623    6.0343   H         1 RES1   0.0000
   170 H70       5.1534    0.3268    3.2568   H         1 RES1   0.0000
   171 H71       3.4325    0.8396    1.6322   H         1 RES1   0.0000
   172 H72       2.8341    4.3113    0.5151   H         1 RES1   0.0000
   173 H73       1.2011    5.1898   -0.7632   H         1 RES1   0.0000
   174 H74      -1.8190    3.6074   -3.3762   H         1 RES1   0.0000
   175 H75      -2.5851    1.5264   -3.9178   H         1 RES1   0.0000
   176 H76      -4.6050    0.4837   -4.6970   H         1 RES1   0.0000
   177 H77      -5.7011   -1.5924   -5.3223   H         1 RES1   0.0000
   178 H78      -3.9903   -5.5090   -3.4096   H         1 RES1   0.0000
   179 H79      -3.0409   -5.4179   -4.9013   H         1 RES1   0.0000
   180 H80      -4.5417   -6.3170   -4.8654   H         1 RES1   0.0000
   181 H81      -6.3076   -4.2546   -3.3220   H         1 RES1   0.0000
   182 H82      -6.7173   -5.2257   -4.7484   H         1 RES1   0.0000
   183 H83      -6.8908   -3.4752   -4.7919   H         1 RES1   0.0000
   184 H84      -3.8627   -4.0032   -6.8654   H         1 RES1   0.0000
   185 H85      -5.5024   -3.3380   -6.8249   H         1 RES1   0.0000
   186 H86      -5.2604   -5.0838   -6.8477   H         1 RES1   0.0000
   187 H87      -2.6195   -3.8181   -3.3837   H         1 RES1   0.0000
   188 H88      -1.5959   -1.7691   -2.6498   H         1 RES1   0.0000
   189 H89       3.9774    5.0399    2.4073   H         1 RES1   0.0000
   190 H90       5.6922    4.4713    4.0685   H         1 RES1   0.0000
@<TRIPOS>BOND
     1     1    12    1
     2     1    20    1
     3     1    32    1
     4     1    75    1
     5     1    83    1
     6     1    95    1
     7     1   138    1
     8     1   146    1
     9     1   158    1
    10     2     3    1
    11     2    35    1
    12     2    36    1
    13     2    37    1
    14     3     4    1
    15     3     5    1
    16     3     6    1
    17     4    38    1
    18     4    39    1
    19     4    40    1
    20     5    41    1
    21     5    42    1
    22     5    43    1
    23     6     7    1
    24     6    34    2
    25     7     8    2
    26     7    44    1
    27     8     9    1
    28     8    45    1
    29     9    10    1
    30     9    33    2
    31    10    11    1
    32    10    46    1
    33    11    12    2
    34    11    13    1
    35    13    14    2
    36    13    32    1
    37    14    15    1
    38    14    47    1
    39    15    16    2
    40    15    17    1
    41    17    18    2
    42    17    48    1
    43    18    19    1
    44    18    32    1
    45    19    20    2
    46    19    21    1
    47    21    22    1
    48    21    49    1
    49    22    23    1
    50    22    31    2
    51    23    24    2
    52    23    50    1
    53    24    25    1
    54    24    51    1
    55    25    26    1
    56    25    30    2
    57    26    27    1
    58    26    28    1
    59    26    29    1
    60    27    52    1
    61    27    53    1
    62    27    54    1
    63    28    55    1
    64    28    56    1
    65    28    57    1
    66    29    58    1
    67    29    59    1
    68    29    60    1
    69    30    31    1
    70    30    61    1
    71    31    62    1
    72    33    34    1
    73    33    63    1
    74    34    64    1
    75    65    66    1
    76    65    98    1
    77    65    99    1
    78    65   100    1
    79    66    67    1
    80    66    68    1
    81    66    69    1
    82    67   101    1
    83    67   102    1
    84    67   103    1
    85    68   104    1
    86    68   105    1
    87    68   106    1
    88    69    70    1
    89    69    97    2
    90    70    71    2
    91    70   107    1
    92    71    72    1
    93    71   108    1
    94    72    73    1
    95    72    96    2
    96    73    74    1
    97    73   109    1
    98    74    75    2
    99    74    76    1
   100    76    77    2
   101    76    95    1
   102    77    78    1
   103    77   110    1
   104    78    79    2
   105    78    80    1
   106    80    81    2
   107    80   111    1
   108    81    82    1
   109    81    95    1
   110    82    83    2
   111    82    84    1
   112    84    85    1
   113    84   112    1
   114    85    86    1
   115    85    94    2
   116    86    87    2
   117    86   113    1
   118    87    88    1
   119    87   114    1
   120    88    89    1
   121    88    93    2
   122    89    90    1
   123    89    91    1
   124    89    92    1
   125    90   115    1
   126    90   116    1
   127    90   117    1
   128    91   118    1
   129    91   119    1
   130    91   120    1
   131    92   121    1
   132    92   122    1
   133    92   123    1
   134    93    94    1
   135    93   124    1
   136    94   125    1
   137    96    97    1
   138    96   126    1
   139    97   127    1
   140   128   129    1
   141   128   161    1
   142   128   162    1
   143   128   163    1
   144   129   130    1
   145   129   131    1
   146   129   132    1
   147   130   164    1
   148   130   165    1
   149   130   166    1
   150   131   167    1
   151   131   168    1
   152   131   169    1
   153   132   133    1
   154   132   160    2
   155   133   134    2
   156   133   170    1
   157   134   135    1
   158   134   171    1
   159   135   136    1
   160   135   159    2
   161   136   137    1
   162   136   172    1
   163   137   138    2
   164   137   139    1
   165   139   140    2
   166   139   158    1
   167   140   141    1
   168   140   173    1
   169   141   142    2
   170   141   143    1
   171   143   144    2
   172   143   174    1
   173   144   145    1
   174   144   158    1
   175   145   146    2
   176   145   147    1
   177   147   148    1
   178   147   175    1
   179   148   149    1
   180   148   157    2
   181   149   150    2
   182   149   176    1
   183   150   151    1
   184   150   177    1
   185   151   152    1
   186   151   156    2
   187   152   153    1
   188   152   154    1
   189   152   155    1
   190   153   178    1
   191   153   179    1
   192   153   180    1
   193   154   181    1
   194   154   182    1
   195   154   183    1
   196   155   184    1
   197   155   185    1
   198   155   186    1
   199   156   157    1
   200   156   187    1
   201   157   188    1
   202   159   160    1
   203   159   189    1
   204   160   190    1
@<TRIPOS>SUBSTRUCTURE
     1 RES1      190 GROUP             0 ****  ****    0  
