@<TRIPOS>MOLECULE
am_c3_9H2O_c0_0_nunpairedes_0_charge_1 Charge: 1 Unpaired_Electrons: 0 XTB_Unpaired_Electrons: 0 XTB_Charge: 1
   122   135     1     0     0
SMALL
NoCharges
****
Generated from Architector

@<TRIPOS>ATOM
     1 La1      -0.1026   -0.0826   -0.1688   La        1 RES1   0.0000
     2 C1       -3.8908    0.0318   -6.8806   C.3       1 RES1   0.0000
     3 C2       -2.5845   -0.4706   -6.2782   C.3       1 RES1   0.0000
     4 C3       -2.0008    0.4250   -5.1814   C.3       1 RES1   0.0000
     5 C4       -1.4666    1.7545   -5.7195   C.3       1 RES1   0.0000
     6 C5       -0.6501    2.5590   -4.7041   C.3       1 RES1   0.0000
     7 C6       -1.5290    3.2909   -3.6817   C.3       1 RES1   0.0000
     8 N1       -0.7064    3.7663   -2.5737   N.ar      1 RES1   0.0000
     9 C7       -0.2432    5.0564   -2.4744   C.ar      1 RES1   0.0000
    10 C8       -0.6829    6.0180   -3.5074   C.ar      1 RES1   0.0000
    11 C9        0.1216    6.2530   -4.6145   C.ar      1 RES1   0.0000
    12 C10      -0.2893    7.1461   -5.5873   C.ar      1 RES1   0.0000
    13 C11      -1.4946    7.8145   -5.4641   C.ar      1 RES1   0.0000
    14 C12      -2.2917    7.5803   -4.3564   C.ar      1 RES1   0.0000
    15 C13      -1.8941    6.6874   -3.3767   C.ar      1 RES1   0.0000
    16 C14       0.5959    5.4712   -1.4758   C.ar      1 RES1   0.0000
    17 C15       1.0653    6.8811   -1.4261   C.ar      1 RES1   0.0000
    18 C16       2.2793    7.2216   -2.0129   C.ar      1 RES1   0.0000
    19 C17       2.7294    8.5300   -1.9765   C.ar      1 RES1   0.0000
    20 C18       1.9813    9.5117   -1.3481   C.ar      1 RES1   0.0000
    21 C19       0.7681    9.1759   -0.7696   C.ar      1 RES1   0.0000
    22 C20       0.3071    7.8695   -0.8078   C.ar      1 RES1   0.0000
    23 C21       1.0671    4.5200   -0.5195   C.ar      1 RES1   0.0000
    24 C22       1.9718    4.7760    0.5226   C.ar      1 RES1   0.0000
    25 C23       2.4135    3.7268    1.3223   C.ar      1 RES1   0.0000
    26 C24       3.3816    3.8674    2.3695   C.ar      1 RES1   0.0000
    27 C25       3.8859    2.7955    3.0217   C.ar      1 RES1   0.0000
    28 C26       3.4721    1.4596    2.7006   C.ar      1 RES1   0.0000
    29 C27       4.0563    0.3116    3.2310   C.ar      1 RES1   0.0000
    30 C28       3.6664   -0.9489    2.7557   C.ar      1 RES1   0.0000
    31 C29       4.2644   -2.2023    3.0996   C.ar      1 RES1   0.0000
    32 C30       5.3223   -2.3152    4.1388   C.ar      1 RES1   0.0000
    33 C31       6.6420   -1.9945    3.8437   C.ar      1 RES1   0.0000
    34 C32       7.6293   -2.1403    4.8037   C.ar      1 RES1   0.0000
    35 C33       7.3160   -2.5974    6.0722   C.ar      1 RES1   0.0000
    36 C34       6.0023   -2.9211    6.3671   C.ar      1 RES1   0.0000
    37 C35       5.0102   -2.7884    5.4093   C.ar      1 RES1   0.0000
    38 C36       3.8766   -3.3308    2.4288   C.ar      1 RES1   0.0000
    39 C37       4.5584   -4.6172    2.6994   C.ar      1 RES1   0.0000
    40 C38       3.9751   -5.5812    3.5142   C.ar      1 RES1   0.0000
    41 C39       4.6308   -6.7778    3.7444   C.ar      1 RES1   0.0000
    42 C40       5.8629   -7.0274    3.1647   C.ar      1 RES1   0.0000
    43 C41       6.4408   -6.0654    2.3543   C.ar      1 RES1   0.0000
    44 C42       5.8000   -4.8615    2.1236   C.ar      1 RES1   0.0000
    45 N2        2.8910   -3.3282    1.4710   N.ar      1 RES1   0.0000
    46 C43       2.6189   -4.4821    0.6201   C.3       1 RES1   0.0000
    47 C44       3.4018   -4.3150   -0.6868   C.3       1 RES1   0.0000
    48 C45       3.3181   -5.5241   -1.6204   C.3       1 RES1   0.0000
    49 C46       2.1450   -5.5275   -2.6043   C.3       1 RES1   0.0000
    50 C47       0.7441   -5.6955   -2.0162   C.3       1 RES1   0.0000
    51 C48       0.5656   -6.9908   -1.2346   C.3       1 RES1   0.0000
    52 C49       2.2008   -2.2038    1.1507   C.ar      1 RES1   0.0000
    53 O1        1.2986   -2.2010    0.2961   O.2       1 RES1   0.0000
    54 C50       2.6116   -0.9767    1.8119   C.ar      1 RES1   0.0000
    55 N3        1.9885    0.1065    1.3597   N.ar      1 RES1   0.0000
    56 C51       2.4349    1.2942    1.7448   C.ar      1 RES1   0.0000
    57 C52       1.9089    2.4310    1.0481   C.ar      1 RES1   0.0000
    58 N4        1.0230    2.1820    0.0949   N.ar      1 RES1   0.0000
    59 C53       0.6034    3.1898   -0.6575   C.ar      1 RES1   0.0000
    60 C54      -0.3513    2.8097   -1.6815   C.ar      1 RES1   0.0000
    61 O2       -0.8080    1.6509   -1.7363   O.2       1 RES1   0.0000
    62 H1       -4.2734   -0.7000   -7.5887   H         1 RES1   0.0000
    63 H2       -3.7534    0.9696   -7.4124   H         1 RES1   0.0000
    64 H3       -4.6414    0.1762   -6.1073   H         1 RES1   0.0000
    65 H4       -1.8475   -0.5888   -7.0744   H         1 RES1   0.0000
    66 H5       -2.7645   -1.4581   -5.8513   H         1 RES1   0.0000
    67 H6       -1.1782   -0.1207   -4.7129   H         1 RES1   0.0000
    68 H7       -2.7595    0.5977   -4.4165   H         1 RES1   0.0000
    69 H8       -2.2851    2.3757   -6.0846   H         1 RES1   0.0000
    70 H9       -0.8132    1.5379   -6.5652   H         1 RES1   0.0000
    71 H10      -0.0380    3.3012   -5.2258   H         1 RES1   0.0000
    72 H11       0.0215    1.8816   -4.1689   H         1 RES1   0.0000
    73 H12      -2.2472    2.5941   -3.2441   H         1 RES1   0.0000
    74 H13      -2.0573    4.1312   -4.1317   H         1 RES1   0.0000
    75 H14       1.0631    5.7317   -4.7107   H         1 RES1   0.0000
    76 H15       0.3340    7.3071   -6.4495   H         1 RES1   0.0000
    77 H16      -1.8213    8.5054   -6.2277   H         1 RES1   0.0000
    78 H17      -3.2351    8.0915   -4.2725   H         1 RES1   0.0000
    79 H18      -2.5132    6.4956   -2.5113   H         1 RES1   0.0000
    80 H19       2.8682    6.4635   -2.5105   H         1 RES1   0.0000
    81 H20       3.6656    8.7801   -2.4496   H         1 RES1   0.0000
    82 H21       2.3350   10.5332   -1.3114   H         1 RES1   0.0000
    83 H22       0.1821    9.9480   -0.2959   H         1 RES1   0.0000
    84 H23      -0.6431    7.6106   -0.3623   H         1 RES1   0.0000
    85 H24       2.3436    5.7787    0.6866   H         1 RES1   0.0000
    86 H25       3.7079    4.8669    2.6063   H         1 RES1   0.0000
    87 H26       4.6313    2.9122    3.7946   H         1 RES1   0.0000
    88 H27       4.8459    0.3938    3.9648   H         1 RES1   0.0000
    89 H28       6.9000   -1.6459    2.8534   H         1 RES1   0.0000
    90 H29       8.6505   -1.9040    4.5544   H         1 RES1   0.0000
    91 H30       8.0842   -2.7078    6.8253   H         1 RES1   0.0000
    92 H31       5.7643   -3.2891    7.3519   H         1 RES1   0.0000
    93 H32       3.9873   -3.0534    5.6386   H         1 RES1   0.0000
    94 H33       3.0114   -5.3945    3.9677   H         1 RES1   0.0000
    95 H34       4.1660   -7.5231    4.3671   H         1 RES1   0.0000
    96 H35       6.3678   -7.9684    3.3270   H         1 RES1   0.0000
    97 H36       7.3917   -6.2670    1.8921   H         1 RES1   0.0000
    98 H37       6.2488   -4.1046    1.4958   H         1 RES1   0.0000
    99 H38       1.5450   -4.4846    0.4292   H         1 RES1   0.0000
   100 H39       2.8996   -5.3915    1.1506   H         1 RES1   0.0000
   101 H40       4.4498   -4.1511   -0.4185   H         1 RES1   0.0000
   102 H41       3.0440   -3.4192   -1.1999   H         1 RES1   0.0000
   103 H42       3.3177   -6.4354   -1.0212   H         1 RES1   0.0000
   104 H43       4.2317   -5.5357   -2.2191   H         1 RES1   0.0000
   105 H44       2.3219   -6.3514   -3.2998   H         1 RES1   0.0000
   106 H45       2.1668   -4.5997   -3.1802   H         1 RES1   0.0000
   107 H46       0.0400   -5.6969   -2.8497   H         1 RES1   0.0000
   108 H47       0.4862   -4.8389   -1.3924   H         1 RES1   0.0000
   109 H48       0.7892   -7.8480   -1.8655   H         1 RES1   0.0000
   110 H49      -0.4612   -7.0833   -0.8890   H         1 RES1   0.0000
   111 H50       1.2209   -7.0276   -0.3677   H         1 RES1   0.0000
   112 N5       -2.2412    1.0550    0.9660   N.3       1 RES1   0.0000
   113 O3       -3.1611    1.7031    1.3577   O.2       1 RES1   0.0000
   114 O4       -2.3720    0.1929    0.0857   O.co2     1 RES1   0.0000
   115 O5       -1.1014    1.2002    1.4627   O.co2     1 RES1   0.0000
   116 N6        0.3633   -1.2352   -2.3653   N.3       1 RES1   0.0000
   117 O6        0.6218   -1.8049   -3.3767   O.2       1 RES1   0.0000
   118 O7        1.1345   -0.3617   -1.9116   O.co2     1 RES1   0.0000
   119 O8       -0.6773   -1.4632   -1.7373   O.co2     1 RES1   0.0000
   120 O9       -1.0710   -1.5203    1.8176   O.3       1 RES1   0.0000
   121 H51      -2.0286   -1.6664    1.7523   H         1 RES1   0.0000
   122 H52      -0.9090   -1.1233    2.6857   H         1 RES1   0.0000
@<TRIPOS>BOND
     1     1    53    1
     2     1    55    1
     3     1    58    1
     4     1    61    1
     5     1   114    1
     6     1   115    1
     7     1   118    1
     8     1   119    1
     9     1   120    1
    10     2     3    1
    11     2    62    1
    12     2    63    1
    13     2    64    1
    14     3     4    1
    15     3    65    1
    16     3    66    1
    17     4     5    1
    18     4    67    1
    19     4    68    1
    20     5     6    1
    21     5    69    1
    22     5    70    1
    23     6     7    1
    24     6    71    1
    25     6    72    1
    26     7     8    1
    27     7    73    1
    28     7    74    1
    29     8     9    1
    30     8    60    1
    31     9    10    1
    32     9    16    2
    33    10    11    1
    34    10    15    2
    35    11    12    2
    36    11    75    1
    37    12    13    1
    38    12    76    1
    39    13    14    2
    40    13    77    1
    41    14    15    1
    42    14    78    1
    43    15    79    1
    44    16    17    1
    45    16    23    1
    46    17    18    1
    47    17    22    2
    48    18    19    2
    49    18    80    1
    50    19    20    1
    51    19    81    1
    52    20    21    2
    53    20    82    1
    54    21    22    1
    55    21    83    1
    56    22    84    1
    57    23    24    1
    58    23    59    2
    59    24    25    2
    60    24    85    1
    61    25    26    1
    62    25    57    1
    63    26    27    2
    64    26    86    1
    65    27    28    1
    66    27    87    1
    67    28    29    1
    68    28    56    2
    69    29    30    2
    70    29    88    1
    71    30    31    1
    72    30    54    1
    73    31    32    1
    74    31    38    2
    75    32    33    1
    76    32    37    2
    77    33    34    2
    78    33    89    1
    79    34    35    1
    80    34    90    1
    81    35    36    2
    82    35    91    1
    83    36    37    1
    84    36    92    1
    85    37    93    1
    86    38    39    1
    87    38    45    1
    88    39    40    1
    89    39    44    2
    90    40    41    2
    91    40    94    1
    92    41    42    1
    93    41    95    1
    94    42    43    2
    95    42    96    1
    96    43    44    1
    97    43    97    1
    98    44    98    1
    99    45    46    1
   100    45    52    1
   101    46    47    1
   102    46    99    1
   103    46   100    1
   104    47    48    1
   105    47   101    1
   106    47   102    1
   107    48    49    1
   108    48   103    1
   109    48   104    1
   110    49    50    1
   111    49   105    1
   112    49   106    1
   113    50    51    1
   114    50   107    1
   115    50   108    1
   116    51   109    1
   117    51   110    1
   118    51   111    1
   119    52    53    2
   120    52    54    1
   121    54    55    2
   122    55    56    1
   123    56    57    1
   124    57    58    2
   125    58    59    1
   126    59    60    1
   127    60    61    2
   128   112   113    2
   129   112   114    1
   130   112   115    1
   131   116   117    2
   132   116   118    1
   133   116   119    1
   134   120   121    1
   135   120   122    1
@<TRIPOS>SUBSTRUCTURE
     1 RES1      122 GROUP             0 ****  ****    0  
