@<TRIPOS>MOLECULE
am_c3_9H2O_c0_0_nunpairedes_0_charge_3 Charge: 3 Unpaired_Electrons: 5 XTB_Unpaired_Electrons: 0 XTB_Charge: 3
   196   222     1     0     0
SMALL
NoCharges
****
Generated from Architector

@<TRIPOS>ATOM
     1 Dy1      -0.1459    0.1029    0.0075   Dy        1 RES1   0.0000
     2 C1       -4.0332    5.6337    3.4403   C.3       1 RES1   0.0000
     3 C2       -2.6397    5.0546    3.3484   C.3       1 RES1   0.0000
     4 C3       -1.9335    4.9045    4.7285   C.3       1 RES1   0.0000
     5 C4       -0.4298    4.8573    4.3981   C.3       1 RES1   0.0000
     6 C5       -0.4085    4.8848    2.8576   C.3       1 RES1   0.0000
     7 C6       -1.0471    3.6028    2.4614   C.ar      1 RES1   0.0000
     8 N1       -0.5332    2.4996    1.9918   N.ar      1 RES1   0.0000
     9 N2       -1.3806    1.5543    1.5809   N.ar      1 RES1   0.0000
    10 C7       -2.6903    1.7337    1.6880   C.ar      1 RES1   0.0000
    11 C8       -3.4995    0.7154    0.9754   C.ar      1 RES1   0.0000
    12 C9       -4.8420    0.4550    1.2327   C.ar      1 RES1   0.0000
    13 C10      -5.4921   -0.4975    0.4544   C.ar      1 RES1   0.0000
    14 C11      -4.7947   -1.1552   -0.5499   C.ar      1 RES1   0.0000
    15 C12      -3.4443   -0.8487   -0.7236   C.ar      1 RES1   0.0000
    16 C13      -2.6190   -1.4289   -1.8035   C.ar      1 RES1   0.0000
    17 N3       -1.3298   -1.0873   -1.7979   N.ar      1 RES1   0.0000
    18 N4       -0.6194   -1.2223   -2.9185   N.ar      1 RES1   0.0000
    19 C14      -1.1839   -1.8134   -3.9327   C.ar      1 RES1   0.0000
    20 C15      -2.4533   -2.4577   -3.7837   C.ar      1 RES1   0.0000
    21 N5       -3.1977   -2.1955   -2.7392   N.ar      1 RES1   0.0000
    22 C16      -2.7223   -3.1845   -5.0569   C.3       1 RES1   0.0000
    23 C17      -3.6958   -4.3379   -5.0397   C.3       1 RES1   0.0000
    24 C18      -3.1453   -1.9681   -5.9347   C.3       1 RES1   0.0000
    25 C19      -1.8394   -1.1728   -6.1190   C.3       1 RES1   0.0000
    26 C20      -0.7844   -2.0028   -5.3432   C.3       1 RES1   0.0000
    27 C21      -1.2749   -3.4566   -5.5735   C.3       1 RES1   0.0000
    28 C22      -1.1945   -3.8914   -7.0315   C.3       1 RES1   0.0000
    29 C23      -0.5030   -4.4641   -4.7213   C.3       1 RES1   0.0000
    30 N6       -2.8188    0.0552    0.0336   N.ar      1 RES1   0.0000
    31 N7       -3.2743    2.7743    2.3147   N.ar      1 RES1   0.0000
    32 C24      -2.4503    3.7167    2.7061   C.ar      1 RES1   0.0000
    33 C25      -1.5707    5.8599    2.5292   C.3       1 RES1   0.0000
    34 C26      -1.8770    5.8901    1.0327   C.3       1 RES1   0.0000
    35 C27      -1.3352    7.2943    2.9805   C.3       1 RES1   0.0000
    36 H1       -4.6389    5.0478    4.1256   H         1 RES1   0.0000
    37 H2       -4.5074    5.6286    2.4659   H         1 RES1   0.0000
    38 H3       -3.9818    6.6564    3.8101   H         1 RES1   0.0000
    39 H4       -2.2686    4.0081    5.2547   H         1 RES1   0.0000
    40 H5       -2.1890    5.7606    5.3508   H         1 RES1   0.0000
    41 H6        0.0734    3.9673    4.7763   H         1 RES1   0.0000
    42 H7        0.0963    5.7251    4.7914   H         1 RES1   0.0000
    43 H8        0.5627    5.0998    2.4179   H         1 RES1   0.0000
    44 H9       -5.3480    0.9827    2.0258   H         1 RES1   0.0000
    45 H10      -6.5392   -0.7127    0.6163   H         1 RES1   0.0000
    46 H11      -5.2682   -1.8749   -1.1977   H         1 RES1   0.0000
    47 H12      -4.6506   -4.0246   -4.6228   H         1 RES1   0.0000
    48 H13      -3.2954   -5.1445   -4.4313   H         1 RES1   0.0000
    49 H14      -3.8538   -4.7140   -6.0493   H         1 RES1   0.0000
    50 H15      -3.9313   -1.3845   -5.4567   H         1 RES1   0.0000
    51 H16      -3.5515   -2.3338   -6.8771   H         1 RES1   0.0000
    52 H17      -1.9052   -0.1636   -5.7108   H         1 RES1   0.0000
    53 H18      -1.5605   -1.0884   -7.1657   H         1 RES1   0.0000
    54 H19       0.2492   -1.7889   -5.5931   H         1 RES1   0.0000
    55 H20      -1.8221   -3.2974   -7.6834   H         1 RES1   0.0000
    56 H21      -1.4957   -4.9298   -7.1387   H         1 RES1   0.0000
    57 H22      -0.1645   -3.8005   -7.3675   H         1 RES1   0.0000
    58 H23      -0.5702   -4.2484   -3.6540   H         1 RES1   0.0000
    59 H24       0.5447   -4.4546   -5.0129   H         1 RES1   0.0000
    60 H25      -0.8844   -5.4694   -4.8789   H         1 RES1   0.0000
    61 H26      -1.9100    4.8922    0.5985   H         1 RES1   0.0000
    62 H27      -1.1086    6.4503    0.5060   H         1 RES1   0.0000
    63 H28      -2.8379    6.3665    0.8593   H         1 RES1   0.0000
    64 H29      -1.1870    7.3916    4.0495   H         1 RES1   0.0000
    65 H30      -2.1819    7.9172    2.6990   H         1 RES1   0.0000
    66 H31      -0.4522    7.6781    2.4702   H         1 RES1   0.0000
    67 C28      -3.3467    6.1703   -2.6301   C.3       1 RES1   0.0000
    68 C29      -3.3834    4.6672   -2.7779   C.3       1 RES1   0.0000
    69 C30      -3.4447    4.1773   -4.2577   C.3       1 RES1   0.0000
    70 C31      -3.9798    2.7390   -4.1729   C.3       1 RES1   0.0000
    71 C32      -4.0751    2.4922   -2.6559   C.3       1 RES1   0.0000
    72 C33      -2.6607    2.5339   -2.2039   C.ar      1 RES1   0.0000
    73 N8       -1.8559    1.5786   -1.8417   N.ar      1 RES1   0.0000
    74 N9       -0.6651    1.9444   -1.3817   N.ar      1 RES1   0.0000
    75 C34      -0.2930    3.2175   -1.3718   C.ar      1 RES1   0.0000
    76 C35       0.9813    3.4304   -0.6436   C.ar      1 RES1   0.0000
    77 C36       1.7821    4.5677   -0.6928   C.ar      1 RES1   0.0000
    78 C37       2.8956    4.6130    0.1379   C.ar      1 RES1   0.0000
    79 C38       3.1384    3.5808    1.0367   C.ar      1 RES1   0.0000
    80 C39       2.2720    2.4906    1.0282   C.ar      1 RES1   0.0000
    81 C40       2.2366    1.4005    2.0233   C.ar      1 RES1   0.0000
    82 N10       1.5587    0.3239    1.6358   N.ar      1 RES1   0.0000
    83 N11       1.1018   -0.5414    2.5428   N.ar      1 RES1   0.0000
    84 C41       1.4216   -0.3191    3.7881   C.ar      1 RES1   0.0000
    85 C42       2.3612    0.6989    4.1352   C.ar      1 RES1   0.0000
    86 N12       2.7428    1.5887    3.2539   N.ar      1 RES1   0.0000
    87 C43       2.5754    0.5979    5.6029   C.3       1 RES1   0.0000
    88 C44       3.8306    1.2171    6.1723   C.3       1 RES1   0.0000
    89 C45       1.2405    1.2384    6.0955   C.3       1 RES1   0.0000
    90 C46       0.1650    0.2014    5.7231   C.3       1 RES1   0.0000
    91 C47       0.9736   -0.9402    5.0562   C.3       1 RES1   0.0000
    92 C48       2.3099   -0.9240    5.8467   C.3       1 RES1   0.0000
    93 C49       2.1524   -1.3059    7.3110   C.3       1 RES1   0.0000
    94 C50       3.3593   -1.8464    5.2211   C.3       1 RES1   0.0000
    95 N13       1.2525    2.4115    0.1711   N.ar      1 RES1   0.0000
    96 N14      -1.0200    4.2386   -1.8594   N.ar      1 RES1   0.0000
    97 C51      -2.2262    3.8912   -2.2457   C.ar      1 RES1   0.0000
    98 C52      -4.5565    3.8610   -2.1138   C.3       1 RES1   0.0000
    99 C53      -4.5473    3.8955   -0.5835   C.3       1 RES1   0.0000
   100 C54      -5.9433    4.2725   -2.5734   C.3       1 RES1   0.0000
   101 H32      -2.5420    6.5753   -3.2397   H         1 RES1   0.0000
   102 H33      -3.1695    6.4448   -1.5939   H         1 RES1   0.0000
   103 H34      -4.2855    6.6031   -2.9647   H         1 RES1   0.0000
   104 H35      -2.4565    4.2208   -4.7174   H         1 RES1   0.0000
   105 H36      -4.1013    4.8273   -4.8323   H         1 RES1   0.0000
   106 H37      -3.3245    2.0091   -4.6476   H         1 RES1   0.0000
   107 H38      -4.9619    2.6423   -4.6269   H         1 RES1   0.0000
   108 H39      -4.6410    1.6070   -2.3738   H         1 RES1   0.0000
   109 H40       1.5364    5.3798   -1.3599   H         1 RES1   0.0000
   110 H41       3.5555    5.4650    0.1101   H         1 RES1   0.0000
   111 H42       3.9581    3.6230    1.7346   H         1 RES1   0.0000
   112 H43       3.8936    2.2675    5.8930   H         1 RES1   0.0000
   113 H44       4.7035    0.6994    5.7853   H         1 RES1   0.0000
   114 H45       3.8343    1.1415    7.2570   H         1 RES1   0.0000
   115 H46       1.0712    2.2047    5.6179   H         1 RES1   0.0000
   116 H47       1.2921    1.4130    7.1688   H         1 RES1   0.0000
   117 H48      -0.5759    0.6015    5.0277   H         1 RES1   0.0000
   118 H49      -0.3651   -0.1663    6.5995   H         1 RES1   0.0000
   119 H50       0.4506   -1.8903    4.9730   H         1 RES1   0.0000
   120 H51       1.4817   -0.6473    7.8487   H         1 RES1   0.0000
   121 H52       3.1148   -1.2785    7.8156   H         1 RES1   0.0000
   122 H53       1.7702   -2.3210    7.3762   H         1 RES1   0.0000
   123 H54       3.5698   -1.6116    4.1766   H         1 RES1   0.0000
   124 H55       3.0106   -2.8764    5.2757   H         1 RES1   0.0000
   125 H56       4.2965   -1.7895    5.7710   H         1 RES1   0.0000
   126 H57      -3.6220    3.5077   -0.1560   H         1 RES1   0.0000
   127 H58      -5.3623    3.2879   -0.1959   H         1 RES1   0.0000
   128 H59      -4.6826    4.9111   -0.2238   H         1 RES1   0.0000
   129 H60      -6.0238    4.3429   -3.6500   H         1 RES1   0.0000
   130 H61      -6.1930    5.2431   -2.1532   H         1 RES1   0.0000
   131 H62      -6.6737    3.5498   -2.2139   H         1 RES1   0.0000
   132 C55      -2.9594   -5.7958    3.7507   C.3       1 RES1   0.0000
   133 C56      -2.9489   -4.2871    3.8500   C.3       1 RES1   0.0000
   134 C57      -2.4512   -3.7170    5.2119   C.3       1 RES1   0.0000
   135 C58      -2.9486   -2.2607    5.2226   C.3       1 RES1   0.0000
   136 C59      -3.6270   -2.1030    3.8476   C.3       1 RES1   0.0000
   137 C60      -2.4958   -2.2022    2.8978   C.ar      1 RES1   0.0000
   138 N15      -1.9120   -1.3036    2.1561   N.ar      1 RES1   0.0000
   139 N16      -0.9608   -1.7416    1.3367   N.ar      1 RES1   0.0000
   140 C61      -0.5682   -3.0068    1.3653   C.ar      1 RES1   0.0000
   141 C62       0.4752   -3.3383    0.3843   C.ar      1 RES1   0.0000
   142 C63       0.9563   -4.6291    0.1782   C.ar      1 RES1   0.0000
   143 C64       1.8853   -4.8277   -0.8321   C.ar      1 RES1   0.0000
   144 C65       2.2955   -3.7457   -1.6001   C.ar      1 RES1   0.0000
   145 C66       1.7664   -2.4907   -1.3112   C.ar      1 RES1   0.0000
   146 C67       2.0906   -1.2715   -2.0698   C.ar      1 RES1   0.0000
   147 N17       1.7232   -0.1369   -1.4903   N.ar      1 RES1   0.0000
   148 N18       1.8823    1.0260   -2.1224   N.ar      1 RES1   0.0000
   149 C68       2.3811    0.9784   -3.3246   C.ar      1 RES1   0.0000
   150 C69       2.8151   -0.2536   -3.9002   C.ar      1 RES1   0.0000
   151 N19       2.6863   -1.3887   -3.2695   N.ar      1 RES1   0.0000
   152 C70       3.4512    0.0810   -5.1985   C.3       1 RES1   0.0000
   153 C71       3.6648   -1.0625   -6.1631   C.3       1 RES1   0.0000
   154 C72       4.7501    0.7818   -4.6910   C.3       1 RES1   0.0000
   155 C73       4.2666    2.1363   -4.1451   C.3       1 RES1   0.0000
   156 C74       2.7321    2.0534   -4.2902   C.3       1 RES1   0.0000
   157 C75       2.5667    1.2952   -5.6342   C.3       1 RES1   0.0000
   158 C76       3.0835    2.0301   -6.8595   C.3       1 RES1   0.0000
   159 C77       1.0999    0.9330   -5.8756   C.3       1 RES1   0.0000
   160 N20       0.8784   -2.2930   -0.3403   N.ar      1 RES1   0.0000
   161 N21      -1.0716   -3.9686    2.1537   N.ar      1 RES1   0.0000
   162 C78      -2.0726   -3.5641    2.8930   C.ar      1 RES1   0.0000
   163 C79      -4.2787   -3.4935    3.6205   C.3       1 RES1   0.0000
   164 C80      -4.8364   -3.6399    2.2012   C.3       1 RES1   0.0000
   165 C81      -5.3938   -3.8282    4.5962   C.3       1 RES1   0.0000
   166 H63      -1.9757   -6.1843    4.0068   H         1 RES1   0.0000
   167 H64      -3.1936   -6.0956    2.7322   H         1 RES1   0.0000
   168 H65      -3.6957   -6.2198    4.4293   H         1 RES1   0.0000
   169 H66      -1.3631   -3.7873    5.2822   H         1 RES1   0.0000
   170 H67      -2.8660   -4.3065    6.0285   H         1 RES1   0.0000
   171 H68      -2.1433   -1.5339    5.3324   H         1 RES1   0.0000
   172 H69      -3.6667   -2.0850    6.0178   H         1 RES1   0.0000
   173 H70      -4.2591   -1.2222    3.7485   H         1 RES1   0.0000
   174 H71       0.5895   -5.4310    0.7982   H         1 RES1   0.0000
   175 H72       2.2732   -5.8158   -1.0363   H         1 RES1   0.0000
   176 H73       3.0085   -3.8519   -2.4017   H         1 RES1   0.0000
   177 H74       4.3479   -1.7883   -5.7269   H         1 RES1   0.0000
   178 H75       4.0830   -0.7042   -7.1006   H         1 RES1   0.0000
   179 H76       2.7180   -1.5602   -6.3649   H         1 RES1   0.0000
   180 H77       5.4554    0.8898   -5.5115   H         1 RES1   0.0000
   181 H78       5.2363    0.1770   -3.9232   H         1 RES1   0.0000
   182 H79       4.6476    2.9675   -4.7321   H         1 RES1   0.0000
   183 H80       4.5493    2.3045   -3.1071   H         1 RES1   0.0000
   184 H81       2.2042    2.9962   -4.1698   H         1 RES1   0.0000
   185 H82       4.1419    2.2481   -6.8035   H         1 RES1   0.0000
   186 H83       2.5425    2.9654   -6.9795   H         1 RES1   0.0000
   187 H84       2.9168    1.4258   -7.7474   H         1 RES1   0.0000
   188 H85       0.6282    0.5112   -4.9874   H         1 RES1   0.0000
   189 H86       1.0064    0.2260   -6.6960   H         1 RES1   0.0000
   190 H87       0.5512    1.8320   -6.1474   H         1 RES1   0.0000
   191 H88      -4.1116   -3.3903    1.4246   H         1 RES1   0.0000
   192 H89      -5.6923   -2.9792    2.0829   H         1 RES1   0.0000
   193 H90      -5.1702   -4.6599    2.0290   H         1 RES1   0.0000
   194 H91      -5.0595   -3.8366    5.6267   H         1 RES1   0.0000
   195 H92      -5.8019   -4.8098    4.3649   H         1 RES1   0.0000
   196 H93      -6.1906   -3.0928    4.4937   H         1 RES1   0.0000
@<TRIPOS>BOND
     1     1     9    1
     2     1    17    1
     3     1    30    1
     4     1    74    1
     5     1    82    1
     6     1    95    1
     7     1   139    1
     8     1   147    1
     9     1   160    1
    10     2     3    1
    11     2    36    1
    12     2    37    1
    13     2    38    1
    14     3     4    1
    15     3    32    1
    16     3    33    1
    17     4     5    1
    18     4    39    1
    19     4    40    1
    20     5     6    1
    21     5    41    1
    22     5    42    1
    23     6     7    1
    24     6    33    1
    25     6    43    1
    26     7     8    1
    27     7    32    2
    28     8     9    2
    29     9    10    1
    30    10    11    1
    31    10    31    2
    32    11    12    1
    33    11    30    2
    34    12    13    2
    35    12    44    1
    36    13    14    1
    37    13    45    1
    38    14    15    2
    39    14    46    1
    40    15    16    1
    41    15    30    1
    42    16    17    1
    43    16    21    2
    44    17    18    2
    45    18    19    1
    46    19    20    2
    47    19    26    1
    48    20    21    1
    49    20    22    1
    50    22    23    1
    51    22    24    1
    52    22    27    1
    53    23    47    1
    54    23    48    1
    55    23    49    1
    56    24    25    1
    57    24    50    1
    58    24    51    1
    59    25    26    1
    60    25    52    1
    61    25    53    1
    62    26    27    1
    63    26    54    1
    64    27    28    1
    65    27    29    1
    66    28    55    1
    67    28    56    1
    68    28    57    1
    69    29    58    1
    70    29    59    1
    71    29    60    1
    72    31    32    1
    73    33    34    1
    74    33    35    1
    75    34    61    1
    76    34    62    1
    77    34    63    1
    78    35    64    1
    79    35    65    1
    80    35    66    1
    81    67    68    1
    82    67   101    1
    83    67   102    1
    84    67   103    1
    85    68    69    1
    86    68    97    1
    87    68    98    1
    88    69    70    1
    89    69   104    1
    90    69   105    1
    91    70    71    1
    92    70   106    1
    93    70   107    1
    94    71    72    1
    95    71    98    1
    96    71   108    1
    97    72    73    1
    98    72    97    2
    99    73    74    2
   100    74    75    1
   101    75    76    1
   102    75    96    2
   103    76    77    1
   104    76    95    2
   105    77    78    2
   106    77   109    1
   107    78    79    1
   108    78   110    1
   109    79    80    2
   110    79   111    1
   111    80    81    1
   112    80    95    1
   113    81    82    1
   114    81    86    2
   115    82    83    2
   116    83    84    1
   117    84    85    2
   118    84    91    1
   119    85    86    1
   120    85    87    1
   121    87    88    1
   122    87    89    1
   123    87    92    1
   124    88   112    1
   125    88   113    1
   126    88   114    1
   127    89    90    1
   128    89   115    1
   129    89   116    1
   130    90    91    1
   131    90   117    1
   132    90   118    1
   133    91    92    1
   134    91   119    1
   135    92    93    1
   136    92    94    1
   137    93   120    1
   138    93   121    1
   139    93   122    1
   140    94   123    1
   141    94   124    1
   142    94   125    1
   143    96    97    1
   144    98    99    1
   145    98   100    1
   146    99   126    1
   147    99   127    1
   148    99   128    1
   149   100   129    1
   150   100   130    1
   151   100   131    1
   152   132   133    1
   153   132   166    1
   154   132   167    1
   155   132   168    1
   156   133   134    1
   157   133   162    1
   158   133   163    1
   159   134   135    1
   160   134   169    1
   161   134   170    1
   162   135   136    1
   163   135   171    1
   164   135   172    1
   165   136   137    1
   166   136   163    1
   167   136   173    1
   168   137   138    1
   169   137   162    2
   170   138   139    2
   171   139   140    1
   172   140   141    1
   173   140   161    2
   174   141   142    1
   175   141   160    2
   176   142   143    2
   177   142   174    1
   178   143   144    1
   179   143   175    1
   180   144   145    2
   181   144   176    1
   182   145   146    1
   183   145   160    1
   184   146   147    1
   185   146   151    2
   186   147   148    2
   187   148   149    1
   188   149   150    2
   189   149   156    1
   190   150   151    1
   191   150   152    1
   192   152   153    1
   193   152   154    1
   194   152   157    1
   195   153   177    1
   196   153   178    1
   197   153   179    1
   198   154   155    1
   199   154   180    1
   200   154   181    1
   201   155   156    1
   202   155   182    1
   203   155   183    1
   204   156   157    1
   205   156   184    1
   206   157   158    1
   207   157   159    1
   208   158   185    1
   209   158   186    1
   210   158   187    1
   211   159   188    1
   212   159   189    1
   213   159   190    1
   214   161   162    1
   215   163   164    1
   216   163   165    1
   217   164   191    1
   218   164   192    1
   219   164   193    1
   220   165   194    1
   221   165   195    1
   222   165   196    1
@<TRIPOS>SUBSTRUCTURE
     1 RES1      196 GROUP             0 ****  ****    0  
