@<TRIPOS>MOLECULE
ICIGOT_geomtry_0_nunpairedes_0_charge_1 Charge: 1 Unpaired_Electrons: 5 XTB_Unpaired_Electrons: 0 XTB_Charge: 1
    87    97     1     0     0
SMALL
NoCharges
****
Generated from Architector

@<TRIPOS>ATOM
     1 Dy1      -0.3902    0.0748   -0.0816   Dy        1 RES1   0.0000
     2 C1       -1.2074    1.0420   -5.2782   C.3       1 RES1   0.0000
     3 C2        0.2779    0.7175   -5.4676   C.3       1 RES1   0.0000
     4 C3        1.1002    2.0031   -5.2961   C.3       1 RES1   0.0000
     5 C4        0.5213    0.0734   -6.8392   C.3       1 RES1   0.0000
     6 C5        1.8648   -0.6444   -6.9111   C.3       1 RES1   0.0000
     7 C6        1.9634   -1.8308   -5.9368   C.3       1 RES1   0.0000
     8 C7        1.1405   -3.0265   -6.4473   C.3       1 RES1   0.0000
     9 C8        3.4320   -2.2555   -5.8071   C.3       1 RES1   0.0000
    10 C9        1.4269   -1.4249   -4.5924   C.ar      1 RES1   0.0000
    11 N1        1.6489   -2.2126   -3.5510   N.ar      1 RES1   0.0000
    12 C10       1.3081   -1.7685   -2.3491   C.ar      1 RES1   0.0000
    13 C11       1.5391   -2.5866   -1.1463   C.ar      1 RES1   0.0000
    14 C12       2.0128   -3.8950   -1.1466   C.ar      1 RES1   0.0000
    15 C13       2.2337   -4.5099    0.0757   C.ar      1 RES1   0.0000
    16 C14       2.0633   -3.7842    1.2445   C.ar      1 RES1   0.0000
    17 C15       1.6326   -2.4631    1.1563   C.ar      1 RES1   0.0000
    18 C16       1.6009   -1.5074    2.2825   C.ar      1 RES1   0.0000
    19 C17       1.9527   -1.7986    3.6002   C.ar      1 RES1   0.0000
    20 C18       2.0274   -0.7627    4.5183   C.ar      1 RES1   0.0000
    21 C19       1.7849    0.5366    4.0986   C.ar      1 RES1   0.0000
    22 C20       1.4139    0.7357    2.7709   C.ar      1 RES1   0.0000
    23 C21       1.1564    2.0582    2.1748   C.ar      1 RES1   0.0000
    24 N2        0.6877    2.0486    0.9185   N.ar      1 RES1   0.0000
    25 N3        0.3987    3.1975    0.3531   N.ar      1 RES1   0.0000
    26 C22       0.6184    4.3425    0.9866   C.ar      1 RES1   0.0000
    27 C23       1.2416    4.3273    2.2648   C.ar      1 RES1   0.0000
    28 N4        1.4600    3.1590    2.8484   N.ar      1 RES1   0.0000
    29 C24       1.6903    5.5718    2.9789   C.3       1 RES1   0.0000
    30 C25       0.7461    5.8099    4.1713   C.3       1 RES1   0.0000
    31 C26       3.1143    5.3712    3.5137   C.3       1 RES1   0.0000
    32 C27       1.6650    6.7656    2.0101   C.3       1 RES1   0.0000
    33 C28       0.3888    6.8164    1.1764   C.3       1 RES1   0.0000
    34 C29       0.2411    5.5984    0.2519   C.3       1 RES1   0.0000
    35 C30      -1.2037    5.4760   -0.2448   C.3       1 RES1   0.0000
    36 C31       1.1847    5.7036   -0.9569   C.3       1 RES1   0.0000
    37 N5        1.3095   -0.2630    1.8993   N.ar      1 RES1   0.0000
    38 N6        1.3238   -1.9091   -0.0174   N.ar      1 RES1   0.0000
    39 N7        0.8594   -0.5263   -2.1101   N.ar      1 RES1   0.0000
    40 N8        0.5456    0.2205   -3.1369   N.ar      1 RES1   0.0000
    41 C32       0.7281   -0.2073   -4.3765   C.ar      1 RES1   0.0000
    42 H1       -1.5200    1.7551   -6.0326   H         1 RES1   0.0000
    43 H2       -1.8183    0.1501   -5.3741   H         1 RES1   0.0000
    44 H3       -1.3890    1.4641   -4.2957   H         1 RES1   0.0000
    45 H4        0.8240    2.7235   -6.0563   H         1 RES1   0.0000
    46 H5        0.9183    2.4334   -4.3163   H         1 RES1   0.0000
    47 H6        2.1636    1.8009   -5.3788   H         1 RES1   0.0000
    48 H7       -0.2750   -0.6367   -7.0616   H         1 RES1   0.0000
    49 H8        0.4803    0.8544   -7.5987   H         1 RES1   0.0000
    50 H9        2.0330   -1.0115   -7.9241   H         1 RES1   0.0000
    51 H10       2.6620    0.0685   -6.6954   H         1 RES1   0.0000
    52 H11       1.5056   -3.3142   -7.4292   H         1 RES1   0.0000
    53 H12       1.2346   -3.8796   -5.7824   H         1 RES1   0.0000
    54 H13       0.0849   -2.7833   -6.5282   H         1 RES1   0.0000
    55 H14       3.8113   -2.5304   -6.7855   H         1 RES1   0.0000
    56 H15       4.0404   -1.4413   -5.4243   H         1 RES1   0.0000
    57 H16       3.5452   -3.1040   -5.1425   H         1 RES1   0.0000
    58 H17       2.1957   -4.4088   -2.0773   H         1 RES1   0.0000
    59 H18       2.5891   -5.5280    0.1101   H         1 RES1   0.0000
    60 H19       2.2579   -4.2167    2.2085   H         1 RES1   0.0000
    61 H20       2.1519   -2.8080    3.9179   H         1 RES1   0.0000
    62 H21       2.3128   -0.9696    5.5382   H         1 RES1   0.0000
    63 H22       1.8617    1.3906    4.7463   H         1 RES1   0.0000
    64 H23       0.7867    4.9797    4.8700   H         1 RES1   0.0000
    65 H24       1.0507    6.7140    4.6914   H         1 RES1   0.0000
    66 H25      -0.2862    5.9255    3.8539   H         1 RES1   0.0000
    67 H26       3.1579    4.5450    4.2136   H         1 RES1   0.0000
    68 H27       3.8103    5.1662    2.7059   H         1 RES1   0.0000
    69 H28       3.4417    6.2723    4.0211   H         1 RES1   0.0000
    70 H29       1.7659    7.6881    2.5832   H         1 RES1   0.0000
    71 H30       2.5283    6.7138    1.3448   H         1 RES1   0.0000
    72 H31      -0.4699    6.8762    1.8454   H         1 RES1   0.0000
    73 H32       0.3826    7.7209    0.5662   H         1 RES1   0.0000
    74 H33      -1.8923    5.3454    0.5836   H         1 RES1   0.0000
    75 H34      -1.4868    6.3727   -0.7844   H         1 RES1   0.0000
    76 H35      -1.3165    4.6264   -0.9089   H         1 RES1   0.0000
    77 H36       2.2226    5.7593   -0.6421   H         1 RES1   0.0000
    78 H37       1.0760    4.8327   -1.5959   H         1 RES1   0.0000
    79 H38       0.9532    6.5912   -1.5364   H         1 RES1   0.0000
    80 N9       -1.9331   -1.6815    0.7815   N.3       1 RES1   0.0000
    81 O1       -2.8269   -2.3786    1.1360   O.2       1 RES1   0.0000
    82 O2       -1.3041   -0.9604    1.5759   O.co2     1 RES1   0.0000
    83 O3       -1.5503   -1.6561   -0.4051   O.co2     1 RES1   0.0000
    84 N10      -2.2904    1.5511   -0.8189   N.3       1 RES1   0.0000
    85 O4       -3.1208    2.3195   -1.1817   O.2       1 RES1   0.0000
    86 O5       -2.0104    1.3982    0.3862   O.co2     1 RES1   0.0000
    87 O6       -1.6396    0.8609   -1.6236   O.co2     1 RES1   0.0000
@<TRIPOS>BOND
     1     1    24    1
     2     1    37    1
     3     1    38    1
     4     1    39    1
     5     1    82    1
     6     1    83    1
     7     1    86    1
     8     1    87    1
     9     2     3    1
    10     2    42    1
    11     2    43    1
    12     2    44    1
    13     3     4    1
    14     3     5    1
    15     3    41    1
    16     4    45    1
    17     4    46    1
    18     4    47    1
    19     5     6    1
    20     5    48    1
    21     5    49    1
    22     6     7    1
    23     6    50    1
    24     6    51    1
    25     7     8    1
    26     7     9    1
    27     7    10    1
    28     8    52    1
    29     8    53    1
    30     8    54    1
    31     9    55    1
    32     9    56    1
    33     9    57    1
    34    10    11    1
    35    10    41    2
    36    11    12    2
    37    12    13    1
    38    12    39    1
    39    13    14    1
    40    13    38    2
    41    14    15    2
    42    14    58    1
    43    15    16    1
    44    15    59    1
    45    16    17    2
    46    16    60    1
    47    17    18    1
    48    17    38    1
    49    18    19    1
    50    18    37    2
    51    19    20    2
    52    19    61    1
    53    20    21    1
    54    20    62    1
    55    21    22    2
    56    21    63    1
    57    22    23    1
    58    22    37    1
    59    23    24    1
    60    23    28    2
    61    24    25    2
    62    25    26    1
    63    26    27    2
    64    26    34    1
    65    27    28    1
    66    27    29    1
    67    29    30    1
    68    29    31    1
    69    29    32    1
    70    30    64    1
    71    30    65    1
    72    30    66    1
    73    31    67    1
    74    31    68    1
    75    31    69    1
    76    32    33    1
    77    32    70    1
    78    32    71    1
    79    33    34    1
    80    33    72    1
    81    33    73    1
    82    34    35    1
    83    34    36    1
    84    35    74    1
    85    35    75    1
    86    35    76    1
    87    36    77    1
    88    36    78    1
    89    36    79    1
    90    39    40    2
    91    40    41    1
    92    80    81    2
    93    80    82    1
    94    80    83    1
    95    84    85    2
    96    84    86    1
    97    84    87    1
@<TRIPOS>SUBSTRUCTURE
     1 RES1       87 GROUP             0 ****  ****    0  
