@<TRIPOS>MOLECULE
ICIGOT_geomtry_0_nunpairedes_0_charge_1 Charge: 1 Unpaired_Electrons: 4 XTB_Unpaired_Electrons: 0 XTB_Charge: 1
   119   132     1     0     0
SMALL
NoCharges
****
Generated from Architector

@<TRIPOS>ATOM
     1 Ho1      -0.3895    0.0667   -0.0845   Ho        1 RES1   0.0000
     2 C1        1.0457    2.1379   -7.8800   C.3       1 RES1   0.0000
     3 C2        0.3438    1.1374   -6.9701   C.3       1 RES1   0.0000
     4 C3        1.2358    0.7144   -5.8076   C.3       1 RES1   0.0000
     5 C4        0.5700   -0.2219   -4.7992   C.3       1 RES1   0.0000
     6 C5        0.1476   -1.5641   -5.3969   C.3       1 RES1   0.0000
     7 C6       -0.4577   -2.5374   -4.3809   C.3       1 RES1   0.0000
     8 N1        0.5053   -2.9609   -3.3746   N.ar      1 RES1   0.0000
     9 C7        1.2874   -4.0862   -3.5121   C.ar      1 RES1   0.0000
    10 C8        0.9951   -4.9846   -4.6627   C.ar      1 RES1   0.0000
    11 C9        1.5924   -4.8325   -5.9093   C.ar      1 RES1   0.0000
    12 C10       1.2884   -5.7105   -6.9364   C.ar      1 RES1   0.0000
    13 C11       0.3877   -6.7423   -6.7278   C.ar      1 RES1   0.0000
    14 C12      -0.2159   -6.8995   -5.4908   C.ar      1 RES1   0.0000
    15 C13       0.0881   -6.0237   -4.4640   C.ar      1 RES1   0.0000
    16 C14       2.2353   -4.4288   -2.5819   C.ar      1 RES1   0.0000
    17 C15       3.0619   -5.6434   -2.7733   C.ar      1 RES1   0.0000
    18 C16       2.8414   -6.7595   -1.9747   C.ar      1 RES1   0.0000
    19 C17       3.6334   -7.8829   -2.1210   C.ar      1 RES1   0.0000
    20 C18       4.6522   -7.8931   -3.0594   C.ar      1 RES1   0.0000
    21 C19       4.8699   -6.7876   -3.8642   C.ar      1 RES1   0.0000
    22 C20       4.0708   -5.6677   -3.7276   C.ar      1 RES1   0.0000
    23 C21       2.4209   -3.6126   -1.4154   C.ar      1 RES1   0.0000
    24 C22       3.3974   -3.7772   -0.4163   C.ar      1 RES1   0.0000
    25 C23       3.4527   -2.8852    0.6569   C.ar      1 RES1   0.0000
    26 C24       4.4119   -2.9207    1.7227   C.ar      1 RES1   0.0000
    27 C25       4.3955   -2.0279    2.7421   C.ar      1 RES1   0.0000
    28 C26       3.4193   -0.9807    2.8364   C.ar      1 RES1   0.0000
    29 C27       3.3310   -0.0400    3.8646   C.ar      1 RES1   0.0000
    30 C28       2.3198    0.9374    3.8298   C.ar      1 RES1   0.0000
    31 C29       2.0924    1.9691    4.7984   C.ar      1 RES1   0.0000
    32 C30       2.9548    2.0532    6.0021   C.ar      1 RES1   0.0000
    33 C31       2.8134    1.1190    7.0222   C.ar      1 RES1   0.0000
    34 C32       3.6327    1.1761    8.1345   C.ar      1 RES1   0.0000
    35 C33       4.6049    2.1592    8.2263   C.ar      1 RES1   0.0000
    36 C34       4.7508    3.0936    7.2141   C.ar      1 RES1   0.0000
    37 C35       3.9222    3.0456    6.1078   C.ar      1 RES1   0.0000
    38 C36       1.0979    2.8911    4.5939   C.ar      1 RES1   0.0000
    39 C37       0.8502    3.9523    5.6038   C.ar      1 RES1   0.0000
    40 C38       1.2400    5.2678    5.3650   C.ar      1 RES1   0.0000
    41 C39       0.9959    6.2456    6.3123   C.ar      1 RES1   0.0000
    42 C40       0.3558    5.9208    7.4976   C.ar      1 RES1   0.0000
    43 C41      -0.0330    4.6143    7.7443   C.ar      1 RES1   0.0000
    44 C42       0.2199    3.6321    6.8034   C.ar      1 RES1   0.0000
    45 N2        0.2754    2.8654    3.4816   N.ar      1 RES1   0.0000
    46 C43      -0.8656    3.7741    3.3476   C.3       1 RES1   0.0000
    47 C44      -0.6781    4.9193    2.3341   C.3       1 RES1   0.0000
    48 C45      -1.2674    4.6626    0.9428   C.3       1 RES1   0.0000
    49 C46      -1.1081    5.8483   -0.0178   C.3       1 RES1   0.0000
    50 C47       0.1508    5.8375   -0.8863   C.3       1 RES1   0.0000
    51 C48       1.4678    5.8443   -0.1238   C.3       1 RES1   0.0000
    52 C49       0.4039    1.9139    2.5261   C.ar      1 RES1   0.0000
    53 O1       -0.3451    1.8537    1.5293   O.2       1 RES1   0.0000
    54 C50       1.4626    0.9321    2.7047   C.ar      1 RES1   0.0000
    55 N3        1.5387    0.0444    1.7194   N.ar      1 RES1   0.0000
    56 C51       2.4697   -0.8985    1.7863   C.ar      1 RES1   0.0000
    57 C52       2.4841   -1.8492    0.7069   C.ar      1 RES1   0.0000
    58 N4        1.5537   -1.6849   -0.2260   N.ar      1 RES1   0.0000
    59 C53       1.5378   -2.5199   -1.2615   C.ar      1 RES1   0.0000
    60 C54       0.5586   -2.1700   -2.2745   C.ar      1 RES1   0.0000
    61 O2       -0.1675   -1.1684   -2.1271   O.2       1 RES1   0.0000
    62 H1        0.4015    2.4247   -8.7072   H         1 RES1   0.0000
    63 H2        1.9559    1.7104   -8.2938   H         1 RES1   0.0000
    64 H3        1.3133    3.0379   -7.3331   H         1 RES1   0.0000
    65 H4        0.0608    0.2679   -7.5625   H         1 RES1   0.0000
    66 H5       -0.5686    1.5856   -6.5785   H         1 RES1   0.0000
    67 H6        1.5469    1.6097   -5.2677   H         1 RES1   0.0000
    68 H7        2.1356    0.2395   -6.2016   H         1 RES1   0.0000
    69 H8       -0.3046    0.2724   -4.3756   H         1 RES1   0.0000
    70 H9        1.2762   -0.3851   -3.9814   H         1 RES1   0.0000
    71 H10       1.0011   -2.0344   -5.8869   H         1 RES1   0.0000
    72 H11      -0.6212   -1.3949   -6.1485   H         1 RES1   0.0000
    73 H12      -0.8595   -3.4170   -4.8852   H         1 RES1   0.0000
    74 H13      -1.2496   -2.0331   -3.8212   H         1 RES1   0.0000
    75 H14       2.2973   -4.0323   -6.0785   H         1 RES1   0.0000
    76 H15       1.7640   -5.5991   -7.9007   H         1 RES1   0.0000
    77 H16       0.1681   -7.4260   -7.5321   H         1 RES1   0.0000
    78 H17      -0.9141   -7.7049   -5.3096   H         1 RES1   0.0000
    79 H18      -0.3875   -6.1427   -3.5023   H         1 RES1   0.0000
    80 H19       2.0462   -6.7353   -1.2444   H         1 RES1   0.0000
    81 H20       3.4690   -8.7461   -1.4941   H         1 RES1   0.0000
    82 H21       5.2762   -8.7664   -3.1550   H         1 RES1   0.0000
    83 H22       5.6703   -6.7796   -4.5885   H         1 RES1   0.0000
    84 H23       4.2458   -4.8010   -4.3461   H         1 RES1   0.0000
    85 H24       4.1081   -4.5877   -0.5083   H         1 RES1   0.0000
    86 H25       5.1681   -3.6869    1.7009   H         1 RES1   0.0000
    87 H26       5.1379   -2.0901    3.5200   H         1 RES1   0.0000
    88 H27       4.0427   -0.0465    4.6796   H         1 RES1   0.0000
    89 H28       2.0537    0.3557    6.9365   H         1 RES1   0.0000
    90 H29       3.5212    0.4494    8.9261   H         1 RES1   0.0000
    91 H30       5.2477    2.1887    9.0907   H         1 RES1   0.0000
    92 H31       5.5136    3.8569    7.2703   H         1 RES1   0.0000
    93 H32       4.0405    3.7710    5.3170   H         1 RES1   0.0000
    94 H33       1.7330    5.5203    4.4381   H         1 RES1   0.0000
    95 H34       1.3115    7.2631    6.1324   H         1 RES1   0.0000
    96 H35       0.1702    6.6908    8.2283   H         1 RES1   0.0000
    97 H36      -0.5267    4.3464    8.6673   H         1 RES1   0.0000
    98 H37      -0.0944    2.6167    6.9896   H         1 RES1   0.0000
    99 H38      -1.0566    4.1793    4.3412   H         1 RES1   0.0000
   100 H39      -1.7145    3.1569    3.0433   H         1 RES1   0.0000
   101 H40       0.3791    5.1543    2.2395   H         1 RES1   0.0000
   102 H41      -1.1685    5.7971    2.7552   H         1 RES1   0.0000
   103 H42      -2.3310    4.4451    1.0500   H         1 RES1   0.0000
   104 H43      -0.8035    3.7807    0.5049   H         1 RES1   0.0000
   105 H44      -1.1546    6.7827    0.5429   H         1 RES1   0.0000
   106 H45      -1.9550    5.8436   -0.7047   H         1 RES1   0.0000
   107 H46       0.1183    6.7242   -1.5211   H         1 RES1   0.0000
   108 H47       0.1226    4.9712   -1.5477   H         1 RES1   0.0000
   109 H48       1.5249    6.7009    0.5439   H         1 RES1   0.0000
   110 H49       2.3002    5.9068   -0.8205   H         1 RES1   0.0000
   111 H50       1.5938    4.9325    0.4543   H         1 RES1   0.0000
   112 N5       -2.2532   -1.1761    0.9042   N.3       1 RES1   0.0000
   113 O3       -3.2960   -1.4468    1.4039   O.2       1 RES1   0.0000
   114 O4       -1.2714   -0.8302    1.5972   O.co2     1 RES1   0.0000
   115 O5       -2.0601   -1.2640   -0.3150   O.co2     1 RES1   0.0000
   116 N6       -0.9769    1.9390   -1.5625   N.3       1 RES1   0.0000
   117 O6       -1.2506    2.7746   -2.3611   O.2       1 RES1   0.0000
   118 O7        0.2008    1.5281   -1.4411   O.co2     1 RES1   0.0000
   119 O8       -1.8213    1.4464   -0.7979   O.co2     1 RES1   0.0000
@<TRIPOS>BOND
     1     1    53    1
     2     1    55    1
     3     1    58    1
     4     1    61    1
     5     1   114    1
     6     1   115    1
     7     1   118    1
     8     1   119    1
     9     2     3    1
    10     2    62    1
    11     2    63    1
    12     2    64    1
    13     3     4    1
    14     3    65    1
    15     3    66    1
    16     4     5    1
    17     4    67    1
    18     4    68    1
    19     5     6    1
    20     5    69    1
    21     5    70    1
    22     6     7    1
    23     6    71    1
    24     6    72    1
    25     7     8    1
    26     7    73    1
    27     7    74    1
    28     8     9    1
    29     8    60    1
    30     9    10    1
    31     9    16    2
    32    10    11    1
    33    10    15    2
    34    11    12    2
    35    11    75    1
    36    12    13    1
    37    12    76    1
    38    13    14    2
    39    13    77    1
    40    14    15    1
    41    14    78    1
    42    15    79    1
    43    16    17    1
    44    16    23    1
    45    17    18    1
    46    17    22    2
    47    18    19    2
    48    18    80    1
    49    19    20    1
    50    19    81    1
    51    20    21    2
    52    20    82    1
    53    21    22    1
    54    21    83    1
    55    22    84    1
    56    23    24    1
    57    23    59    2
    58    24    25    2
    59    24    85    1
    60    25    26    1
    61    25    57    1
    62    26    27    2
    63    26    86    1
    64    27    28    1
    65    27    87    1
    66    28    29    1
    67    28    56    2
    68    29    30    2
    69    29    88    1
    70    30    31    1
    71    30    54    1
    72    31    32    1
    73    31    38    2
    74    32    33    1
    75    32    37    2
    76    33    34    2
    77    33    89    1
    78    34    35    1
    79    34    90    1
    80    35    36    2
    81    35    91    1
    82    36    37    1
    83    36    92    1
    84    37    93    1
    85    38    39    1
    86    38    45    1
    87    39    40    1
    88    39    44    2
    89    40    41    2
    90    40    94    1
    91    41    42    1
    92    41    95    1
    93    42    43    2
    94    42    96    1
    95    43    44    1
    96    43    97    1
    97    44    98    1
    98    45    46    1
    99    45    52    1
   100    46    47    1
   101    46    99    1
   102    46   100    1
   103    47    48    1
   104    47   101    1
   105    47   102    1
   106    48    49    1
   107    48   103    1
   108    48   104    1
   109    49    50    1
   110    49   105    1
   111    49   106    1
   112    50    51    1
   113    50   107    1
   114    50   108    1
   115    51   109    1
   116    51   110    1
   117    51   111    1
   118    52    53    2
   119    52    54    1
   120    54    55    2
   121    55    56    1
   122    56    57    1
   123    57    58    2
   124    58    59    1
   125    59    60    1
   126    60    61    2
   127   112   113    2
   128   112   114    1
   129   112   115    1
   130   116   117    2
   131   116   118    1
   132   116   119    1
@<TRIPOS>SUBSTRUCTURE
     1 RES1      119 GROUP             0 ****  ****    0  
