@<TRIPOS>MOLECULE
ICIGOT_geomtry_0_nunpairedes_0_charge_3 Charge: 3 Unpaired_Electrons: 4 XTB_Unpaired_Electrons: 0 XTB_Charge: 3
   123   134     1     0     0
SMALL
NoCharges
****
Generated from Architector

@<TRIPOS>ATOM
     1 Ho1      -0.0775    0.0067    0.0129   Ho        1 RES1   0.0000
     2 C1        0.0193    8.0675    0.6998   C.3       1 RES1   0.0000
     3 C2        0.3226    6.8342   -0.1417   C.3       1 RES1   0.0000
     4 C3        1.4024    5.9332    0.4650   C.3       1 RES1   0.0000
     5 C4        1.0970    5.4022    1.8703   C.3       1 RES1   0.0000
     6 C5       -0.2243    4.6377    1.9217   C.3       1 RES1   0.0000
     7 C6       -0.4473    3.8965    3.2427   C.3       1 RES1   0.0000
     8 N1        0.5475    2.8498    3.4788   N.ar      1 RES1   0.0000
     9 C7        1.3252    2.8479    4.6224   C.ar      1 RES1   0.0000
    10 C8        1.1348    3.9566    5.5889   C.ar      1 RES1   0.0000
    11 C9        0.1225    3.9042    6.5477   C.ar      1 RES1   0.0000
    12 C10      -0.0451    4.9452    7.4455   C.ar      1 RES1   0.0000
    13 C11       0.7933    6.0480    7.3851   C.ar      1 RES1   0.0000
    14 C12       1.7973    6.1126    6.4317   C.ar      1 RES1   0.0000
    15 C13       1.9744    5.0688    5.5391   C.ar      1 RES1   0.0000
    16 C14       2.2506    1.8662    4.8873   C.ar      1 RES1   0.0000
    17 C15       3.0507    1.9058    6.1327   C.ar      1 RES1   0.0000
    18 C16       4.3475    2.4056    6.0780   C.ar      1 RES1   0.0000
    19 C17       5.1317    2.4360    7.2157   C.ar      1 RES1   0.0000
    20 C18       4.6279    1.9505    8.4104   C.ar      1 RES1   0.0000
    21 C19       3.3337    1.4633    8.4742   C.ar      1 RES1   0.0000
    22 C20       2.5384    1.4469    7.3416   C.ar      1 RES1   0.0000
    23 C21       2.4534    0.8095    3.9532   C.ar      1 RES1   0.0000
    24 C22       3.3288   -0.2843    4.0996   C.ar      1 RES1   0.0000
    25 C23       3.3887   -1.2542    3.0993   C.ar      1 RES1   0.0000
    26 C24       4.2376   -2.4145    3.1057   C.ar      1 RES1   0.0000
    27 C25       4.2796   -3.2935    2.0719   C.ar      1 RES1   0.0000
    28 C26       3.4457   -3.1485    0.9086   C.ar      1 RES1   0.0000
    29 C27       3.4393   -3.9904   -0.2014   C.ar      1 RES1   0.0000
    30 C28       2.5554   -3.7312   -1.2662   C.ar      1 RES1   0.0000
    31 C29       2.4842   -4.4529   -2.4937   C.ar      1 RES1   0.0000
    32 C30       3.4563   -5.5366   -2.7696   C.ar      1 RES1   0.0000
    33 C31       3.0945   -6.8727   -2.6298   C.ar      1 RES1   0.0000
    34 C32       4.0180   -7.8765   -2.8669   C.ar      1 RES1   0.0000
    35 C33       5.3045   -7.5501   -3.2638   C.ar      1 RES1   0.0000
    36 C34       5.6653   -6.2232   -3.4295   C.ar      1 RES1   0.0000
    37 C35       4.7493   -5.2170   -3.1774   C.ar      1 RES1   0.0000
    38 C36       1.5441   -4.1124   -3.4387   C.ar      1 RES1   0.0000
    39 C37       1.5423   -4.7868   -4.7610   C.ar      1 RES1   0.0000
    40 C38       2.3422   -4.2584   -5.7757   C.ar      1 RES1   0.0000
    41 C39       2.3686   -4.8494   -7.0270   C.ar      1 RES1   0.0000
    42 C40       1.6015   -5.9775   -7.2718   C.ar      1 RES1   0.0000
    43 C41       0.8069   -6.5117   -6.2710   C.ar      1 RES1   0.0000
    44 C42       0.7773   -5.9217   -5.0174   C.ar      1 RES1   0.0000
    45 N2        0.6293   -3.0952   -3.2354   N.ar      1 RES1   0.0000
    46 C43      -0.3493   -2.7501   -4.2653   C.3       1 RES1   0.0000
    47 C44      -1.6839   -3.5054   -4.2000   C.3       1 RES1   0.0000
    48 C45      -2.5596   -3.2269   -2.9700   C.3       1 RES1   0.0000
    49 C46      -2.2058   -4.0678   -1.7375   C.3       1 RES1   0.0000
    50 C47      -3.2708   -4.0220   -0.6336   C.3       1 RES1   0.0000
    51 C48      -2.8033   -4.7468    0.6256   C.3       1 RES1   0.0000
    52 C49       0.6612   -2.3330   -2.1269   C.ar      1 RES1   0.0000
    53 O1       -0.1379   -1.3598   -1.9494   O.2       1 RES1   0.0000
    54 C50       1.6512   -2.6536   -1.1259   C.ar      1 RES1   0.0000
    55 N3        1.6423   -1.8435   -0.0604   N.ar      1 RES1   0.0000
    56 C51       2.5344   -2.0575    0.9043   C.ar      1 RES1   0.0000
    57 C52       2.5343   -1.0949    1.9752   C.ar      1 RES1   0.0000
    58 N4        1.6907   -0.0781    1.8318   N.ar      1 RES1   0.0000
    59 C53       1.6489    0.8517    2.7901   C.ar      1 RES1   0.0000
    60 C54       0.6526    1.8697    2.5669   C.ar      1 RES1   0.0000
    61 O2       -0.1201    1.7873    1.5571   O.2       1 RES1   0.0000
    62 H1       -0.6918    8.7069    0.1839   H         1 RES1   0.0000
    63 H2        0.9244    8.6425    0.8729   H         1 RES1   0.0000
    64 H3       -0.4077    7.7996    1.6629   H         1 RES1   0.0000
    65 H4        0.6689    7.1638   -1.1239   H         1 RES1   0.0000
    66 H5       -0.5981    6.2656   -0.3010   H         1 RES1   0.0000
    67 H6        2.3362    6.4978    0.5047   H         1 RES1   0.0000
    68 H7        1.5576    5.0814   -0.2059   H         1 RES1   0.0000
    69 H8        1.0732    6.2304    2.5763   H         1 RES1   0.0000
    70 H9        1.9192    4.7399    2.1554   H         1 RES1   0.0000
    71 H10      -0.2431    3.9333    1.0870   H         1 RES1   0.0000
    72 H11      -1.0502    5.3380    1.7950   H         1 RES1   0.0000
    73 H12      -1.4295    3.4141    3.2275   H         1 RES1   0.0000
    74 H13      -0.4075    4.6000    4.0743   H         1 RES1   0.0000
    75 H14      -0.5386    3.0519    6.5953   H         1 RES1   0.0000
    76 H15      -0.8362    4.8950    8.1819   H         1 RES1   0.0000
    77 H16       0.6639    6.8650    8.0763   H         1 RES1   0.0000
    78 H17       2.4368    6.9835    6.3783   H         1 RES1   0.0000
    79 H18       2.7542    5.1207    4.7944   H         1 RES1   0.0000
    80 H19       4.7351    2.7836    5.1447   H         1 RES1   0.0000
    81 H20       6.1285    2.8446    7.1615   H         1 RES1   0.0000
    82 H21       5.2360    1.9645    9.2982   H         1 RES1   0.0000
    83 H22       2.9439    1.1011    9.4129   H         1 RES1   0.0000
    84 H23       1.5288    1.0688    7.3954   H         1 RES1   0.0000
    85 H24       3.9336   -0.3764    4.9901   H         1 RES1   0.0000
    86 H25       4.8617   -2.5675    3.9735   H         1 RES1   0.0000
    87 H26       4.9436   -4.1446    2.1175   H         1 RES1   0.0000
    88 H27       4.1109   -4.8340   -0.2555   H         1 RES1   0.0000
    89 H28       2.0943   -7.1321   -2.3209   H         1 RES1   0.0000
    90 H29       3.7318   -8.9106   -2.7404   H         1 RES1   0.0000
    91 H30       6.0302   -8.3243   -3.4518   H         1 RES1   0.0000
    92 H31       6.6644   -5.9768   -3.7580   H         1 RES1   0.0000
    93 H32       5.0322   -4.1833   -3.3120   H         1 RES1   0.0000
    94 H33       2.9426   -3.3801   -5.5939   H         1 RES1   0.0000
    95 H34       2.9824   -4.4202   -7.8065   H         1 RES1   0.0000
    96 H35       1.6166   -6.4405   -8.2455   H         1 RES1   0.0000
    97 H36       0.2029   -7.3859   -6.4712   H         1 RES1   0.0000
    98 H37       0.1654   -6.3488   -4.2375   H         1 RES1   0.0000
    99 H38       0.1176   -2.9480   -5.2320   H         1 RES1   0.0000
   100 H39      -0.5524   -1.6813   -4.1611   H         1 RES1   0.0000
   101 H40      -1.5153   -4.5763   -4.2977   H         1 RES1   0.0000
   102 H41      -2.2382   -3.1895   -5.0864   H         1 RES1   0.0000
   103 H42      -3.5923   -3.4607   -3.2328   H         1 RES1   0.0000
   104 H43      -2.5204   -2.1548   -2.7542   H         1 RES1   0.0000
   105 H44      -1.2371   -3.7700   -1.3188   H         1 RES1   0.0000
   106 H45      -2.1193   -5.1094   -2.0504   H         1 RES1   0.0000
   107 H46      -4.1865   -4.4844   -1.0023   H         1 RES1   0.0000
   108 H47      -3.5293   -2.9958   -0.3603   H         1 RES1   0.0000
   109 H48      -2.7220   -5.8153    0.4506   H         1 RES1   0.0000
   110 H49      -3.5151   -4.5985    1.4336   H         1 RES1   0.0000
   111 H50      -1.8260   -4.3730    0.9377   H         1 RES1   0.0000
   112 O3       -1.2534   -0.9284    2.1173   O.3       1 RES1   0.0000
   113 H51      -1.5034   -1.8255    2.3853   H         1 RES1   0.0000
   114 H52      -1.8363   -0.3546    2.6371   H         1 RES1   0.0000
   115 O4       -2.3021   -0.9053   -0.3896   O.3       1 RES1   0.0000
   116 H53      -2.2899   -1.7175   -0.9355   H         1 RES1   0.0000
   117 H54      -3.2086   -0.5719   -0.4737   H         1 RES1   0.0000
   118 O5        0.0764    1.2608   -2.2049   O.3       1 RES1   0.0000
   119 H55      -0.8393    1.2599   -2.5316   H         1 RES1   0.0000
   120 H56       0.6211    1.1611   -3.0018   H         1 RES1   0.0000
   121 O6       -1.9080    1.8843   -0.3722   O.3       1 RES1   0.0000
   122 H57      -2.3553    2.1477    0.4457   H         1 RES1   0.0000
   123 H58      -1.6305    2.7243   -0.7688   H         1 RES1   0.0000
@<TRIPOS>BOND
     1     1    53    1
     2     1    55    1
     3     1    58    1
     4     1    61    1
     5     1   112    1
     6     1   115    1
     7     1   118    1
     8     1   121    1
     9     2     3    1
    10     2    62    1
    11     2    63    1
    12     2    64    1
    13     3     4    1
    14     3    65    1
    15     3    66    1
    16     4     5    1
    17     4    67    1
    18     4    68    1
    19     5     6    1
    20     5    69    1
    21     5    70    1
    22     6     7    1
    23     6    71    1
    24     6    72    1
    25     7     8    1
    26     7    73    1
    27     7    74    1
    28     8     9    1
    29     8    60    1
    30     9    10    1
    31     9    16    2
    32    10    11    1
    33    10    15    2
    34    11    12    2
    35    11    75    1
    36    12    13    1
    37    12    76    1
    38    13    14    2
    39    13    77    1
    40    14    15    1
    41    14    78    1
    42    15    79    1
    43    16    17    1
    44    16    23    1
    45    17    18    1
    46    17    22    2
    47    18    19    2
    48    18    80    1
    49    19    20    1
    50    19    81    1
    51    20    21    2
    52    20    82    1
    53    21    22    1
    54    21    83    1
    55    22    84    1
    56    23    24    1
    57    23    59    2
    58    24    25    2
    59    24    85    1
    60    25    26    1
    61    25    57    1
    62    26    27    2
    63    26    86    1
    64    27    28    1
    65    27    87    1
    66    28    29    1
    67    28    56    2
    68    29    30    2
    69    29    88    1
    70    30    31    1
    71    30    54    1
    72    31    32    1
    73    31    38    2
    74    32    33    1
    75    32    37    2
    76    33    34    2
    77    33    89    1
    78    34    35    1
    79    34    90    1
    80    35    36    2
    81    35    91    1
    82    36    37    1
    83    36    92    1
    84    37    93    1
    85    38    39    1
    86    38    45    1
    87    39    40    1
    88    39    44    2
    89    40    41    2
    90    40    94    1
    91    41    42    1
    92    41    95    1
    93    42    43    2
    94    42    96    1
    95    43    44    1
    96    43    97    1
    97    44    98    1
    98    45    46    1
    99    45    52    1
   100    46    47    1
   101    46    99    1
   102    46   100    1
   103    47    48    1
   104    47   101    1
   105    47   102    1
   106    48    49    1
   107    48   103    1
   108    48   104    1
   109    49    50    1
   110    49   105    1
   111    49   106    1
   112    50    51    1
   113    50   107    1
   114    50   108    1
   115    51   109    1
   116    51   110    1
   117    51   111    1
   118    52    53    2
   119    52    54    1
   120    54    55    2
   121    55    56    1
   122    56    57    1
   123    57    58    2
   124    58    59    1
   125    59    60    1
   126    60    61    2
   127   112   113    1
   128   112   114    1
   129   115   116    1
   130   115   117    1
   131   118   119    1
   132   118   120    1
   133   121   122    1
   134   121   123    1
@<TRIPOS>SUBSTRUCTURE
     1 RES1      123 GROUP             0 ****  ****    0  
