@<TRIPOS>MOLECULE
ICIGOT_geomtry_0_nunpairedes_0_charge_3 Charge: 3 Unpaired_Electrons: 6 XTB_Unpaired_Electrons: 0 XTB_Charge: 3
   117   130     1     0     0
SMALL
NoCharges
****
Generated from Architector

@<TRIPOS>ATOM
     1 Tb1       0.1588   -0.8741    0.2299   Tb        1 RES1   0.0000
     2 C1        6.4759    3.7170   -4.9108   C.3       1 RES1   0.0000
     3 C2        6.6742    3.1732   -3.4980   C.3       1 RES1   0.0000
     4 C3        5.7858    3.8952   -2.4786   C.3       1 RES1   0.0000
     5 C4        4.3875    3.2801   -2.3609   C.3       1 RES1   0.0000
     6 C5        4.4454    1.9594   -1.5906   C.3       1 RES1   0.0000
     7 C6        3.0810    1.3831   -1.2236   C.3       1 RES1   0.0000
     8 N1        3.2793    0.1895   -0.4050   N.ar      1 RES1   0.0000
     9 C7        4.3664   -0.7761   -0.6075   C.ar      1 RES1   0.0000
    10 C8        5.3623   -0.6133    0.4790   C.ar      1 RES1   0.0000
    11 C9        4.9065   -0.3861    1.7831   C.ar      1 RES1   0.0000
    12 C10       5.8024   -0.0602    2.7860   C.ar      1 RES1   0.0000
    13 C11       7.1554    0.0480    2.5071   C.ar      1 RES1   0.0000
    14 C12       7.6098   -0.1705    1.2159   C.ar      1 RES1   0.0000
    15 C13       6.7239   -0.4874    0.2029   C.ar      1 RES1   0.0000
    16 C14       4.5756   -1.3493   -1.9099   C.ar      1 RES1   0.0000
    17 C15       5.5142   -2.3989   -2.1637   C.ar      1 RES1   0.0000
    18 C16       5.9084   -3.2277   -1.0802   C.ar      1 RES1   0.0000
    19 C17       6.6043   -4.3930   -1.2928   C.ar      1 RES1   0.0000
    20 C18       6.9837   -4.7657   -2.5788   C.ar      1 RES1   0.0000
    21 C19       6.7152   -3.9064   -3.6417   C.ar      1 RES1   0.0000
    22 C20       5.9775   -2.7557   -3.4510   C.ar      1 RES1   0.0000
    23 C21       3.3518   -1.1174   -2.7444   C.ar      1 RES1   0.0000
    24 C22       3.0129   -0.5512   -3.9608   C.ar      1 RES1   0.0000
    25 C23       1.6976   -0.0186   -4.1193   C.ar      1 RES1   0.0000
    26 C24       1.3805    0.9929   -5.0911   C.ar      1 RES1   0.0000
    27 C25       0.4564    1.9489   -4.8225   C.ar      1 RES1   0.0000
    28 C26      -0.1810    2.0269   -3.5402   C.ar      1 RES1   0.0000
    29 C27      -0.6602    3.2171   -2.9671   C.ar      1 RES1   0.0000
    30 C28      -0.8137    3.3034   -1.5764   C.ar      1 RES1   0.0000
    31 C29      -1.0913    4.4573   -0.7549   C.ar      1 RES1   0.0000
    32 C30      -2.0520    5.5200   -1.1168   C.ar      1 RES1   0.0000
    33 C31      -3.2136    5.5153   -0.3377   C.ar      1 RES1   0.0000
    34 C32      -4.2112    6.4469   -0.5342   C.ar      1 RES1   0.0000
    35 C33      -4.0559    7.4247   -1.5067   C.ar      1 RES1   0.0000
    36 C34      -2.9139    7.4292   -2.2934   C.ar      1 RES1   0.0000
    37 C35      -1.9139    6.4833   -2.1090   C.ar      1 RES1   0.0000
    38 C36      -0.6580    4.4334    0.5518   C.ar      1 RES1   0.0000
    39 C37      -0.8574    5.5180    1.5190   C.ar      1 RES1   0.0000
    40 C38      -1.5774    5.1945    2.6708   C.ar      1 RES1   0.0000
    41 C39      -1.7073    6.1133    3.6871   C.ar      1 RES1   0.0000
    42 C40      -1.0979    7.3524    3.5757   C.ar      1 RES1   0.0000
    43 C41      -0.3893    7.6771    2.4298   C.ar      1 RES1   0.0000
    44 C42      -0.2689    6.7722    1.3914   C.ar      1 RES1   0.0000
    45 N2       -0.0032    3.3339    1.0929   N.ar      1 RES1   0.0000
    46 C43       0.8986    3.4583    2.2408   C.3       1 RES1   0.0000
    47 C44       0.4870    2.6782    3.5041   C.3       1 RES1   0.0000
    48 C45       0.6561    3.5006    4.7966   C.3       1 RES1   0.0000
    49 C46       1.5804    2.8763    5.8484   C.3       1 RES1   0.0000
    50 C47       0.9945    1.6994    6.6271   C.3       1 RES1   0.0000
    51 C48       0.8048    0.4134    5.8339   C.3       1 RES1   0.0000
    52 C49      -0.1694    2.1279    0.5448   C.ar      1 RES1   0.0000
    53 O1        0.2171    1.0557    1.1296   O.2       1 RES1   0.0000
    54 C50      -0.5967    2.1036   -0.8395   C.ar      1 RES1   0.0000
    55 N3       -0.4337    0.9020   -1.4151   N.ar      1 RES1   0.0000
    56 C51      -0.1218    0.8688   -2.7224   C.ar      1 RES1   0.0000
    57 C52       0.7584   -0.2136   -3.0864   C.ar      1 RES1   0.0000
    58 N4        1.0175   -1.0394   -2.0284   N.ar      1 RES1   0.0000
    59 C53       2.2882   -1.3317   -1.8313   C.ar      1 RES1   0.0000
    60 C54       2.7258   -1.1077   -0.4043   C.ar      1 RES1   0.0000
    61 O2        2.0977   -1.6003    0.5966   O.2       1 RES1   0.0000
    62 H1        7.2343    3.3194   -5.5842   H         1 RES1   0.0000
    63 H2        6.5522    4.8043   -4.9267   H         1 RES1   0.0000
    64 H3        5.4934    3.4351   -5.2938   H         1 RES1   0.0000
    65 H4        7.7208    3.2847   -3.2076   H         1 RES1   0.0000
    66 H5        6.4533    2.0994   -3.5063   H         1 RES1   0.0000
    67 H6        5.6958    4.9422   -2.7759   H         1 RES1   0.0000
    68 H7        6.2591    3.8708   -1.4958   H         1 RES1   0.0000
    69 H8        3.9738    3.1147   -3.3580   H         1 RES1   0.0000
    70 H9        3.7287    3.9707   -1.8305   H         1 RES1   0.0000
    71 H10       5.0233    2.1012   -0.6768   H         1 RES1   0.0000
    72 H11       4.9637    1.2052   -2.1843   H         1 RES1   0.0000
    73 H12       2.5117    1.1936   -2.1370   H         1 RES1   0.0000
    74 H13       2.5224    2.1023   -0.6110   H         1 RES1   0.0000
    75 H14       3.8506   -0.4779    2.0025   H         1 RES1   0.0000
    76 H15       5.4465    0.1126    3.7898   H         1 RES1   0.0000
    77 H16       7.8520    0.3108    3.2866   H         1 RES1   0.0000
    78 H17       8.6609   -0.0950    0.9960   H         1 RES1   0.0000
    79 H18       7.0930   -0.6199   -0.8027   H         1 RES1   0.0000
    80 H19       5.5749   -2.9895   -0.0843   H         1 RES1   0.0000
    81 H20       6.8333   -5.0358   -0.4562   H         1 RES1   0.0000
    82 H21       7.4740   -5.7144   -2.7457   H         1 RES1   0.0000
    83 H22       7.0770   -4.1629   -4.6267   H         1 RES1   0.0000
    84 H23       5.8021   -2.1040   -4.2930   H         1 RES1   0.0000
    85 H24       3.7452   -0.3057   -4.7178   H         1 RES1   0.0000
    86 H25       1.9566    1.0415   -6.0039   H         1 RES1   0.0000
    87 H26       0.2781    2.7498   -5.5227   H         1 RES1   0.0000
    88 H27      -0.7567    4.0966   -3.5916   H         1 RES1   0.0000
    89 H28      -3.3387    4.7491    0.4104   H         1 RES1   0.0000
    90 H29      -5.0930    6.4262    0.0871   H         1 RES1   0.0000
    91 H30      -4.8309    8.1678   -1.6513   H         1 RES1   0.0000
    92 H31      -2.7876    8.2032   -3.0389   H         1 RES1   0.0000
    93 H32      -1.0165    6.5265   -2.7104   H         1 RES1   0.0000
    94 H33      -2.0575    4.2314    2.7465   H         1 RES1   0.0000
    95 H34      -2.2577    5.8715    4.5786   H         1 RES1   0.0000
    96 H35      -1.2108    8.0778    4.3655   H         1 RES1   0.0000
    97 H36       0.0930    8.6373    2.3686   H         1 RES1   0.0000
    98 H37       0.2860    7.0226    0.4992   H         1 RES1   0.0000
    99 H38       0.9943    4.5182    2.4744   H         1 RES1   0.0000
   100 H39       1.8630    3.0764    1.8869   H         1 RES1   0.0000
   101 H40       1.0990    1.7790    3.5523   H         1 RES1   0.0000
   102 H41      -0.5516    2.3613    3.4205   H         1 RES1   0.0000
   103 H42      -0.3170    3.6894    5.2515   H         1 RES1   0.0000
   104 H43       1.0786    4.4729    4.5425   H         1 RES1   0.0000
   105 H44       1.8132    3.6597    6.5751   H         1 RES1   0.0000
   106 H45       2.5163    2.5774    5.3730   H         1 RES1   0.0000
   107 H46       0.0355    2.0014    7.0476   H         1 RES1   0.0000
   108 H47       1.6699    1.4831    7.4563   H         1 RES1   0.0000
   109 H48       0.1275    0.5579    4.9975   H         1 RES1   0.0000
   110 H49       0.3781   -0.3435    6.4834   H         1 RES1   0.0000
   111 H50       1.7560    0.0426    5.4585   H         1 RES1   0.0000
   112 O3       -0.9438   -2.0246    2.0979   O.3       1 RES1   0.0000
   113 H51      -1.8679   -2.2693    2.2775   H         1 RES1   0.0000
   114 H52      -0.4678   -2.3246    2.8931   H         1 RES1   0.0000
   115 O4       -1.7654   -2.3412   -0.5674   O.3       1 RES1   0.0000
   116 H53      -1.9864   -3.2543   -0.3213   H         1 RES1   0.0000
   117 H54      -2.4446   -2.0877   -1.2148   H         1 RES1   0.0000
@<TRIPOS>BOND
     1     1     8    1
     2     1    45    1
     3     1    53    1
     4     1    55    1
     5     1    58    1
     6     1    61    1
     7     1   112    1
     8     1   115    1
     9     2     3    1
    10     2    62    1
    11     2    63    1
    12     2    64    1
    13     3     4    1
    14     3    65    1
    15     3    66    1
    16     4     5    1
    17     4    67    1
    18     4    68    1
    19     5     6    1
    20     5    69    1
    21     5    70    1
    22     6     7    1
    23     6    71    1
    24     6    72    1
    25     7     8    1
    26     7    73    1
    27     7    74    1
    28     8     9    1
    29     8    60    1
    30     9    10    1
    31     9    16    2
    32    10    11    1
    33    10    15    2
    34    11    12    2
    35    11    75    1
    36    12    13    1
    37    12    76    1
    38    13    14    2
    39    13    77    1
    40    14    15    1
    41    14    78    1
    42    15    79    1
    43    16    17    1
    44    16    23    1
    45    17    18    1
    46    17    22    2
    47    18    19    2
    48    18    80    1
    49    19    20    1
    50    19    81    1
    51    20    21    2
    52    20    82    1
    53    21    22    1
    54    21    83    1
    55    22    84    1
    56    23    24    1
    57    23    59    2
    58    24    25    2
    59    24    85    1
    60    25    26    1
    61    25    57    1
    62    26    27    2
    63    26    86    1
    64    27    28    1
    65    27    87    1
    66    28    29    1
    67    28    56    2
    68    29    30    2
    69    29    88    1
    70    30    31    1
    71    30    54    1
    72    31    32    1
    73    31    38    2
    74    32    33    1
    75    32    37    2
    76    33    34    2
    77    33    89    1
    78    34    35    1
    79    34    90    1
    80    35    36    2
    81    35    91    1
    82    36    37    1
    83    36    92    1
    84    37    93    1
    85    38    39    1
    86    38    45    1
    87    39    40    1
    88    39    44    2
    89    40    41    2
    90    40    94    1
    91    41    42    1
    92    41    95    1
    93    42    43    2
    94    42    96    1
    95    43    44    1
    96    43    97    1
    97    44    98    1
    98    45    46    1
    99    45    52    1
   100    46    47    1
   101    46    99    1
   102    46   100    1
   103    47    48    1
   104    47   101    1
   105    47   102    1
   106    48    49    1
   107    48   103    1
   108    48   104    1
   109    49    50    1
   110    49   105    1
   111    49   106    1
   112    50    51    1
   113    50   107    1
   114    50   108    1
   115    51   109    1
   116    51   110    1
   117    51   111    1
   118    52    53    2
   119    52    54    1
   120    54    55    2
   121    55    56    1
   122    56    57    1
   123    57    58    2
   124    58    59    1
   125    59    60    1
   126    60    61    2
   127   112   113    1
   128   112   114    1
   129   115   116    1
   130   115   117    1
@<TRIPOS>SUBSTRUCTURE
     1 RES1      117 GROUP             0 ****  ****    0  
