@<TRIPOS>MOLECULE
ICIGOT_geomtry_0_nunpairedes_0_charge_3 Charge: 3 Unpaired_Electrons: 6 XTB_Unpaired_Electrons: 0 XTB_Charge: 3
   245   248     1     0     0
SMALL
NoCharges
****
Generated from Architector

@<TRIPOS>ATOM
     1 Tb1      -0.0702   -0.0309   -0.0064   Tb        1 RES1   0.0000
     2 C1       -2.0510   -4.9094    4.3679   C.3       1 RES1   0.0000
     3 C2       -2.7450   -3.5590    4.2496   C.3       1 RES1   0.0000
     4 C3       -1.7725   -2.3836    4.2574   C.3       1 RES1   0.0000
     5 C4       -2.4469   -1.0127    4.1564   C.3       1 RES1   0.0000
     6 N1       -3.3377   -0.8518    3.0064   N.am      1 RES1   0.0000
     7 C5       -4.7072   -0.4668    3.3167   C.3       1 RES1   0.0000
     8 C6       -5.5378   -1.5656    3.9710   C.3       1 RES1   0.0000
     9 C7       -5.9607   -2.6812    3.0201   C.3       1 RES1   0.0000
    10 C8       -6.6169   -3.8028    3.8144   C.3       1 RES1   0.0000
    11 C9       -2.7812   -0.7936    1.8009   C.2       1 RES1   0.0000
    12 O1       -1.5382   -0.8404    1.6857   O.2       1 RES1   0.0000
    13 C10      -3.6765   -0.6119    0.5852   C.3       1 RES1   0.0000
    14 C11      -3.0487   -1.2231   -0.6696   C.2       1 RES1   0.0000
    15 O2       -1.8160   -1.3782   -0.7549   O.2       1 RES1   0.0000
    16 N2       -3.8689   -1.5671   -1.6562   N.am      1 RES1   0.0000
    17 C12      -5.3067   -1.3497   -1.6619   C.3       1 RES1   0.0000
    18 C13      -5.6405    0.0990   -2.0257   C.3       1 RES1   0.0000
    19 C14      -7.1442    0.3482   -2.1109   C.3       1 RES1   0.0000
    20 C15      -7.8582    0.2500   -0.7696   C.3       1 RES1   0.0000
    21 C16      -3.3130   -2.0404   -2.9197   C.3       1 RES1   0.0000
    22 C17      -3.6707   -3.5075   -3.2004   C.3       1 RES1   0.0000
    23 C18      -4.5100   -3.7094   -4.4654   C.3       1 RES1   0.0000
    24 C19      -3.7643   -3.3605   -5.7489   C.3       1 RES1   0.0000
    25 H1       -2.7822   -5.7069    4.2666   H         1 RES1   0.0000
    26 H2       -1.5747   -5.0148    5.3376   H         1 RES1   0.0000
    27 H3       -1.3044   -5.0349    3.5855   H         1 RES1   0.0000
    28 H4       -3.4362   -3.4590    5.0859   H         1 RES1   0.0000
    29 H5       -3.3145   -3.5436    3.3210   H         1 RES1   0.0000
    30 H6       -1.0687   -2.4887    3.4332   H         1 RES1   0.0000
    31 H7       -1.2120   -2.3880    5.1911   H         1 RES1   0.0000
    32 H8       -1.6602   -0.2510    4.0836   H         1 RES1   0.0000
    33 H9       -3.0329   -0.8260    5.0540   H         1 RES1   0.0000
    34 H10      -5.2064   -0.1162    2.4156   H         1 RES1   0.0000
    35 H11      -4.6247    0.3773    4.0092   H         1 RES1   0.0000
    36 H12      -6.4260   -1.0951    4.3915   H         1 RES1   0.0000
    37 H13      -4.9809   -1.9932    4.8026   H         1 RES1   0.0000
    38 H14      -5.0911   -3.0684    2.4831   H         1 RES1   0.0000
    39 H15      -6.6667   -2.2949    2.2815   H         1 RES1   0.0000
    40 H16      -5.9174   -4.2232    4.5336   H         1 RES1   0.0000
    41 H17      -6.9541   -4.6005    3.1601   H         1 RES1   0.0000
    42 H18      -7.4744   -3.4195    4.3613   H         1 RES1   0.0000
    43 H19      -3.7705    0.4669    0.4058   H         1 RES1   0.0000
    44 H20      -4.6654   -1.0276    0.7607   H         1 RES1   0.0000
    45 H21      -5.7480   -1.6133   -0.6998   H         1 RES1   0.0000
    46 H22      -5.7343   -2.0341   -2.3964   H         1 RES1   0.0000
    47 H23      -5.1881    0.3287   -2.9913   H         1 RES1   0.0000
    48 H24      -5.1964    0.7718   -1.2878   H         1 RES1   0.0000
    49 H25      -7.5886   -0.3593   -2.8105   H         1 RES1   0.0000
    50 H26      -7.2962    1.3471   -2.5175   H         1 RES1   0.0000
    51 H27      -7.8292   -0.7624   -0.3755   H         1 RES1   0.0000
    52 H28      -8.9005    0.5239   -0.8992   H         1 RES1   0.0000
    53 H29      -7.4170    0.9282   -0.0415   H         1 RES1   0.0000
    54 H30      -2.2318   -1.8954   -2.8747   H         1 RES1   0.0000
    55 H31      -3.7196   -1.3995   -3.7031   H         1 RES1   0.0000
    56 H32      -4.2183   -3.9097   -2.3457   H         1 RES1   0.0000
    57 H33      -2.7550   -4.0857   -3.2965   H         1 RES1   0.0000
    58 H34      -5.4302   -3.1218   -4.4170   H         1 RES1   0.0000
    59 H35      -4.7998   -4.7602   -4.5057   H         1 RES1   0.0000
    60 H36      -3.4843   -2.3091   -5.7812   H         1 RES1   0.0000
    61 H37      -4.3973   -3.5660   -6.6080   H         1 RES1   0.0000
    62 H38      -2.8636   -3.9623   -5.8460   H         1 RES1   0.0000
    63 C20      -3.1332    1.6326   -6.8286   C.3       1 RES1   0.0000
    64 C21      -2.8049    0.6763   -5.6893   C.3       1 RES1   0.0000
    65 C22      -2.7687    1.3514   -4.3176   C.3       1 RES1   0.0000
    66 C23      -1.7228    2.4555   -4.1630   C.3       1 RES1   0.0000
    67 N3       -0.3361    1.9874   -4.2349   N.am      1 RES1   0.0000
    68 C24       0.4638    2.5363   -5.3235   C.3       1 RES1   0.0000
    69 C25       0.6374    4.0614   -5.2468   C.3       1 RES1   0.0000
    70 C26       1.3519    4.5850   -4.0018   C.3       1 RES1   0.0000
    71 C27       2.8173    4.1782   -3.9144   C.3       1 RES1   0.0000
    72 C28       0.1312    1.3358   -3.1718   C.2       1 RES1   0.0000
    73 O3       -0.5604    1.1774   -2.1443   O.2       1 RES1   0.0000
    74 C29       1.4939    0.6502   -3.1640   C.3       1 RES1   0.0000
    75 C30       1.1822   -0.8540   -3.0840   C.2       1 RES1   0.0000
    76 O4        0.6050   -1.2545   -2.0611   O.2       1 RES1   0.0000
    77 N4        1.5415   -1.6844   -4.0584   N.am      1 RES1   0.0000
    78 C31       2.1166   -1.2455   -5.3182   C.3       1 RES1   0.0000
    79 C32       1.0272   -0.8136   -6.2957   C.3       1 RES1   0.0000
    80 C33       1.6388   -0.2602   -7.5785   C.3       1 RES1   0.0000
    81 C34       0.5637    0.1248   -8.5825   C.3       1 RES1   0.0000
    82 C35       1.4451   -3.1246   -3.8147   C.3       1 RES1   0.0000
    83 C36       0.0634   -3.7516   -3.6225   C.3       1 RES1   0.0000
    84 C37       0.2769   -5.2543   -3.3924   C.3       1 RES1   0.0000
    85 C38      -1.0051   -6.0424   -3.1621   C.3       1 RES1   0.0000
    86 H39      -3.2317    1.0803   -7.7585   H         1 RES1   0.0000
    87 H40      -2.3580    2.3818   -6.9656   H         1 RES1   0.0000
    88 H41      -4.0739    2.1407   -6.6345   H         1 RES1   0.0000
    89 H42      -1.8534    0.1784   -5.8818   H         1 RES1   0.0000
    90 H43      -3.5785   -0.0945   -5.6625   H         1 RES1   0.0000
    91 H44      -2.5826    0.6116   -3.5363   H         1 RES1   0.0000
    92 H45      -3.7419    1.8161   -4.1305   H         1 RES1   0.0000
    93 H46      -1.8679    2.9048   -3.1830   H         1 RES1   0.0000
    94 H47      -1.8789    3.2099   -4.9279   H         1 RES1   0.0000
    95 H48      -0.0357    2.2923   -6.2652   H         1 RES1   0.0000
    96 H49       1.4469    2.0714   -5.3452   H         1 RES1   0.0000
    97 H50      -0.3303    4.5589   -5.3289   H         1 RES1   0.0000
    98 H51       1.2094    4.3426   -6.1302   H         1 RES1   0.0000
    99 H52       0.8227    4.2596   -3.1036   H         1 RES1   0.0000
   100 H53       1.3016    5.6738   -4.0399   H         1 RES1   0.0000
   101 H54       2.9306    3.1041   -3.7880   H         1 RES1   0.0000
   102 H55       3.2841    4.6655   -3.0625   H         1 RES1   0.0000
   103 H56       3.3513    4.4838   -4.8104   H         1 RES1   0.0000
   104 H57       1.9535    0.8977   -2.1910   H         1 RES1   0.0000
   105 H58       2.1533    0.9276   -3.9767   H         1 RES1   0.0000
   106 H59       2.7019   -2.0623   -5.7413   H         1 RES1   0.0000
   107 H60       2.8181   -0.4248   -5.1498   H         1 RES1   0.0000
   108 H61       0.4074   -0.0591   -5.8069   H         1 RES1   0.0000
   109 H62       0.3895   -1.6666   -6.5317   H         1 RES1   0.0000
   110 H63       2.2898   -1.0160   -8.0200   H         1 RES1   0.0000
   111 H64       2.2556    0.6096   -7.3428   H         1 RES1   0.0000
   112 H65      -0.0475   -0.7386   -8.8314   H         1 RES1   0.0000
   113 H66       1.0178    0.4961   -9.4949   H         1 RES1   0.0000
   114 H67      -0.0844    0.9019   -8.1835   H         1 RES1   0.0000
   115 H68       2.0092   -3.3166   -2.9014   H         1 RES1   0.0000
   116 H69       1.9364   -3.6313   -4.6437   H         1 RES1   0.0000
   117 H70      -0.5678   -3.5900   -4.4986   H         1 RES1   0.0000
   118 H71      -0.4143   -3.3019   -2.7505   H         1 RES1   0.0000
   119 H72       0.9233   -5.3864   -2.5210   H         1 RES1   0.0000
   120 H73       0.7946   -5.6749   -4.2571   H         1 RES1   0.0000
   121 H74      -1.5358   -5.6813   -2.2832   H         1 RES1   0.0000
   122 H75      -0.7639   -7.0900   -3.0015   H         1 RES1   0.0000
   123 H76      -1.6583   -5.9799   -4.0284   H         1 RES1   0.0000
   124 C39      -2.0953    7.1333   -1.1540   C.3       1 RES1   0.0000
   125 C40      -1.1431    5.9852   -0.8452   C.3       1 RES1   0.0000
   126 C41      -1.5697    4.6634   -1.4858   C.3       1 RES1   0.0000
   127 C42      -2.8791    4.0620   -0.9534   C.3       1 RES1   0.0000
   128 N5       -2.7907    3.7713    0.4786   N.am      1 RES1   0.0000
   129 C43      -3.5848    4.6131    1.3662   C.3       1 RES1   0.0000
   130 C44      -5.0886    4.5904    1.0477   C.3       1 RES1   0.0000
   131 C45      -5.7694    3.2306    1.1779   C.3       1 RES1   0.0000
   132 C46      -5.7745    2.7067    2.6073   C.3       1 RES1   0.0000
   133 C47      -2.0909    2.6889    0.8404   C.2       1 RES1   0.0000
   134 O5       -1.8342    1.7700    0.0394   O.2       1 RES1   0.0000
   135 C48      -1.4663    2.5728    2.2222   C.3       1 RES1   0.0000
   136 C49       0.0542    2.7742    2.0186   C.2       1 RES1   0.0000
   137 O6        0.6210    2.1366    1.1139   O.2       1 RES1   0.0000
   138 N6        0.6997    3.5752    2.8638   N.am      1 RES1   0.0000
   139 C50       0.0263    4.4693    3.7992   C.3       1 RES1   0.0000
   140 C51      -0.5719    5.6620    3.0549   C.3       1 RES1   0.0000
   141 C52      -1.4013    6.5572    3.9692   C.3       1 RES1   0.0000
   142 C53      -1.9392    7.7628    3.2115   C.3       1 RES1   0.0000
   143 C54       2.1622    3.5771    2.8778   C.3       1 RES1   0.0000
   144 C55       2.8607    4.0336    1.5997   C.3       1 RES1   0.0000
   145 C56       4.3729    4.0325    1.8385   C.3       1 RES1   0.0000
   146 C57       5.1574    4.4655    0.6091   C.3       1 RES1   0.0000
   147 H77      -1.7182    8.0567   -0.7235   H         1 RES1   0.0000
   148 H78      -3.0870    6.9518   -0.7474   H         1 RES1   0.0000
   149 H79      -2.1850    7.2746   -2.2285   H         1 RES1   0.0000
   150 H80      -1.0380    5.8602    0.2320   H         1 RES1   0.0000
   151 H81      -0.1557    6.2409   -1.2343   H         1 RES1   0.0000
   152 H82      -0.7759    3.9223   -1.3452   H         1 RES1   0.0000
   153 H83      -1.6993    4.8465   -2.5552   H         1 RES1   0.0000
   154 H84      -3.0960    3.1271   -1.4793   H         1 RES1   0.0000
   155 H85      -3.6961    4.7543   -1.1344   H         1 RES1   0.0000
   156 H86      -3.2424    5.6481    1.2856   H         1 RES1   0.0000
   157 H87      -3.4456    4.2914    2.3972   H         1 RES1   0.0000
   158 H88      -5.2780    4.9810    0.0473   H         1 RES1   0.0000
   159 H89      -5.5549    5.2822    1.7492   H         1 RES1   0.0000
   160 H90      -5.2924    2.5083    0.5088   H         1 RES1   0.0000
   161 H91      -6.8018    3.3559    0.8499   H         1 RES1   0.0000
   162 H92      -4.7686    2.4534    2.9389   H         1 RES1   0.0000
   163 H93      -6.4021    1.8226    2.6807   H         1 RES1   0.0000
   164 H94      -6.1840    3.4571    3.2778   H         1 RES1   0.0000
   165 H95      -1.5565    1.5276    2.5471   H         1 RES1   0.0000
   166 H96      -1.8858    3.2434    2.9587   H         1 RES1   0.0000
   167 H97       0.7547    4.8205    4.5303   H         1 RES1   0.0000
   168 H98      -0.7398    3.9328    4.3668   H         1 RES1   0.0000
   169 H99      -1.1913    5.2825    2.2412   H         1 RES1   0.0000
   170 H100      0.2371    6.2443    2.6125   H         1 RES1   0.0000
   171 H101     -0.7811    6.8999    4.7981   H         1 RES1   0.0000
   172 H102     -2.2312    5.9846    4.3892   H         1 RES1   0.0000
   173 H103     -1.1210    8.3487    2.8018   H         1 RES1   0.0000
   174 H104     -2.5155    8.3978    3.8758   H         1 RES1   0.0000
   175 H105     -2.5860    7.4568    2.3917   H         1 RES1   0.0000
   176 H106      2.4747    2.5559    3.0916   H         1 RES1   0.0000
   177 H107      2.4833    4.2162    3.6999   H         1 RES1   0.0000
   178 H108      2.5285    5.0336    1.3144   H         1 RES1   0.0000
   179 H109      2.6102    3.3442    0.7923   H         1 RES1   0.0000
   180 H110      4.6885    3.0266    2.1208   H         1 RES1   0.0000
   181 H111      4.6082    4.7036    2.6671   H         1 RES1   0.0000
   182 H112      4.9672    3.7952   -0.2264   H         1 RES1   0.0000
   183 H113      6.2215    4.4475    0.8264   H         1 RES1   0.0000
   184 H114      4.8858    5.4759    0.3167   H         1 RES1   0.0000
   185 C58       5.8559   -0.3886    4.7288   C.3       1 RES1   0.0000
   186 C59       5.1696   -0.3073    3.3723   C.3       1 RES1   0.0000
   187 C60       3.8876    0.5266    3.3968   C.3       1 RES1   0.0000
   188 C61       2.7447    0.0067    4.2798   C.3       1 RES1   0.0000
   189 N7        2.2954   -1.3254    3.8807   N.am      1 RES1   0.0000
   190 C62       2.7804   -2.4611    4.6654   C.3       1 RES1   0.0000
   191 C63       2.6313   -2.3466    6.1900   C.3       1 RES1   0.0000
   192 C64       1.2050   -2.3816    6.7303   C.3       1 RES1   0.0000
   193 C65       0.5640   -3.7551    6.5857   C.3       1 RES1   0.0000
   194 C66       1.5603   -1.3659    2.7671   C.2       1 RES1   0.0000
   195 O7        1.1507   -0.3194    2.2244   O.2       1 RES1   0.0000
   196 C67       1.2551   -2.6744    2.0465   C.3       1 RES1   0.0000
   197 C68       2.0982   -2.6170    0.7614   C.2       1 RES1   0.0000
   198 O8        1.9211   -1.6166    0.0432   O.2       1 RES1   0.0000
   199 N8        2.9491   -3.5963    0.4712   N.am      1 RES1   0.0000
   200 C69       3.3204   -4.6777    1.3782   C.3       1 RES1   0.0000
   201 C70       4.5699   -4.2680    2.1577   C.3       1 RES1   0.0000
   202 C71       4.9486   -5.2774    3.2355   C.3       1 RES1   0.0000
   203 C72       6.1258   -4.7735    4.0590   C.3       1 RES1   0.0000
   204 C73       3.6755   -3.6590   -0.8035   C.3       1 RES1   0.0000
   205 C74       4.2434   -2.3541   -1.3549   C.3       1 RES1   0.0000
   206 C75       4.9993   -2.6442   -2.6522   C.3       1 RES1   0.0000
   207 C76       5.5997   -1.3827   -3.2555   C.3       1 RES1   0.0000
   208 H115      6.7918   -0.9335    4.6442   H         1 RES1   0.0000
   209 H116      5.2348   -0.8926    5.4643   H         1 RES1   0.0000
   210 H117      6.0803    0.6106    5.0941   H         1 RES1   0.0000
   211 H118      4.9660   -1.3054    2.9806   H         1 RES1   0.0000
   212 H119      5.8527    0.1708    2.6674   H         1 RES1   0.0000
   213 H120      3.5080    0.6171    2.3746   H         1 RES1   0.0000
   214 H121      4.1512    1.5189    3.7704   H         1 RES1   0.0000
   215 H122      1.8856    0.6794    4.1842   H         1 RES1   0.0000
   216 H123      3.0452   -0.0035    5.3216   H         1 RES1   0.0000
   217 H124      3.8474   -2.5947    4.4669   H         1 RES1   0.0000
   218 H125      2.2681   -3.3661    4.3454   H         1 RES1   0.0000
   219 H126      3.1335   -1.4562    6.5681   H         1 RES1   0.0000
   220 H127      3.1700   -3.2021    6.5999   H         1 RES1   0.0000
   221 H128      0.6002   -1.6188    6.2342   H         1 RES1   0.0000
   222 H129      1.2495   -2.1316    7.7906   H         1 RES1   0.0000
   223 H130      0.4706   -4.0421    5.5409   H         1 RES1   0.0000
   224 H131     -0.4235   -3.7545    7.0398   H         1 RES1   0.0000
   225 H132      1.1621   -4.5060    7.0949   H         1 RES1   0.0000
   226 H133      0.2112   -2.6082    1.7029   H         1 RES1   0.0000
   227 H134      1.4031   -3.5584    2.6509   H         1 RES1   0.0000
   228 H135      3.5137   -5.5744    0.7853   H         1 RES1   0.0000
   229 H136      2.5074   -4.9297    2.0585   H         1 RES1   0.0000
   230 H137      4.3752   -3.2908    2.6033   H         1 RES1   0.0000
   231 H138      5.4087   -4.1485    1.4711   H         1 RES1   0.0000
   232 H139      5.2167   -6.2232    2.7634   H         1 RES1   0.0000
   233 H140      4.0924   -5.4615    3.8877   H         1 RES1   0.0000
   234 H141      6.9854   -4.5916    3.4195   H         1 RES1   0.0000
   235 H142      6.4060   -5.5091    4.8053   H         1 RES1   0.0000
   236 H143      5.8790   -3.8471    4.5745   H         1 RES1   0.0000
   237 H144      2.9960   -4.1094   -1.5347   H         1 RES1   0.0000
   238 H145      4.5072   -4.3540   -0.6742   H         1 RES1   0.0000
   239 H146      4.9221   -1.9059   -0.6269   H         1 RES1   0.0000
   240 H147      3.4435   -1.6377   -1.5420   H         1 RES1   0.0000
   241 H148      4.3174   -3.1013   -3.3722   H         1 RES1   0.0000
   242 H149      5.7993   -3.3584   -2.4508   H         1 RES1   0.0000
   243 H150      4.8290   -0.6403   -3.4557   H         1 RES1   0.0000
   244 H151      6.1018   -1.6183   -4.1891   H         1 RES1   0.0000
   245 H152      6.3284   -0.9480   -2.5770   H         1 RES1   0.0000
@<TRIPOS>BOND
     1     1    12    1
     2     1    15    1
     3     1    73    1
     4     1    76    1
     5     1   134    1
     6     1   137    1
     7     1   195    1
     8     1   198    1
     9     2     3    1
    10     2    25    1
    11     2    26    1
    12     2    27    1
    13     3     4    1
    14     3    28    1
    15     3    29    1
    16     4     5    1
    17     4    30    1
    18     4    31    1
    19     5     6    1
    20     5    32    1
    21     5    33    1
    22     6     7    1
    23     6    11    1
    24     7     8    1
    25     7    34    1
    26     7    35    1
    27     8     9    1
    28     8    36    1
    29     8    37    1
    30     9    10    1
    31     9    38    1
    32     9    39    1
    33    10    40    1
    34    10    41    1
    35    10    42    1
    36    11    12    2
    37    11    13    1
    38    13    14    1
    39    13    43    1
    40    13    44    1
    41    14    15    2
    42    14    16    1
    43    16    17    1
    44    16    21    1
    45    17    18    1
    46    17    45    1
    47    17    46    1
    48    18    19    1
    49    18    47    1
    50    18    48    1
    51    19    20    1
    52    19    49    1
    53    19    50    1
    54    20    51    1
    55    20    52    1
    56    20    53    1
    57    21    22    1
    58    21    54    1
    59    21    55    1
    60    22    23    1
    61    22    56    1
    62    22    57    1
    63    23    24    1
    64    23    58    1
    65    23    59    1
    66    24    60    1
    67    24    61    1
    68    24    62    1
    69    63    64    1
    70    63    86    1
    71    63    87    1
    72    63    88    1
    73    64    65    1
    74    64    89    1
    75    64    90    1
    76    65    66    1
    77    65    91    1
    78    65    92    1
    79    66    67    1
    80    66    93    1
    81    66    94    1
    82    67    68    1
    83    67    72    1
    84    68    69    1
    85    68    95    1
    86    68    96    1
    87    69    70    1
    88    69    97    1
    89    69    98    1
    90    70    71    1
    91    70    99    1
    92    70   100    1
    93    71   101    1
    94    71   102    1
    95    71   103    1
    96    72    73    2
    97    72    74    1
    98    74    75    1
    99    74   104    1
   100    74   105    1
   101    75    76    2
   102    75    77    1
   103    77    78    1
   104    77    82    1
   105    78    79    1
   106    78   106    1
   107    78   107    1
   108    79    80    1
   109    79   108    1
   110    79   109    1
   111    80    81    1
   112    80   110    1
   113    80   111    1
   114    81   112    1
   115    81   113    1
   116    81   114    1
   117    82    83    1
   118    82   115    1
   119    82   116    1
   120    83    84    1
   121    83   117    1
   122    83   118    1
   123    84    85    1
   124    84   119    1
   125    84   120    1
   126    85   121    1
   127    85   122    1
   128    85   123    1
   129   124   125    1
   130   124   147    1
   131   124   148    1
   132   124   149    1
   133   125   126    1
   134   125   150    1
   135   125   151    1
   136   126   127    1
   137   126   152    1
   138   126   153    1
   139   127   128    1
   140   127   154    1
   141   127   155    1
   142   128   129    1
   143   128   133    1
   144   129   130    1
   145   129   156    1
   146   129   157    1
   147   130   131    1
   148   130   158    1
   149   130   159    1
   150   131   132    1
   151   131   160    1
   152   131   161    1
   153   132   162    1
   154   132   163    1
   155   132   164    1
   156   133   134    2
   157   133   135    1
   158   135   136    1
   159   135   165    1
   160   135   166    1
   161   136   137    2
   162   136   138    1
   163   138   139    1
   164   138   143    1
   165   139   140    1
   166   139   167    1
   167   139   168    1
   168   140   141    1
   169   140   169    1
   170   140   170    1
   171   141   142    1
   172   141   171    1
   173   141   172    1
   174   142   173    1
   175   142   174    1
   176   142   175    1
   177   143   144    1
   178   143   176    1
   179   143   177    1
   180   144   145    1
   181   144   178    1
   182   144   179    1
   183   145   146    1
   184   145   180    1
   185   145   181    1
   186   146   182    1
   187   146   183    1
   188   146   184    1
   189   185   186    1
   190   185   208    1
   191   185   209    1
   192   185   210    1
   193   186   187    1
   194   186   211    1
   195   186   212    1
   196   187   188    1
   197   187   213    1
   198   187   214    1
   199   188   189    1
   200   188   215    1
   201   188   216    1
   202   189   190    1
   203   189   194    1
   204   190   191    1
   205   190   217    1
   206   190   218    1
   207   191   192    1
   208   191   219    1
   209   191   220    1
   210   192   193    1
   211   192   221    1
   212   192   222    1
   213   193   223    1
   214   193   224    1
   215   193   225    1
   216   194   195    2
   217   194   196    1
   218   196   197    1
   219   196   226    1
   220   196   227    1
   221   197   198    2
   222   197   199    1
   223   199   200    1
   224   199   204    1
   225   200   201    1
   226   200   228    1
   227   200   229    1
   228   201   202    1
   229   201   230    1
   230   201   231    1
   231   202   203    1
   232   202   232    1
   233   202   233    1
   234   203   234    1
   235   203   235    1
   236   203   236    1
   237   204   205    1
   238   204   237    1
   239   204   238    1
   240   205   206    1
   241   205   239    1
   242   205   240    1
   243   206   207    1
   244   206   241    1
   245   206   242    1
   246   207   243    1
   247   207   244    1
   248   207   245    1
@<TRIPOS>SUBSTRUCTURE
     1 RES1      245 GROUP             0 ****  ****    0  
