@<TRIPOS>MOLECULE
ICIGOT_geomtry_0_nunpairedes_0_charge_3 Charge: 3 Unpaired_Electrons: 6 XTB_Unpaired_Electrons: 0 XTB_Charge: 3
   281   284     1     0     0
SMALL
NoCharges
****
Generated from Architector

@<TRIPOS>ATOM
     1 Tb1      -0.1025    0.0053   -0.1742   Tb        1 RES1   0.0000
     2 C1       -6.6240    4.0470   -1.1176   C.3       1 RES1   0.0000
     3 C2       -5.6101    4.4617   -2.1766   C.3       1 RES1   0.0000
     4 C3       -4.8204    3.2660   -2.7144   C.3       1 RES1   0.0000
     5 C4       -4.2144    3.5401   -4.0899   C.3       1 RES1   0.0000
     6 C5       -3.5296    2.3201   -4.7102   C.3       1 RES1   0.0000
     7 C6       -4.5297    1.2567   -5.1728   C.3       1 RES1   0.0000
     8 C7       -3.8711   -0.0252   -5.6797   C.3       1 RES1   0.0000
     9 C8       -3.4336   -0.9832   -4.5636   C.3       1 RES1   0.0000
    10 N1       -2.2837   -0.5184   -3.8015   N.am      1 RES1   0.0000
    11 C9       -1.0017   -0.4614   -4.5027   C.3       1 RES1   0.0000
    12 C10      -0.0395   -1.5389   -3.9941   C.3       1 RES1   0.0000
    13 C11      -0.2945   -2.9003   -4.6419   C.3       1 RES1   0.0000
    14 C12       0.6869   -3.9781   -4.1767   C.3       1 RES1   0.0000
    15 C13       0.6469   -5.2369   -5.0672   C.3       1 RES1   0.0000
    16 C14       2.0343   -5.8817   -5.1015   C.3       1 RES1   0.0000
    17 C15      -0.3773   -6.3044   -4.6476   C.3       1 RES1   0.0000
    18 C16      -1.8637   -5.9312   -4.7865   C.3       1 RES1   0.0000
    19 C17      -2.4962   -5.4855   -3.4649   C.3       1 RES1   0.0000
    20 C18      -3.8964   -4.8786   -3.6264   C.3       1 RES1   0.0000
    21 C19      -4.3123   -4.1823   -2.3290   C.3       1 RES1   0.0000
    22 C20      -4.9349   -5.9323   -3.9984   C.3       1 RES1   0.0000
    23 C21      -2.2780   -0.1014   -2.5479   C.2       1 RES1   0.0000
    24 O1       -1.2127    0.3066   -2.0193   O.2       1 RES1   0.0000
    25 C22      -3.5404   -0.1012   -1.6758   C.3       1 RES1   0.0000
    26 O2       -3.0786    0.2796   -0.3872   O.3       1 RES1   0.0000
    27 C23      -3.8722   -0.0532    0.7463   C.3       1 RES1   0.0000
    28 C24      -2.8317   -0.2071    1.8631   C.2       1 RES1   0.0000
    29 O3       -1.6451   -0.3833    1.4700   O.2       1 RES1   0.0000
    30 N2       -3.1318   -0.1628    3.1456   N.am      1 RES1   0.0000
    31 C25      -4.4952   -0.0353    3.6655   C.3       1 RES1   0.0000
    32 C26      -4.7093   -0.2037    5.1855   C.3       1 RES1   0.0000
    33 C27      -4.5926   -1.6007    5.8386   C.3       1 RES1   0.0000
    34 C28      -3.3196   -1.8244    6.6706   C.3       1 RES1   0.0000
    35 C29      -3.3988   -2.9545    7.7015   C.3       1 RES1   0.0000
    36 C30      -3.5076   -4.3431    7.0646   C.3       1 RES1   0.0000
    37 C31      -2.7711   -5.4275    7.8497   C.3       1 RES1   0.0000
    38 C32      -2.9614   -6.7965    7.2046   C.3       1 RES1   0.0000
    39 C33      -2.0160   -0.1186    4.0761   C.3       1 RES1   0.0000
    40 C34      -1.7234    1.2979    4.5691   C.3       1 RES1   0.0000
    41 C35      -1.1394    2.1986    3.4871   C.3       1 RES1   0.0000
    42 C36       0.2123    1.6700    2.9865   C.3       1 RES1   0.0000
    43 C37       1.2100    2.7723    2.6169   C.3       1 RES1   0.0000
    44 C38       0.5522    3.7081    1.6173   C.3       1 RES1   0.0000
    45 C39       1.7282    3.4623    3.8873   C.3       1 RES1   0.0000
    46 C40       2.8596    4.5091    3.8254   C.3       1 RES1   0.0000
    47 C41       4.1344    4.3657    2.9569   C.3       1 RES1   0.0000
    48 C42       4.5699    3.0175    2.3664   C.3       1 RES1   0.0000
    49 C43       4.6128    1.8663    3.3669   C.3       1 RES1   0.0000
    50 C44       5.9755    3.1822    1.7764   C.3       1 RES1   0.0000
    51 H1       -7.3595    3.3678   -1.5439   H         1 RES1   0.0000
    52 H2       -6.1322    3.5493   -0.2842   H         1 RES1   0.0000
    53 H3       -7.1504    4.9180   -0.7372   H         1 RES1   0.0000
    54 H4       -6.1469    4.9345   -2.9987   H         1 RES1   0.0000
    55 H5       -4.9246    5.2032   -1.7638   H         1 RES1   0.0000
    56 H6       -4.0236    3.0030   -2.0093   H         1 RES1   0.0000
    57 H7       -5.5083    2.4209   -2.7887   H         1 RES1   0.0000
    58 H8       -4.9998    3.8772   -4.7676   H         1 RES1   0.0000
    59 H9       -3.4830    4.3446   -3.9948   H         1 RES1   0.0000
    60 H10      -2.9614    2.6471   -5.5834   H         1 RES1   0.0000
    61 H11      -2.8168    1.9122   -3.9896   H         1 RES1   0.0000
    62 H12      -5.2241    0.9988   -4.3720   H         1 RES1   0.0000
    63 H13      -5.1202    1.6862   -5.9836   H         1 RES1   0.0000
    64 H14      -4.5868   -0.5738   -6.2936   H         1 RES1   0.0000
    65 H15      -3.0281    0.2361   -6.3192   H         1 RES1   0.0000
    66 H16      -4.2731   -1.1480   -3.8891   H         1 RES1   0.0000
    67 H17      -3.1672   -1.9421   -5.0203   H         1 RES1   0.0000
    68 H18      -1.1852   -0.6109   -5.5624   H         1 RES1   0.0000
    69 H19      -0.5670    0.5301   -4.3518   H         1 RES1   0.0000
    70 H20       0.9833   -1.2318   -4.2264   H         1 RES1   0.0000
    71 H21      -0.1499   -1.6075   -2.9035   H         1 RES1   0.0000
    72 H22      -1.3147   -3.2195   -4.4413   H         1 RES1   0.0000
    73 H23      -0.1848   -2.8020   -5.7243   H         1 RES1   0.0000
    74 H24       1.6977   -3.5637   -4.2411   H         1 RES1   0.0000
    75 H25       0.5080   -4.2582   -3.1334   H         1 RES1   0.0000
    76 H26       0.4015   -4.9152   -6.0865   H         1 RES1   0.0000
    77 H27       2.3459   -6.2012   -4.1092   H         1 RES1   0.0000
    78 H28       2.0278   -6.7560   -5.7441   H         1 RES1   0.0000
    79 H29       2.7721   -5.1824   -5.4850   H         1 RES1   0.0000
    80 H30      -0.1915   -7.1672   -5.2888   H         1 RES1   0.0000
    81 H31      -0.1751   -6.6268   -3.6226   H         1 RES1   0.0000
    82 H32      -1.9813   -5.1558   -5.5479   H         1 RES1   0.0000
    83 H33      -2.4098   -6.8073   -5.1368   H         1 RES1   0.0000
    84 H34      -2.5613   -6.3505   -2.7997   H         1 RES1   0.0000
    85 H35      -1.8425   -4.7486   -2.9800   H         1 RES1   0.0000
    86 H36      -3.8639   -4.1331   -4.4310   H         1 RES1   0.0000
    87 H37      -4.3278   -4.9035   -1.5140   H         1 RES1   0.0000
    88 H38      -3.6135   -3.3797   -2.0763   H         1 RES1   0.0000
    89 H39      -5.3068   -3.7545   -2.4298   H         1 RES1   0.0000
    90 H40      -4.9924   -6.7015   -3.2316   H         1 RES1   0.0000
    91 H41      -5.9149   -5.4718   -4.0992   H         1 RES1   0.0000
    92 H42      -4.6881   -6.4065   -4.9436   H         1 RES1   0.0000
    93 H43      -4.2588    0.6315   -2.0685   H         1 RES1   0.0000
    94 H44      -4.0073   -1.0949   -1.6460   H         1 RES1   0.0000
    95 H45      -4.6126    0.7290    0.9657   H         1 RES1   0.0000
    96 H46      -4.4090   -1.0002    0.5935   H         1 RES1   0.0000
    97 H47      -4.8572    0.9701    3.4159   H         1 RES1   0.0000
    98 H48      -5.1274   -0.7534    3.1368   H         1 RES1   0.0000
    99 H49      -4.0812    0.4959    5.7353   H         1 RES1   0.0000
   100 H50      -5.7364    0.1376    5.3321   H         1 RES1   0.0000
   101 H51      -5.4334   -1.7018    6.5279   H         1 RES1   0.0000
   102 H52      -4.6944   -2.3847    5.0872   H         1 RES1   0.0000
   103 H53      -2.4675   -2.0717    6.0293   H         1 RES1   0.0000
   104 H54      -3.0948   -0.9017    7.2095   H         1 RES1   0.0000
   105 H55      -2.4799   -2.9161    8.2960   H         1 RES1   0.0000
   106 H56      -4.2329   -2.7809    8.3818   H         1 RES1   0.0000
   107 H57      -4.5518   -4.6361    6.9667   H         1 RES1   0.0000
   108 H58      -3.0848   -4.3136    6.0570   H         1 RES1   0.0000
   109 H59      -1.7050   -5.1901    7.8839   H         1 RES1   0.0000
   110 H60      -3.1294   -5.4590    8.8780   H         1 RES1   0.0000
   111 H61      -2.6217   -6.7782    6.1695   H         1 RES1   0.0000
   112 H62      -2.3957   -7.5595    7.7350   H         1 RES1   0.0000
   113 H63      -4.0129   -7.0772    7.2119   H         1 RES1   0.0000
   114 H64      -2.2452   -0.7547    4.9195   H         1 RES1   0.0000
   115 H65      -1.1461   -0.5086    3.5511   H         1 RES1   0.0000
   116 H66      -1.0036    1.2199    5.3855   H         1 RES1   0.0000
   117 H67      -2.6203    1.7577    4.9795   H         1 RES1   0.0000
   118 H68      -1.0119    3.1944    3.9156   H         1 RES1   0.0000
   119 H69      -1.8353    2.2875    2.6466   H         1 RES1   0.0000
   120 H70       0.6623    1.0349    3.7543   H         1 RES1   0.0000
   121 H71       0.0598    1.0565    2.0671   H         1 RES1   0.0000
   122 H72       2.0463    2.2767    2.1164   H         1 RES1   0.0000
   123 H73      -0.1122    4.4121    2.1057   H         1 RES1   0.0000
   124 H74       1.3190    4.2594    1.0936   H         1 RES1   0.0000
   125 H75      -0.0392    3.1288    0.8945   H         1 RES1   0.0000
   126 H76       0.8864    3.9856    4.3461   H         1 RES1   0.0000
   127 H77       2.0227    2.6770    4.5889   H         1 RES1   0.0000
   128 H78       2.4236    5.4726    3.5580   H         1 RES1   0.0000
   129 H79       3.1896    4.6217    4.8600   H         1 RES1   0.0000
   130 H80       4.0567    5.0501    2.1044   H         1 RES1   0.0000
   131 H81       4.9671    4.7313    3.5627   H         1 RES1   0.0000
   132 H82       3.8764    2.7735    1.5502   H         1 RES1   0.0000
   133 H83       5.1410    2.1824    4.2607   H         1 RES1   0.0000
   134 H84       3.6233    1.5115    3.6467   H         1 RES1   0.0000
   135 H85       5.1742    1.0313    2.9429   H         1 RES1   0.0000
   136 H86       6.7037    3.3001    2.5760   H         1 RES1   0.0000
   137 H87       6.2610    2.3077    1.1903   H         1 RES1   0.0000
   138 H88       6.0369    4.0624    1.1420   H         1 RES1   0.0000
   139 C45       5.4569    3.3272    7.3771   C.3       1 RES1   0.0000
   140 C46       4.6261    2.1494    7.8697   C.3       1 RES1   0.0000
   141 C47       4.2048    1.2573    6.7097   C.3       1 RES1   0.0000
   142 C48       3.5296   -0.0364    7.1428   C.3       1 RES1   0.0000
   143 C49       3.2134   -0.9489    5.9553   C.3       1 RES1   0.0000
   144 C50       4.4708   -1.4625    5.2452   C.3       1 RES1   0.0000
   145 C51       4.2830   -2.7731    4.4733   C.3       1 RES1   0.0000
   146 C52       3.7660   -2.6961    3.0299   C.3       1 RES1   0.0000
   147 N3        2.4288   -2.1617    2.7806   N.am      1 RES1   0.0000
   148 C53       1.3404   -2.5108    3.6969   C.3       1 RES1   0.0000
   149 C54       0.0769   -3.1481    3.1125   C.3       1 RES1   0.0000
   150 C55       0.2349   -4.6126    2.6982   C.3       1 RES1   0.0000
   151 C56       0.4864   -4.7915    1.2013   C.3       1 RES1   0.0000
   152 C57       0.3220   -6.2619    0.7836   C.3       1 RES1   0.0000
   153 C58       0.1552   -6.3941   -0.7294   C.3       1 RES1   0.0000
   154 C59       1.4324   -7.1924    1.3130   C.3       1 RES1   0.0000
   155 C60       2.8640   -6.6544    1.3687   C.3       1 RES1   0.0000
   156 C61       3.4599   -6.2123    0.0350   C.3       1 RES1   0.0000
   157 C62       4.9031   -5.7086    0.1824   C.3       1 RES1   0.0000
   158 C63       5.2919   -4.8506   -1.0226   C.3       1 RES1   0.0000
   159 C64       5.8919   -6.8596    0.3414   C.3       1 RES1   0.0000
   160 C65       2.1530   -1.3697    1.7635   C.2       1 RES1   0.0000
   161 O4        0.9743   -1.0604    1.4663   O.2       1 RES1   0.0000
   162 C66       3.2444   -0.7333    0.8967   C.3       1 RES1   0.0000
   163 O5        2.5372    0.0967   -0.0187   O.3       1 RES1   0.0000
   164 C67       3.3308    1.0925   -0.6575   C.3       1 RES1   0.0000
   165 C68       2.3622    2.2539   -0.9598   C.2       1 RES1   0.0000
   166 O6        1.1353    1.9860   -0.8700   O.2       1 RES1   0.0000
   167 N4        2.8387    3.4519   -1.2519   N.am      1 RES1   0.0000
   168 C69       4.2572    3.7356   -1.4458   C.3       1 RES1   0.0000
   169 C70       4.6622    4.2171   -2.8480   C.3       1 RES1   0.0000
   170 C71       4.2705    3.2943   -4.0030   C.3       1 RES1   0.0000
   171 C72       2.8103    3.4475   -4.4309   C.3       1 RES1   0.0000
   172 C73       2.4891    2.7799   -5.7656   C.3       1 RES1   0.0000
   173 C74       2.6853    1.2674   -5.7621   C.3       1 RES1   0.0000
   174 C75       2.2308    0.6336   -7.0768   C.3       1 RES1   0.0000
   175 C76       3.0271    1.1251   -8.2805   C.3       1 RES1   0.0000
   176 C77       1.9444    4.6079   -1.4130   C.3       1 RES1   0.0000
   177 C78       2.3618    5.8134   -0.5466   C.3       1 RES1   0.0000
   178 C79       1.1609    6.6765   -0.0928   C.3       1 RES1   0.0000
   179 C80       1.2958    7.1008    1.3771   C.3       1 RES1   0.0000
   180 C81       0.2635    8.1142    1.9008   C.3       1 RES1   0.0000
   181 C82       0.6079    9.5332    1.4487   C.3       1 RES1   0.0000
   182 C83      -1.1874    7.7932    1.5208   C.3       1 RES1   0.0000
   183 C84      -1.7790    6.5081    2.1207   C.3       1 RES1   0.0000
   184 C85      -3.2263    6.7159    2.5718   C.3       1 RES1   0.0000
   185 C86      -3.8801    5.4722    3.1922   C.3       1 RES1   0.0000
   186 C87      -4.3753    4.5203    2.1021   C.3       1 RES1   0.0000
   187 C88      -5.0201    5.8960    4.1194   C.3       1 RES1   0.0000
   188 H89       5.7531    3.9614    8.2065   H         1 RES1   0.0000
   189 H90       6.3571    2.9709    6.8798   H         1 RES1   0.0000
   190 H91       4.8894    3.9320    6.6724   H         1 RES1   0.0000
   191 H92       5.2173    1.5634    8.5718   H         1 RES1   0.0000
   192 H93       3.7441    2.5121    8.3980   H         1 RES1   0.0000
   193 H94       3.5249    1.8160    6.0632   H         1 RES1   0.0000
   194 H95       5.0966    1.0075    6.1360   H         1 RES1   0.0000
   195 H96       4.1789   -0.5712    7.8357   H         1 RES1   0.0000
   196 H97       2.6037    0.1983    7.6719   H         1 RES1   0.0000
   197 H98       2.6473   -1.8021    6.3331   H         1 RES1   0.0000
   198 H99       2.5807   -0.4024    5.2500   H         1 RES1   0.0000
   199 H100      4.8742   -0.6939    4.5862   H         1 RES1   0.0000
   200 H101      5.2254   -1.6539    6.0100   H         1 RES1   0.0000
   201 H102      5.2672   -3.2359    4.3664   H         1 RES1   0.0000
   202 H103      3.6829   -3.4535    5.0770   H         1 RES1   0.0000
   203 H104      4.4725   -2.0936    2.4635   H         1 RES1   0.0000
   204 H105      3.7959   -3.7203    2.6340   H         1 RES1   0.0000
   205 H106      1.7543   -3.1864    4.4390   H         1 RES1   0.0000
   206 H107      1.0457   -1.5834    4.1937   H         1 RES1   0.0000
   207 H108     -0.6773   -3.0858    3.8985   H         1 RES1   0.0000
   208 H109     -0.2854   -2.5602    2.2669   H         1 RES1   0.0000
   209 H110      1.0419   -5.0747    3.2662   H         1 RES1   0.0000
   210 H111     -0.6765   -5.1589    2.9532   H         1 RES1   0.0000
   211 H112     -0.2500   -4.1886    0.6530   H         1 RES1   0.0000
   212 H113      1.4812   -4.4196    0.9393   H         1 RES1   0.0000
   213 H114     -0.6184   -6.6088    1.2339   H         1 RES1   0.0000
   214 H115     -0.6961   -5.8065   -1.0685   H         1 RES1   0.0000
   215 H116     -0.0250   -7.4346   -0.9836   H         1 RES1   0.0000
   216 H117      1.0428   -6.0694   -1.2625   H         1 RES1   0.0000
   217 H118      1.1712   -7.4987    2.3279   H         1 RES1   0.0000
   218 H119      1.4234   -8.0940    0.6982   H         1 RES1   0.0000
   219 H120      2.9259   -5.8301    2.0849   H         1 RES1   0.0000
   220 H121      3.4824   -7.4586    1.7663   H         1 RES1   0.0000
   221 H122      3.4389   -7.0465   -0.6674   H         1 RES1   0.0000
   222 H123      2.8606   -5.4046   -0.3961   H         1 RES1   0.0000
   223 H124      4.9599   -5.0807    1.0833   H         1 RES1   0.0000
   224 H125      5.2095   -5.4311   -1.9385   H         1 RES1   0.0000
   225 H126      4.6433   -3.9752   -1.1105   H         1 RES1   0.0000
   226 H127      6.3205   -4.5099   -0.9282   H         1 RES1   0.0000
   227 H128      5.8566   -7.5168   -0.5241   H         1 RES1   0.0000
   228 H129      6.9039   -6.4736    0.4352   H         1 RES1   0.0000
   229 H130      5.6697   -7.4448    1.2296   H         1 RES1   0.0000
   230 H131      3.9023   -0.1231    1.5346   H         1 RES1   0.0000
   231 H132      3.8384   -1.4739    0.3442   H         1 RES1   0.0000
   232 H133      4.1440    1.4054    0.0088   H         1 RES1   0.0000
   233 H134      3.7495    0.6986   -1.5942   H         1 RES1   0.0000
   234 H135      4.5557    4.5192   -0.7439   H         1 RES1   0.0000
   235 H136      4.8381    2.8467   -1.2191   H         1 RES1   0.0000
   236 H137      4.2765    5.2196   -3.0365   H         1 RES1   0.0000
   237 H138      5.7522    4.2915   -2.8181   H         1 RES1   0.0000
   238 H139      4.9032    3.5464   -4.8553   H         1 RES1   0.0000
   239 H140      4.4819    2.2565   -3.7357   H         1 RES1   0.0000
   240 H141      2.1441    3.0391   -3.6673   H         1 RES1   0.0000
   241 H142      2.5938    4.5119   -4.5486   H         1 RES1   0.0000
   242 H143      1.4453    2.9913   -6.0127   H         1 RES1   0.0000
   243 H144      3.1152    3.2265   -6.5367   H         1 RES1   0.0000
   244 H145      3.7375    1.0319   -5.6048   H         1 RES1   0.0000
   245 H146      2.1173    0.8313   -4.9306   H         1 RES1   0.0000
   246 H147      2.3353   -0.4519   -7.0058   H         1 RES1   0.0000
   247 H148      1.1739    0.8584   -7.2345   H         1 RES1   0.0000
   248 H149      4.0938    0.9861   -8.1214   H         1 RES1   0.0000
   249 H150      2.7412    0.5685   -9.1685   H         1 RES1   0.0000
   250 H151      2.8402    2.1769   -8.4782   H         1 RES1   0.0000
   251 H152      1.9397    4.9026   -2.4626   H         1 RES1   0.0000
   252 H153      0.9372    4.2808   -1.1512   H         1 RES1   0.0000
   253 H154      2.8980    5.4402    0.3323   H         1 RES1   0.0000
   254 H155      3.0669    6.4393   -1.1005   H         1 RES1   0.0000
   255 H156      1.0899    7.5592   -0.7299   H         1 RES1   0.0000
   256 H157      0.2399    6.0998   -0.2195   H         1 RES1   0.0000
   257 H158      1.2326    6.2057    1.9932   H         1 RES1   0.0000
   258 H159      2.2888    7.5284    1.5335   H         1 RES1   0.0000
   259 H160      0.3309    8.0983    2.9954   H         1 RES1   0.0000
   260 H161      0.5386    9.6278    0.3682   H         1 RES1   0.0000
   261 H162     -0.0674   10.2589    1.8948   H         1 RES1   0.0000
   262 H163      1.6168    9.7935    1.7562   H         1 RES1   0.0000
   263 H164     -1.2696    7.7618    0.4349   H         1 RES1   0.0000
   264 H165     -1.7906    8.6373    1.8577   H         1 RES1   0.0000
   265 H166     -1.7433    5.7032    1.3814   H         1 RES1   0.0000
   266 H167     -1.1909    6.2026    2.9900   H         1 RES1   0.0000
   267 H168     -3.2413    7.5151    3.3156   H         1 RES1   0.0000
   268 H169     -3.8331    7.0442    1.7236   H         1 RES1   0.0000
   269 H170     -3.1341    4.9437    3.7984   H         1 RES1   0.0000
   270 H171     -4.8743    3.6542    2.5375   H         1 RES1   0.0000
   271 H172     -5.0827    5.0322    1.4543   H         1 RES1   0.0000
   272 H173     -3.5479    4.1675    1.4855   H         1 RES1   0.0000
   273 H174     -5.7425    6.5073    3.5861   H         1 RES1   0.0000
   274 H175     -5.5429    5.0330    4.5275   H         1 RES1   0.0000
   275 H176     -4.6259    6.4798    4.9488   H         1 RES1   0.0000
   276 O7       -1.4885   -2.2092   -0.6817   O.3       1 RES1   0.0000
   277 H177     -2.0079   -2.4314    0.1091   H         1 RES1   0.0000
   278 H178     -1.6363   -2.9215   -1.3261   H         1 RES1   0.0000
   279 O8        1.3168   -2.0882   -1.1191   O.3       1 RES1   0.0000
   280 H179      1.8071   -2.2609   -1.9369   H         1 RES1   0.0000
   281 H180      1.3153   -2.9338   -0.6365   H         1 RES1   0.0000
@<TRIPOS>BOND
     1     1    24    1
     2     1    26    1
     3     1    29    1
     4     1   161    1
     5     1   163    1
     6     1   166    1
     7     1   276    1
     8     1   279    1
     9     2     3    1
    10     2    51    1
    11     2    52    1
    12     2    53    1
    13     3     4    1
    14     3    54    1
    15     3    55    1
    16     4     5    1
    17     4    56    1
    18     4    57    1
    19     5     6    1
    20     5    58    1
    21     5    59    1
    22     6     7    1
    23     6    60    1
    24     6    61    1
    25     7     8    1
    26     7    62    1
    27     7    63    1
    28     8     9    1
    29     8    64    1
    30     8    65    1
    31     9    10    1
    32     9    66    1
    33     9    67    1
    34    10    11    1
    35    10    23    1
    36    11    12    1
    37    11    68    1
    38    11    69    1
    39    12    13    1
    40    12    70    1
    41    12    71    1
    42    13    14    1
    43    13    72    1
    44    13    73    1
    45    14    15    1
    46    14    74    1
    47    14    75    1
    48    15    16    1
    49    15    17    1
    50    15    76    1
    51    16    77    1
    52    16    78    1
    53    16    79    1
    54    17    18    1
    55    17    80    1
    56    17    81    1
    57    18    19    1
    58    18    82    1
    59    18    83    1
    60    19    20    1
    61    19    84    1
    62    19    85    1
    63    20    21    1
    64    20    22    1
    65    20    86    1
    66    21    87    1
    67    21    88    1
    68    21    89    1
    69    22    90    1
    70    22    91    1
    71    22    92    1
    72    23    24    2
    73    23    25    1
    74    25    26    1
    75    25    93    1
    76    25    94    1
    77    26    27    1
    78    27    28    1
    79    27    95    1
    80    27    96    1
    81    28    29    2
    82    28    30    1
    83    30    31    1
    84    30    39    1
    85    31    32    1
    86    31    97    1
    87    31    98    1
    88    32    33    1
    89    32    99    1
    90    32   100    1
    91    33    34    1
    92    33   101    1
    93    33   102    1
    94    34    35    1
    95    34   103    1
    96    34   104    1
    97    35    36    1
    98    35   105    1
    99    35   106    1
   100    36    37    1
   101    36   107    1
   102    36   108    1
   103    37    38    1
   104    37   109    1
   105    37   110    1
   106    38   111    1
   107    38   112    1
   108    38   113    1
   109    39    40    1
   110    39   114    1
   111    39   115    1
   112    40    41    1
   113    40   116    1
   114    40   117    1
   115    41    42    1
   116    41   118    1
   117    41   119    1
   118    42    43    1
   119    42   120    1
   120    42   121    1
   121    43    44    1
   122    43    45    1
   123    43   122    1
   124    44   123    1
   125    44   124    1
   126    44   125    1
   127    45    46    1
   128    45   126    1
   129    45   127    1
   130    46    47    1
   131    46   128    1
   132    46   129    1
   133    47    48    1
   134    47   130    1
   135    47   131    1
   136    48    49    1
   137    48    50    1
   138    48   132    1
   139    49   133    1
   140    49   134    1
   141    49   135    1
   142    50   136    1
   143    50   137    1
   144    50   138    1
   145   139   140    1
   146   139   188    1
   147   139   189    1
   148   139   190    1
   149   140   141    1
   150   140   191    1
   151   140   192    1
   152   141   142    1
   153   141   193    1
   154   141   194    1
   155   142   143    1
   156   142   195    1
   157   142   196    1
   158   143   144    1
   159   143   197    1
   160   143   198    1
   161   144   145    1
   162   144   199    1
   163   144   200    1
   164   145   146    1
   165   145   201    1
   166   145   202    1
   167   146   147    1
   168   146   203    1
   169   146   204    1
   170   147   148    1
   171   147   160    1
   172   148   149    1
   173   148   205    1
   174   148   206    1
   175   149   150    1
   176   149   207    1
   177   149   208    1
   178   150   151    1
   179   150   209    1
   180   150   210    1
   181   151   152    1
   182   151   211    1
   183   151   212    1
   184   152   153    1
   185   152   154    1
   186   152   213    1
   187   153   214    1
   188   153   215    1
   189   153   216    1
   190   154   155    1
   191   154   217    1
   192   154   218    1
   193   155   156    1
   194   155   219    1
   195   155   220    1
   196   156   157    1
   197   156   221    1
   198   156   222    1
   199   157   158    1
   200   157   159    1
   201   157   223    1
   202   158   224    1
   203   158   225    1
   204   158   226    1
   205   159   227    1
   206   159   228    1
   207   159   229    1
   208   160   161    2
   209   160   162    1
   210   162   163    1
   211   162   230    1
   212   162   231    1
   213   163   164    1
   214   164   165    1
   215   164   232    1
   216   164   233    1
   217   165   166    2
   218   165   167    1
   219   167   168    1
   220   167   176    1
   221   168   169    1
   222   168   234    1
   223   168   235    1
   224   169   170    1
   225   169   236    1
   226   169   237    1
   227   170   171    1
   228   170   238    1
   229   170   239    1
   230   171   172    1
   231   171   240    1
   232   171   241    1
   233   172   173    1
   234   172   242    1
   235   172   243    1
   236   173   174    1
   237   173   244    1
   238   173   245    1
   239   174   175    1
   240   174   246    1
   241   174   247    1
   242   175   248    1
   243   175   249    1
   244   175   250    1
   245   176   177    1
   246   176   251    1
   247   176   252    1
   248   177   178    1
   249   177   253    1
   250   177   254    1
   251   178   179    1
   252   178   255    1
   253   178   256    1
   254   179   180    1
   255   179   257    1
   256   179   258    1
   257   180   181    1
   258   180   182    1
   259   180   259    1
   260   181   260    1
   261   181   261    1
   262   181   262    1
   263   182   183    1
   264   182   263    1
   265   182   264    1
   266   183   184    1
   267   183   265    1
   268   183   266    1
   269   184   185    1
   270   184   267    1
   271   184   268    1
   272   185   186    1
   273   185   187    1
   274   185   269    1
   275   186   270    1
   276   186   271    1
   277   186   272    1
   278   187   273    1
   279   187   274    1
   280   187   275    1
   281   276   277    1
   282   276   278    1
   283   279   280    1
   284   279   281    1
@<TRIPOS>SUBSTRUCTURE
     1 RES1      281 GROUP             0 ****  ****    0  
