@<TRIPOS>MOLECULE
ICIGOT_geomtry_0_nunpairedes_0_charge_3 Charge: 3 Unpaired_Electrons: 6 XTB_Unpaired_Electrons: 0 XTB_Charge: 3
   145   158     1     0     0
SMALL
NoCharges
****
Generated from Architector

@<TRIPOS>ATOM
     1 Tb1      -0.0188    0.0547    0.0590   Tb        1 RES1   0.0000
     2 C1       -4.6162   -4.7959   -0.5779   C.3       1 RES1   0.0000
     3 C2       -3.9956   -3.5802   -1.2665   C.3       1 RES1   0.0000
     4 N1       -2.5688   -3.4378   -0.9749   N.am      1 RES1   0.0000
     5 C3       -2.0887   -2.4040   -0.2791   C.2       1 RES1   0.0000
     6 O1       -0.8689   -2.1090   -0.2430   O.2       1 RES1   0.0000
     7 C4       -2.9765   -1.4839    0.5112   C.ar      1 RES1   0.0000
     8 C5       -4.1614   -1.8173    1.1666   C.ar      1 RES1   0.0000
     9 C6       -4.8263   -0.8219    1.8654   C.ar      1 RES1   0.0000
    10 C7       -4.2798    0.4478    1.9436   C.ar      1 RES1   0.0000
    11 C8       -3.0312    0.6756    1.3554   C.ar      1 RES1   0.0000
    12 C9       -2.3280    1.9814    1.4479   C.ar      1 RES1   0.0000
    13 C10      -3.0301    3.1575    1.7307   C.ar      1 RES1   0.0000
    14 C11      -2.3467    4.3591    1.6706   C.ar      1 RES1   0.0000
    15 C12      -0.9926    4.3675    1.3592   C.ar      1 RES1   0.0000
    16 C13      -0.3263    3.1527    1.1863   C.ar      1 RES1   0.0000
    17 C14       1.1418    2.9326    0.8341   C.2       1 RES1   0.0000
    18 O2        1.3431    1.9018    0.1420   O.2       1 RES1   0.0000
    19 N2        2.1157    3.7470    1.2597   N.am      1 RES1   0.0000
    20 C15       1.8122    4.9069    2.0984   C.3       1 RES1   0.0000
    21 C16       1.6536    6.2274    1.3338   C.3       1 RES1   0.0000
    22 C17       3.5163    3.5392    1.0067   C.ar      1 RES1   0.0000
    23 C18       4.0421    2.3057    0.6244   C.ar      1 RES1   0.0000
    24 C19       5.4024    2.1526    0.3947   C.ar      1 RES1   0.0000
    25 C20       5.9833    0.8406   -0.0290   C.3       1 RES1   0.0000
    26 C21       6.2584    3.2341    0.5466   C.ar      1 RES1   0.0000
    27 C22       5.7714    4.4615    0.9555   C.ar      1 RES1   0.0000
    28 C23       6.6792    5.6343    1.1324   C.3       1 RES1   0.0000
    29 C24       4.4088    4.5945    1.1932   C.ar      1 RES1   0.0000
    30 N3       -1.0089    1.9906    1.2092   N.ar      1 RES1   0.0000
    31 N4       -2.4108   -0.2771    0.6518   N.ar      1 RES1   0.0000
    32 C25      -1.7111   -4.4726   -1.4699   C.ar      1 RES1   0.0000
    33 C26      -2.1197   -5.2879   -2.5171   C.ar      1 RES1   0.0000
    34 C27      -1.3628   -6.3836   -2.9170   C.ar      1 RES1   0.0000
    35 C28      -1.8822   -7.2840   -3.9865   C.3       1 RES1   0.0000
    36 C29      -0.1605   -6.6323   -2.2803   C.ar      1 RES1   0.0000
    37 C30       0.2860   -5.8142   -1.2514   C.ar      1 RES1   0.0000
    38 C31       1.5759   -6.1413   -0.5716   C.3       1 RES1   0.0000
    39 C32      -0.4909   -4.7415   -0.8495   C.ar      1 RES1   0.0000
    40 H1       -5.6818   -4.8356   -0.7928   H         1 RES1   0.0000
    41 H2       -4.4752   -4.7589    0.5001   H         1 RES1   0.0000
    42 H3       -4.1714   -5.7238   -0.9304   H         1 RES1   0.0000
    43 H4       -4.5041   -2.6568   -0.9888   H         1 RES1   0.0000
    44 H5       -4.1232   -3.6772   -2.3472   H         1 RES1   0.0000
    45 H6       -4.5663   -2.8159    1.1666   H         1 RES1   0.0000
    46 H7       -5.7629   -1.0389    2.3530   H         1 RES1   0.0000
    47 H8       -4.8101    1.2153    2.4854   H         1 RES1   0.0000
    48 H9       -4.0892    3.1558    1.9375   H         1 RES1   0.0000
    49 H10      -2.8589    5.2971    1.8411   H         1 RES1   0.0000
    50 H11      -0.5273    5.3280    1.2201   H         1 RES1   0.0000
    51 H12       2.6170    5.0141    2.8274   H         1 RES1   0.0000
    52 H13       0.9133    4.6834    2.6726   H         1 RES1   0.0000
    53 H14       2.5781    6.5758    0.8841   H         1 RES1   0.0000
    54 H15       1.3257    6.9824    2.0443   H         1 RES1   0.0000
    55 H16       0.9440    6.1736    0.5119   H         1 RES1   0.0000
    56 H17       3.4067    1.4445    0.4975   H         1 RES1   0.0000
    57 H18       5.2201    0.0735   -0.1282   H         1 RES1   0.0000
    58 H19       6.7285    0.5094    0.6919   H         1 RES1   0.0000
    59 H20       6.4918    0.9502   -0.9851   H         1 RES1   0.0000
    60 H21       7.3103    3.1171    0.3420   H         1 RES1   0.0000
    61 H22       7.7060    5.3731    0.8967   H         1 RES1   0.0000
    62 H23       6.6446    5.9994    2.1567   H         1 RES1   0.0000
    63 H24       6.3817    6.4548    0.4825   H         1 RES1   0.0000
    64 H25       4.0966    5.5665    1.5199   H         1 RES1   0.0000
    65 H26      -3.0427   -5.1220   -3.0430   H         1 RES1   0.0000
    66 H27      -2.8368   -7.7108   -3.6861   H         1 RES1   0.0000
    67 H28      -1.1937   -8.0981   -4.1783   H         1 RES1   0.0000
    68 H29      -2.0417   -6.7386   -4.9134   H         1 RES1   0.0000
    69 H30       0.4311   -7.4827   -2.5737   H         1 RES1   0.0000
    70 H31       1.5236   -7.1420   -0.1488   H         1 RES1   0.0000
    71 H32       1.7947   -5.4405    0.2277   H         1 RES1   0.0000
    72 H33       2.3942   -6.1340   -1.2883   H         1 RES1   0.0000
    73 H34      -0.1519   -4.1341   -0.0283   H         1 RES1   0.0000
    74 C33      -1.9759    0.9877   -6.3541   C.3       1 RES1   0.0000
    75 C34      -2.3122    0.2174   -5.0766   C.3       1 RES1   0.0000
    76 N5       -2.0665    0.9883   -3.8573   N.am      1 RES1   0.0000
    77 C35      -1.1314    0.6341   -2.9609   C.2       1 RES1   0.0000
    78 O3       -1.1444    1.0518   -1.7748   O.2       1 RES1   0.0000
    79 C36       0.0272   -0.2917   -3.2912   C.ar      1 RES1   0.0000
    80 C37       0.5372   -0.5914   -4.5555   C.ar      1 RES1   0.0000
    81 C38       1.6072   -1.4699   -4.6517   C.ar      1 RES1   0.0000
    82 C39       2.1809   -1.9900   -3.5055   C.ar      1 RES1   0.0000
    83 C40       1.7030   -1.5556   -2.2631   C.ar      1 RES1   0.0000
    84 C41       2.3454   -1.9911   -0.9861   C.ar      1 RES1   0.0000
    85 C42       3.2594   -3.0504   -0.9675   C.ar      1 RES1   0.0000
    86 C43       3.7566   -3.4760    0.2494   C.ar      1 RES1   0.0000
    87 C44       3.3447   -2.8541    1.4218   C.ar      1 RES1   0.0000
    88 C45       2.4901   -1.7531    1.3396   C.ar      1 RES1   0.0000
    89 C46       1.8789   -0.9346    2.4799   C.2       1 RES1   0.0000
    90 O4        0.7585   -0.4409    2.1915   O.2       1 RES1   0.0000
    91 N6        2.4856   -0.7300    3.6578   N.am      1 RES1   0.0000
    92 C47       3.7637   -1.3647    3.9845   C.3       1 RES1   0.0000
    93 C48       3.6209   -2.7091    4.7081   C.3       1 RES1   0.0000
    94 C49       1.9924    0.1639    4.6763   C.ar      1 RES1   0.0000
    95 C50       1.0942    1.1965    4.4040   C.ar      1 RES1   0.0000
    96 C51       0.7040    2.0835    5.3982   C.ar      1 RES1   0.0000
    97 C52      -0.2611    3.1986    5.1350   C.3       1 RES1   0.0000
    98 C53       1.2152    1.9552    6.6816   C.ar      1 RES1   0.0000
    99 C54       2.1106    0.9459    6.9834   C.ar      1 RES1   0.0000
   100 C55       2.6751    0.8067    8.3595   C.3       1 RES1   0.0000
   101 C56       2.4857    0.0621    5.9774   C.ar      1 RES1   0.0000
   102 N7        2.0094   -1.3521    0.1442   N.ar      1 RES1   0.0000
   103 N8        0.6471   -0.7359   -2.1810   N.ar      1 RES1   0.0000
   104 C57      -2.9351    2.1219   -3.6765   C.ar      1 RES1   0.0000
   105 C58      -4.1211    2.2404   -4.4026   C.ar      1 RES1   0.0000
   106 C59      -4.9032    3.3884   -4.3456   C.ar      1 RES1   0.0000
   107 C60      -6.1371    3.5143   -5.1799   C.3       1 RES1   0.0000
   108 C61      -4.5057    4.4261   -3.5188   C.ar      1 RES1   0.0000
   109 C62      -3.3458    4.3300   -2.7679   C.ar      1 RES1   0.0000
   110 C63      -2.9283    5.4714   -1.8948   C.3       1 RES1   0.0000
   111 C64      -2.5677    3.1826   -2.8510   C.ar      1 RES1   0.0000
   112 H35      -2.1271    0.3415   -7.2153   H         1 RES1   0.0000
   113 H36      -0.9487    1.3452   -6.3594   H         1 RES1   0.0000
   114 H37      -2.6173    1.8572   -6.4747   H         1 RES1   0.0000
   115 H38      -1.7721   -0.7259   -5.0169   H         1 RES1   0.0000
   116 H39      -3.3711   -0.0512   -5.0957   H         1 RES1   0.0000
   117 H40       0.1555   -0.1553   -5.4623   H         1 RES1   0.0000
   118 H41       2.0017   -1.7376   -5.6205   H         1 RES1   0.0000
   119 H42       3.0019   -2.6822   -3.6028   H         1 RES1   0.0000
   120 H43       3.5572   -3.5651   -1.8661   H         1 RES1   0.0000
   121 H44       4.4426   -4.3101    0.3015   H         1 RES1   0.0000
   122 H45       3.6818   -3.2804    2.3492   H         1 RES1   0.0000
   123 H46       4.3325   -0.6796    4.6149   H         1 RES1   0.0000
   124 H47       4.3437   -1.4776    3.0694   H         1 RES1   0.0000
   125 H48       3.1978   -2.6113    5.7039   H         1 RES1   0.0000
   126 H49       4.6122   -3.1427    4.8153   H         1 RES1   0.0000
   127 H50       2.9768   -3.4097    4.1823   H         1 RES1   0.0000
   128 H51       0.6811    1.3207    3.4164   H         1 RES1   0.0000
   129 H52      -0.6226    3.1917    4.1104   H         1 RES1   0.0000
   130 H53       0.2131    4.1568    5.3427   H         1 RES1   0.0000
   131 H54      -1.1162    3.1164    5.8037   H         1 RES1   0.0000
   132 H55       0.9055    2.6437    7.4515   H         1 RES1   0.0000
   133 H56       2.2817    1.5723    9.0211   H         1 RES1   0.0000
   134 H57       3.7593    0.8956    8.3408   H         1 RES1   0.0000
   135 H58       2.4352   -0.1655    8.7845   H         1 RES1   0.0000
   136 H59       3.1733   -0.7054    6.2767   H         1 RES1   0.0000
   137 H60      -4.4871    1.4648   -5.0503   H         1 RES1   0.0000
   138 H61      -5.8968    3.4406   -6.2389   H         1 RES1   0.0000
   139 H62      -6.6199    4.4723   -5.0129   H         1 RES1   0.0000
   140 H63      -6.8516    2.7270   -4.9501   H         1 RES1   0.0000
   141 H64      -5.1054    5.3201   -3.4684   H         1 RES1   0.0000
   142 H65      -3.6396    6.2890   -1.9685   H         1 RES1   0.0000
   143 H66      -1.9509    5.8419   -2.1953   H         1 RES1   0.0000
   144 H67      -2.8679    5.1532   -0.8557   H         1 RES1   0.0000
   145 H68      -1.6574    3.1367   -2.2780   H         1 RES1   0.0000
@<TRIPOS>BOND
     1     1     6    1
     2     1    18    1
     3     1    30    1
     4     1    31    1
     5     1    78    1
     6     1    90    1
     7     1   102    1
     8     1   103    1
     9     2     3    1
    10     2    40    1
    11     2    41    1
    12     2    42    1
    13     3     4    1
    14     3    43    1
    15     3    44    1
    16     4     5    1
    17     4    32    1
    18     5     6    2
    19     5     7    1
    20     7     8    1
    21     7    31    2
    22     8     9    2
    23     8    45    1
    24     9    10    1
    25     9    46    1
    26    10    11    2
    27    10    47    1
    28    11    12    1
    29    11    31    1
    30    12    13    1
    31    12    30    2
    32    13    14    2
    33    13    48    1
    34    14    15    1
    35    14    49    1
    36    15    16    2
    37    15    50    1
    38    16    17    1
    39    16    30    1
    40    17    18    2
    41    17    19    1
    42    19    20    1
    43    19    22    1
    44    20    21    1
    45    20    51    1
    46    20    52    1
    47    21    53    1
    48    21    54    1
    49    21    55    1
    50    22    23    1
    51    22    29    2
    52    23    24    2
    53    23    56    1
    54    24    25    1
    55    24    26    1
    56    25    57    1
    57    25    58    1
    58    25    59    1
    59    26    27    2
    60    26    60    1
    61    27    28    1
    62    27    29    1
    63    28    61    1
    64    28    62    1
    65    28    63    1
    66    29    64    1
    67    32    33    1
    68    32    39    2
    69    33    34    2
    70    33    65    1
    71    34    35    1
    72    34    36    1
    73    35    66    1
    74    35    67    1
    75    35    68    1
    76    36    37    2
    77    36    69    1
    78    37    38    1
    79    37    39    1
    80    38    70    1
    81    38    71    1
    82    38    72    1
    83    39    73    1
    84    74    75    1
    85    74   112    1
    86    74   113    1
    87    74   114    1
    88    75    76    1
    89    75   115    1
    90    75   116    1
    91    76    77    1
    92    76   104    1
    93    77    78    2
    94    77    79    1
    95    79    80    1
    96    79   103    2
    97    80    81    2
    98    80   117    1
    99    81    82    1
   100    81   118    1
   101    82    83    2
   102    82   119    1
   103    83    84    1
   104    83   103    1
   105    84    85    1
   106    84   102    2
   107    85    86    2
   108    85   120    1
   109    86    87    1
   110    86   121    1
   111    87    88    2
   112    87   122    1
   113    88    89    1
   114    88   102    1
   115    89    90    2
   116    89    91    1
   117    91    92    1
   118    91    94    1
   119    92    93    1
   120    92   123    1
   121    92   124    1
   122    93   125    1
   123    93   126    1
   124    93   127    1
   125    94    95    1
   126    94   101    2
   127    95    96    2
   128    95   128    1
   129    96    97    1
   130    96    98    1
   131    97   129    1
   132    97   130    1
   133    97   131    1
   134    98    99    2
   135    98   132    1
   136    99   100    1
   137    99   101    1
   138   100   133    1
   139   100   134    1
   140   100   135    1
   141   101   136    1
   142   104   105    1
   143   104   111    2
   144   105   106    2
   145   105   137    1
   146   106   107    1
   147   106   108    1
   148   107   138    1
   149   107   139    1
   150   107   140    1
   151   108   109    2
   152   108   141    1
   153   109   110    1
   154   109   111    1
   155   110   142    1
   156   110   143    1
   157   110   144    1
   158   111   145    1
@<TRIPOS>SUBSTRUCTURE
     1 RES1      145 GROUP             0 ****  ****    0  
