@<TRIPOS>MOLECULE
dodecahedral_0_nunpairedes_0_charge_3 Charge: 3 Unpaired_Electrons: 6 XTB_Unpaired_Electrons: 0 XTB_Charge: 3
   337   342     1     0     0
SMALL
NoCharges
****
Generated from Architector

@<TRIPOS>ATOM
     1 Tb1       0.6665   -0.1203   -0.7500   Tb        1 RES1   0.0000
     2 C1       -8.6569   -0.8721   -1.5240   C.3       1 RES1   0.0000
     3 C2       -8.2059   -0.1938   -0.2317   C.3       1 RES1   0.0000
     4 C3       -8.4919   -0.9734    1.0590   C.3       1 RES1   0.0000
     5 C4       -7.6985   -2.2748    1.1809   C.3       1 RES1   0.0000
     6 C5       -7.8629   -2.9762    2.5351   C.3       1 RES1   0.0000
     7 C6       -6.8996   -2.5072    3.6293   C.3       1 RES1   0.0000
     8 C7       -5.4884   -3.0957    3.5110   C.3       1 RES1   0.0000
     9 C8       -4.6242   -2.7135    4.7154   C.3       1 RES1   0.0000
    10 C9       -3.0991   -2.8080    4.5422   C.3       1 RES1   0.0000
    11 C10      -2.4805   -1.6415    3.7493   C.3       1 RES1   0.0000
    12 C11      -1.3601   -0.9216    4.5020   C.3       1 RES1   0.0000
    13 C12      -0.9977    0.4466    3.8763   C.3       1 RES1   0.0000
    14 N1        0.4389    0.5533    3.6895   N.am      1 RES1   0.0000
    15 C13       1.2491    0.9454    4.8266   C.3       1 RES1   0.0000
    16 C14       1.7944    2.3736    4.6703   C.3       1 RES1   0.0000
    17 C15       0.7998    3.5057    5.0093   C.3       1 RES1   0.0000
    18 C16       0.6382    4.5447    3.8817   C.3       1 RES1   0.0000
    19 C17      -0.7831    4.6047    3.3080   C.3       1 RES1   0.0000
    20 C18      -1.7363    5.4676    4.1408   C.3       1 RES1   0.0000
    21 C19      -3.1497    5.4082    3.5626   C.3       1 RES1   0.0000
    22 C20      -4.1383    6.4289    4.1313   C.3       1 RES1   0.0000
    23 C21      -4.4940    6.2733    5.6102   C.3       1 RES1   0.0000
    24 C22      -5.3742    5.0629    5.9108   C.3       1 RES1   0.0000
    25 C23      -5.7484    4.9816    7.3901   C.3       1 RES1   0.0000
    26 C24      -6.5812    3.7447    7.7125   C.3       1 RES1   0.0000
    27 C25       0.9400    0.2325    2.5107   C.2       1 RES1   0.0000
    28 O1        0.2336    0.1633    1.4784   O.2       1 RES1   0.0000
    29 C26       2.3941   -0.1993    2.3530   C.3       1 RES1   0.0000
    30 O2        2.4155   -1.1125    1.2582   O.3       1 RES1   0.0000
    31 C27       2.4781   -2.4917    1.6178   C.3       1 RES1   0.0000
    32 C28       1.3010   -3.3435    1.0981   C.3       1 RES1   0.0000
    33 O3        0.7145   -2.7975   -0.0809   O.3       1 RES1   0.0000
    34 C29      -0.1738   -3.7502   -0.7009   C.3       1 RES1   0.0000
    35 C30      -0.2150   -3.2863   -2.1638   C.2       1 RES1   0.0000
    36 O4       -0.2940   -2.0401   -2.2605   O.2       1 RES1   0.0000
    37 N2       -0.0712   -4.1419   -3.1738   N.am      1 RES1   0.0000
    38 C31       0.6083   -3.8402   -4.4663   C.3       1 RES1   0.0000
    39 C32      -0.1929   -3.3684   -5.6955   C.3       1 RES1   0.0000
    40 C33       0.6039   -2.7730   -6.9332   C.3       1 RES1   0.0000
    41 C34       2.1373   -2.4573   -6.9315   C.3       1 RES1   0.0000
    42 C35       2.6258   -0.9517   -6.9950   C.3       1 RES1   0.0000
    43 C36       3.9396   -0.4457   -6.2697   C.3       1 RES1   0.0000
    44 C37       3.8190    0.7471   -5.2253   C.3       1 RES1   0.0000
    45 C38       4.2674    0.9792   -3.6742   C.3       1 RES1   0.0000
    46 C39       3.9604    0.2366   -2.2943   C.3       1 RES1   0.0000
    47 C40       4.8806    0.1540   -1.0460   C.3       1 RES1   0.0000
    48 C41       5.0381   -1.2518   -0.4505   C.3       1 RES1   0.0000
    49 C42       5.7204   -1.2081    0.9172   C.3       1 RES1   0.0000
    50 C43      -0.3042   -5.5700   -2.9487   C.3       1 RES1   0.0000
    51 C44       0.9540   -6.3528   -2.5547   C.3       1 RES1   0.0000
    52 C45       0.6824   -7.8568   -2.4855   C.3       1 RES1   0.0000
    53 C46      -0.3405   -8.3297   -1.4485   C.3       1 RES1   0.0000
    54 C47       0.2156   -8.6188   -0.0523   C.3       1 RES1   0.0000
    55 C48       0.4242   -7.4139    0.8685   C.3       1 RES1   0.0000
    56 C49       0.4423   -7.8862    2.3244   C.3       1 RES1   0.0000
    57 C50       0.5798   -6.7920    3.3865   C.3       1 RES1   0.0000
    58 C51       2.0117   -6.3048    3.6049   C.3       1 RES1   0.0000
    59 C52       2.0955   -5.3379    4.7882   C.3       1 RES1   0.0000
    60 C53       3.5303   -5.0372    5.2311   C.3       1 RES1   0.0000
    61 C54       4.2785   -4.0846    4.3040   C.3       1 RES1   0.0000
    62 H1       -8.3403   -0.2735   -2.3794   H         1 RES1   0.0000
    63 H2       -9.7399   -0.9596   -1.5529   H         1 RES1   0.0000
    64 H3       -8.2268   -1.8679   -1.6252   H         1 RES1   0.0000
    65 H4       -8.7002    0.7788   -0.1667   H         1 RES1   0.0000
    66 H5       -7.1294   -0.0025   -0.3032   H         1 RES1   0.0000
    67 H6       -9.5580   -1.1982    1.1096   H         1 RES1   0.0000
    68 H7       -8.2489   -0.3218    1.9014   H         1 RES1   0.0000
    69 H8       -6.6420   -2.0584    1.0224   H         1 RES1   0.0000
    70 H9       -8.0316   -2.9530    0.3947   H         1 RES1   0.0000
    71 H10      -7.7308   -4.0503    2.3950   H         1 RES1   0.0000
    72 H11      -8.8835   -2.8192    2.8815   H         1 RES1   0.0000
    73 H12      -7.3114   -2.8041    4.5952   H         1 RES1   0.0000
    74 H13      -6.8666   -1.4165    3.6353   H         1 RES1   0.0000
    75 H14      -5.0054   -2.7613    2.5943   H         1 RES1   0.0000
    76 H15      -5.5775   -4.1804    3.4536   H         1 RES1   0.0000
    77 H16      -4.9049   -3.3553    5.5504   H         1 RES1   0.0000
    78 H17      -4.8785   -1.6944    4.9988   H         1 RES1   0.0000
    79 H18      -2.8350   -3.7603    4.0784   H         1 RES1   0.0000
    80 H19      -2.6539   -2.8163    5.5399   H         1 RES1   0.0000
    81 H20      -3.2606   -0.9155    3.5469   H         1 RES1   0.0000
    82 H21      -2.0742   -1.9915    2.7975   H         1 RES1   0.0000
    83 H22      -0.4718   -1.5581    4.5089   H         1 RES1   0.0000
    84 H23      -1.6693   -0.7772    5.5326   H         1 RES1   0.0000
    85 H24      -1.3247    1.2799    4.4999   H         1 RES1   0.0000
    86 H25      -1.4595    0.5410    2.8917   H         1 RES1   0.0000
    87 H26       2.0891    0.2555    4.9243   H         1 RES1   0.0000
    88 H27       0.6390    0.8601    5.7277   H         1 RES1   0.0000
    89 H28       2.1594    2.4988    3.6451   H         1 RES1   0.0000
    90 H29       2.6602    2.4587    5.3266   H         1 RES1   0.0000
    91 H30       1.1516    4.0163    5.9047   H         1 RES1   0.0000
    92 H31      -0.1809    3.0951    5.2566   H         1 RES1   0.0000
    93 H32       1.3420    4.3207    3.0722   H         1 RES1   0.0000
    94 H33       0.9028    5.5368    4.2497   H         1 RES1   0.0000
    95 H34      -1.1893    3.5898    3.2261   H         1 RES1   0.0000
    96 H35      -0.7543    5.0289    2.2981   H         1 RES1   0.0000
    97 H36      -1.3821    6.4990    4.1297   H         1 RES1   0.0000
    98 H37      -1.7378    5.1328    5.1779   H         1 RES1   0.0000
    99 H38      -3.5367    4.3972    3.6925   H         1 RES1   0.0000
   100 H39      -3.0842    5.5898    2.4867   H         1 RES1   0.0000
   101 H40      -5.0594    6.3637    3.5469   H         1 RES1   0.0000
   102 H41      -3.7264    7.4277    3.9772   H         1 RES1   0.0000
   103 H42      -5.0352    7.1682    5.9214   H         1 RES1   0.0000
   104 H43      -3.5815    6.2193    6.2062   H         1 RES1   0.0000
   105 H44      -4.8519    4.1490    5.6274   H         1 RES1   0.0000
   106 H45      -6.2876    5.1157    5.3145   H         1 RES1   0.0000
   107 H46      -6.3127    5.8730    7.6673   H         1 RES1   0.0000
   108 H47      -4.8384    4.9694    7.9951   H         1 RES1   0.0000
   109 H48      -7.4887    3.7264    7.1116   H         1 RES1   0.0000
   110 H49      -6.8667    3.7414    8.7621   H         1 RES1   0.0000
   111 H50      -6.0178    2.8347    7.5142   H         1 RES1   0.0000
   112 H51       2.7866   -0.6589    3.2673   H         1 RES1   0.0000
   113 H52       3.0361    0.6536    2.1010   H         1 RES1   0.0000
   114 H53       2.5168   -2.6250    2.7020   H         1 RES1   0.0000
   115 H54       3.4112   -2.8792    1.2027   H         1 RES1   0.0000
   116 H55       0.5213   -3.4631    1.8591   H         1 RES1   0.0000
   117 H56       1.6992   -4.3383    0.8571   H         1 RES1   0.0000
   118 H57      -1.1684   -3.6946   -0.2392   H         1 RES1   0.0000
   119 H58       0.2311   -4.7530   -0.5650   H         1 RES1   0.0000
   120 H59       1.1194   -4.7655   -4.7285   H         1 RES1   0.0000
   121 H60       1.3497   -3.0921   -4.2390   H         1 RES1   0.0000
   122 H61      -0.9149   -2.6257   -5.3591   H         1 RES1   0.0000
   123 H62      -0.7625   -4.2074   -6.0973   H         1 RES1   0.0000
   124 H63       0.0560   -1.8902   -7.2655   H         1 RES1   0.0000
   125 H64       0.4747   -3.5017   -7.7321   H         1 RES1   0.0000
   126 H65       2.5392   -2.9315   -7.8245   H         1 RES1   0.0000
   127 H66       2.5768   -3.0328   -6.1253   H         1 RES1   0.0000
   128 H67       1.8246   -0.2737   -6.7216   H         1 RES1   0.0000
   129 H68       2.7922   -0.7612   -8.0562   H         1 RES1   0.0000
   130 H69       4.5444   -0.0127   -7.0711   H         1 RES1   0.0000
   131 H70       4.5321   -1.2798   -5.9207   H         1 RES1   0.0000
   132 H71       2.8180    1.1407   -5.3611   H         1 RES1   0.0000
   133 H72       4.4557    1.5173   -5.6607   H         1 RES1   0.0000
   134 H73       3.9246    2.0111   -3.5509   H         1 RES1   0.0000
   135 H74       5.3303    1.0232   -3.7622   H         1 RES1   0.0000
   136 H75       3.8393   -0.8059   -2.4593   H         1 RES1   0.0000
   137 H76       3.0021    0.6460   -1.9326   H         1 RES1   0.0000
   138 H77       4.4229    0.7382   -0.2583   H         1 RES1   0.0000
   139 H78       5.8562    0.5225   -1.2521   H         1 RES1   0.0000
   140 H79       5.6669   -1.8826   -1.0728   H         1 RES1   0.0000
   141 H80       4.0550   -1.7260   -0.3762   H         1 RES1   0.0000
   142 H81       6.6851   -0.7088    0.8561   H         1 RES1   0.0000
   143 H82       5.9024   -2.2135    1.2893   H         1 RES1   0.0000
   144 H83       5.1212   -0.6783    1.6508   H         1 RES1   0.0000
   145 H84      -0.6844   -5.9789   -3.8868   H         1 RES1   0.0000
   146 H85      -1.0841   -5.6872   -2.1924   H         1 RES1   0.0000
   147 H86       1.3477   -5.9877   -1.6068   H         1 RES1   0.0000
   148 H87       1.7300   -6.2081   -3.3085   H         1 RES1   0.0000
   149 H88       1.6269   -8.3652   -2.2903   H         1 RES1   0.0000
   150 H89       0.3510   -8.1771   -3.4753   H         1 RES1   0.0000
   151 H90      -0.7530   -9.2673   -1.8201   H         1 RES1   0.0000
   152 H91      -1.1773   -7.6334   -1.3711   H         1 RES1   0.0000
   153 H92       1.1561   -9.1605   -0.1426   H         1 RES1   0.0000
   154 H93      -0.4868   -9.2891    0.4447   H         1 RES1   0.0000
   155 H94      -0.3955   -6.7004    0.7408   H         1 RES1   0.0000
   156 H95       1.3590   -6.9011    0.6313   H         1 RES1   0.0000
   157 H96       1.2464   -8.6108    2.4531   H         1 RES1   0.0000
   158 H97      -0.4950   -8.4134    2.5092   H         1 RES1   0.0000
   159 H98       0.2242   -7.2051    4.3338   H         1 RES1   0.0000
   160 H99      -0.0718   -5.9491    3.1344   H         1 RES1   0.0000
   161 H100      2.3994   -5.8324    2.6983   H         1 RES1   0.0000
   162 H101      2.6403   -7.1691    3.8223   H         1 RES1   0.0000
   163 H102      1.5727   -5.7918    5.6323   H         1 RES1   0.0000
   164 H103      1.5731   -4.4050    4.5476   H         1 RES1   0.0000
   165 H104      4.0768   -5.9785    5.2978   H         1 RES1   0.0000
   166 H105      3.5114   -4.6032    6.2328   H         1 RES1   0.0000
   167 H106      4.2190   -4.4174    3.2705   H         1 RES1   0.0000
   168 H107      5.3264   -4.0349    4.5843   H         1 RES1   0.0000
   169 H108      3.8673   -3.0774    4.3772   H         1 RES1   0.0000
   170 C55       0.8079   -0.5450    8.8129   C.3       1 RES1   0.0000
   171 C56      -0.2148   -1.2880    7.9608   C.3       1 RES1   0.0000
   172 C57      -1.6632   -0.8686    8.2228   C.3       1 RES1   0.0000
   173 C58      -1.9856    0.5875    7.8699   C.3       1 RES1   0.0000
   174 C59      -3.4911    0.8850    7.9165   C.3       1 RES1   0.0000
   175 C60      -4.2954    0.4335    6.6918   C.3       1 RES1   0.0000
   176 C61      -4.1545    1.3415    5.4605   C.3       1 RES1   0.0000
   177 C62      -5.3648    1.2153    4.5282   C.3       1 RES1   0.0000
   178 C63      -5.2666    1.9296    3.1701   C.3       1 RES1   0.0000
   179 C64      -4.3000    1.3285    2.1387   C.3       1 RES1   0.0000
   180 C65      -4.8497    0.0011    1.6182   C.3       1 RES1   0.0000
   181 C66      -3.8363   -0.9256    0.9512   C.3       1 RES1   0.0000
   182 N3       -3.7485   -0.7542   -0.4890   N.am      1 RES1   0.0000
   183 C67      -4.6442   -1.5470   -1.3147   C.3       1 RES1   0.0000
   184 C68      -4.1144   -2.9967   -1.3859   C.3       1 RES1   0.0000
   185 C69      -5.0739   -4.0337   -0.8002   C.3       1 RES1   0.0000
   186 C70      -4.4347   -5.4228   -0.6952   C.3       1 RES1   0.0000
   187 C71      -3.6238   -5.6531    0.5939   C.3       1 RES1   0.0000
   188 C72      -4.3975   -6.4567    1.6453   C.3       1 RES1   0.0000
   189 C73      -3.6120   -6.5998    2.9524   C.3       1 RES1   0.0000
   190 C74      -4.0780   -7.7566    3.8431   C.3       1 RES1   0.0000
   191 C75      -5.5216   -7.6643    4.3402   C.3       1 RES1   0.0000
   192 C76      -5.7452   -6.5847    5.3987   C.3       1 RES1   0.0000
   193 C77      -7.2285   -6.4434    5.7431   C.3       1 RES1   0.0000
   194 C78      -7.5072   -5.2669    6.6729   C.3       1 RES1   0.0000
   195 C79      -2.6028   -0.2911   -0.9476   C.2       1 RES1   0.0000
   196 O5       -1.6064   -0.1064   -0.2135   O.2       1 RES1   0.0000
   197 C80      -2.4437    0.1558   -2.3901   C.3       1 RES1   0.0000
   198 O6       -1.3058    1.0085   -2.4145   O.3       1 RES1   0.0000
   199 C81      -1.5630    2.3927   -2.1513   C.3       1 RES1   0.0000
   200 C82      -1.0279    2.8489   -0.7880   C.3       1 RES1   0.0000
   201 O7        0.3721    2.5431   -0.7804   O.3       1 RES1   0.0000
   202 C83       1.1804    3.3882    0.0607   C.3       1 RES1   0.0000
   203 C84       2.5950    2.8178   -0.1530   C.2       1 RES1   0.0000
   204 O8        2.5785    1.5661   -0.1820   O.2       1 RES1   0.0000
   205 N4        3.6821    3.5656   -0.3365   N.am      1 RES1   0.0000
   206 C85       4.8911    3.1187   -1.0928   C.3       1 RES1   0.0000
   207 C86       6.1432    2.6491   -0.3164   C.3       1 RES1   0.0000
   208 C87       7.3114    1.9217   -1.1089   C.3       1 RES1   0.0000
   209 C88       7.1964    1.3670   -2.5803   C.3       1 RES1   0.0000
   210 C89       7.1286   -0.2061   -2.9126   C.3       1 RES1   0.0000
   211 C90       6.1911   -0.9955   -3.9555   C.3       1 RES1   0.0000
   212 C91       4.9361   -1.9605   -3.6633   C.3       1 RES1   0.0000
   213 C92       3.2954   -1.9825   -3.8746   C.3       1 RES1   0.0000
   214 C93       2.1170   -0.9565   -3.5882   C.3       1 RES1   0.0000
   215 C94       0.8610   -0.8472   -4.4770   C.3       1 RES1   0.0000
   216 C95       0.4189    0.6091   -4.6588   C.3       1 RES1   0.0000
   217 C96      -0.8963    0.7122   -5.4254   C.3       1 RES1   0.0000
   218 C97       3.6252    5.0130   -0.1356   C.3       1 RES1   0.0000
   219 C98       3.0757    5.7318   -1.3780   C.3       1 RES1   0.0000
   220 C99       2.6480    7.1789   -1.1147   C.3       1 RES1   0.0000
   221 C100      1.6000    7.3925   -0.0066   C.3       1 RES1   0.0000
   222 C101      0.1974    7.8098   -0.4776   C.3       1 RES1   0.0000
   223 C102     -0.7658    6.6516   -0.7578   C.3       1 RES1   0.0000
   224 C103     -2.2180    7.1367   -0.7362   C.3       1 RES1   0.0000
   225 C104     -3.2749    6.0274   -0.7999   C.3       1 RES1   0.0000
   226 C105     -3.5857    5.5230   -2.2099   C.3       1 RES1   0.0000
   227 C106     -4.6999    4.4738   -2.1861   C.3       1 RES1   0.0000
   228 C107     -5.2878    4.1617   -3.5648   C.3       1 RES1   0.0000
   229 C108     -4.3744    3.3577   -4.4856   C.3       1 RES1   0.0000
   230 H109      1.8069   -0.9379    8.6290   H         1 RES1   0.0000
   231 H110      0.5846   -0.6727    9.8691   H         1 RES1   0.0000
   232 H111      0.8102    0.5193    8.5855   H         1 RES1   0.0000
   233 H112     -0.1308   -2.3544    8.1761   H         1 RES1   0.0000
   234 H113      0.0296   -1.1468    6.9046   H         1 RES1   0.0000
   235 H114     -1.8758   -1.0138    9.2814   H         1 RES1   0.0000
   236 H115     -2.3250   -1.5425    7.6710   H         1 RES1   0.0000
   237 H116     -1.5954    0.8449    6.8812   H         1 RES1   0.0000
   238 H117     -1.4879    1.2440    8.5855   H         1 RES1   0.0000
   239 H118     -3.6423    1.9578    8.0519   H         1 RES1   0.0000
   240 H119     -3.9020    0.3948    8.8015   H         1 RES1   0.0000
   241 H120     -5.3483    0.4098    6.9808   H         1 RES1   0.0000
   242 H121     -4.0157   -0.5890    6.4431   H         1 RES1   0.0000
   243 H122     -3.2480    1.0851    4.9172   H         1 RES1   0.0000
   244 H123     -4.0598    2.3744    5.7997   H         1 RES1   0.0000
   245 H124     -6.2329    1.6374    5.0383   H         1 RES1   0.0000
   246 H125     -5.5765    0.1568    4.3728   H         1 RES1   0.0000
   247 H126     -4.9983    2.9708    3.3408   H         1 RES1   0.0000
   248 H127     -6.2600    1.9305    2.7174   H         1 RES1   0.0000
   249 H128     -3.3158    1.2031    2.5892   H         1 RES1   0.0000
   250 H129     -4.1870    2.0284    1.3040   H         1 RES1   0.0000
   251 H130     -5.6630    0.2222    0.9321   H         1 RES1   0.0000
   252 H131     -5.2834   -0.5415    2.4527   H         1 RES1   0.0000
   253 H132     -4.0836   -1.9680    1.1477   H         1 RES1   0.0000
   254 H133     -2.8417   -0.7294    1.3472   H         1 RES1   0.0000
   255 H134     -4.7105   -1.1036   -2.3049   H         1 RES1   0.0000
   256 H135     -5.6392   -1.5312   -0.8712   H         1 RES1   0.0000
   257 H136     -3.1637   -3.0362   -0.8484   H         1 RES1   0.0000
   258 H137     -3.8943   -3.2693   -2.4186   H         1 RES1   0.0000
   259 H138     -5.9498   -4.0829   -1.4451   H         1 RES1   0.0000
   260 H139     -5.4148   -3.7336    0.1888   H         1 RES1   0.0000
   261 H140     -3.8011   -5.5839   -1.5712   H         1 RES1   0.0000
   262 H141     -5.2243   -6.1721   -0.7363   H         1 RES1   0.0000
   263 H142     -3.3162   -4.6955    1.0283   H         1 RES1   0.0000
   264 H143     -2.7140   -6.2122    0.3572   H         1 RES1   0.0000
   265 H144     -4.6030   -7.4502    1.2434   H         1 RES1   0.0000
   266 H145     -5.3558   -5.9724    1.8366   H         1 RES1   0.0000
   267 H146     -3.6630   -5.6630    3.5089   H         1 RES1   0.0000
   268 H147     -2.5596   -6.7827    2.7180   H         1 RES1   0.0000
   269 H148     -3.4141   -7.8133    4.7096   H         1 RES1   0.0000
   270 H149     -3.9646   -8.6869    3.2823   H         1 RES1   0.0000
   271 H150     -5.8024   -8.6275    4.7709   H         1 RES1   0.0000
   272 H151     -6.1839   -7.4843    3.4910   H         1 RES1   0.0000
   273 H152     -5.3718   -5.6263    5.0337   H         1 RES1   0.0000
   274 H153     -5.1813   -6.8323    6.3017   H         1 RES1   0.0000
   275 H154     -7.5783   -7.3648    6.2125   H         1 RES1   0.0000
   276 H155     -7.7982   -6.3077    4.8191   H         1 RES1   0.0000
   277 H156     -6.9990   -5.3962    7.6261   H         1 RES1   0.0000
   278 H157     -8.5749   -5.1830    6.8624   H         1 RES1   0.0000
   279 H158     -7.1667   -4.3344    6.2235   H         1 RES1   0.0000
   280 H159     -3.3317    0.6728   -2.7711   H         1 RES1   0.0000
   281 H160     -2.2093   -0.7086   -3.0217   H         1 RES1   0.0000
   282 H161     -2.6316    2.6156   -2.2307   H         1 RES1   0.0000
   283 H162     -1.0251    2.9425   -2.9359   H         1 RES1   0.0000
   284 H163     -1.5220    2.3258    0.0419   H         1 RES1   0.0000
   285 H164     -1.1930    3.9256   -0.6987   H         1 RES1   0.0000
   286 H165      0.8782    3.2432    1.1063   H         1 RES1   0.0000
   287 H166      1.0556    4.4361   -0.2139   H         1 RES1   0.0000
   288 H167      5.1609    3.9773   -1.7080   H         1 RES1   0.0000
   289 H168      4.5629    2.3203   -1.7410   H         1 RES1   0.0000
   290 H169      5.8048    1.9983    0.4888   H         1 RES1   0.0000
   291 H170      6.6151    3.5126    0.1546   H         1 RES1   0.0000
   292 H171      7.6936    1.1392   -0.4504   H         1 RES1   0.0000
   293 H172      8.1181    2.6546   -1.1608   H         1 RES1   0.0000
   294 H173      8.1254    1.6846   -3.0493   H         1 RES1   0.0000
   295 H174      6.4411    1.9786   -3.0587   H         1 RES1   0.0000
   296 H175      7.1564   -0.7785   -1.9890   H         1 RES1   0.0000
   297 H176      8.1010   -0.3820   -3.3758   H         1 RES1   0.0000
   298 H177      6.8914   -1.7632   -4.2922   H         1 RES1   0.0000
   299 H178      6.0274   -0.3835   -4.8356   H         1 RES1   0.0000
   300 H179      5.1173   -2.3654   -2.6743   H         1 RES1   0.0000
   301 H180      5.1496   -2.7936   -4.3337   H         1 RES1   0.0000
   302 H181      3.0685   -2.9034   -3.3322   H         1 RES1   0.0000
   303 H182      3.1914   -2.2010   -4.9193   H         1 RES1   0.0000
   304 H183      2.5089    0.0300   -3.7147   H         1 RES1   0.0000
   305 H184      1.7702   -1.0697   -2.5148   H         1 RES1   0.0000
   306 H185      0.0222   -1.3691   -4.0444   H         1 RES1   0.0000
   307 H186      1.0551   -1.2679   -5.4388   H         1 RES1   0.0000
   308 H187      1.1352    1.1799   -5.2432   H         1 RES1   0.0000
   309 H188      0.3669    1.0937   -3.6747   H         1 RES1   0.0000
   310 H189     -0.8180    0.1803   -6.3700   H         1 RES1   0.0000
   311 H190     -1.1257    1.7489   -5.6555   H         1 RES1   0.0000
   312 H191     -1.7355    0.2941   -4.8837   H         1 RES1   0.0000
   313 H192      4.6378    5.3620    0.0718   H         1 RES1   0.0000
   314 H193      3.0194    5.2322    0.7455   H         1 RES1   0.0000
   315 H194      2.2394    5.1568   -1.7804   H         1 RES1   0.0000
   316 H195      3.8482    5.7590   -2.1491   H         1 RES1   0.0000
   317 H196      2.2638    7.5816   -2.0528   H         1 RES1   0.0000
   318 H197      3.5444    7.7521   -0.8747   H         1 RES1   0.0000
   319 H198      1.9688    8.1827    0.6468   H         1 RES1   0.0000
   320 H199      1.5002    6.5015    0.6207   H         1 RES1   0.0000
   321 H200      0.2722    8.4430   -1.3618   H         1 RES1   0.0000
   322 H201     -0.2472    8.4187    0.3124   H         1 RES1   0.0000
   323 H202     -0.6505    5.9039    0.0354   H         1 RES1   0.0000
   324 H203     -0.5306    6.1813   -1.7163   H         1 RES1   0.0000
   325 H204     -2.3805    7.8396   -1.5536   H         1 RES1   0.0000
   326 H205     -2.3646    7.6861    0.1969   H         1 RES1   0.0000
   327 H206     -4.2010    6.4267   -0.3812   H         1 RES1   0.0000
   328 H207     -2.9700    5.1913   -0.1595   H         1 RES1   0.0000
   329 H208     -2.6843    5.1235   -2.6813   H         1 RES1   0.0000
   330 H209     -3.9248    6.3697   -2.8075   H         1 RES1   0.0000
   331 H210     -5.5092    4.8557   -1.5609   H         1 RES1   0.0000
   332 H211     -4.3444    3.5513   -1.7111   H         1 RES1   0.0000
   333 H212     -5.5415    5.1024   -4.0542   H         1 RES1   0.0000
   334 H213     -6.2179    3.6055   -3.4317   H         1 RES1   0.0000
   335 H214     -3.4016    3.8319   -4.5907   H         1 RES1   0.0000
   336 H215     -4.8222    3.2850   -5.4736   H         1 RES1   0.0000
   337 H216     -4.2326    2.3422   -4.1120   H         1 RES1   0.0000
@<TRIPOS>BOND
     1     1    28    1
     2     1    30    1
     3     1    33    1
     4     1    36    1
     5     1   196    1
     6     1   198    1
     7     1   201    1
     8     1   204    1
     9     2     3    1
    10     2    62    1
    11     2    63    1
    12     2    64    1
    13     3     4    1
    14     3    65    1
    15     3    66    1
    16     4     5    1
    17     4    67    1
    18     4    68    1
    19     5     6    1
    20     5    69    1
    21     5    70    1
    22     6     7    1
    23     6    71    1
    24     6    72    1
    25     7     8    1
    26     7    73    1
    27     7    74    1
    28     8     9    1
    29     8    75    1
    30     8    76    1
    31     9    10    1
    32     9    77    1
    33     9    78    1
    34    10    11    1
    35    10    79    1
    36    10    80    1
    37    11    12    1
    38    11    81    1
    39    11    82    1
    40    12    13    1
    41    12    83    1
    42    12    84    1
    43    13    14    1
    44    13    85    1
    45    13    86    1
    46    14    15    1
    47    14    27    1
    48    15    16    1
    49    15    87    1
    50    15    88    1
    51    16    17    1
    52    16    89    1
    53    16    90    1
    54    17    18    1
    55    17    91    1
    56    17    92    1
    57    18    19    1
    58    18    93    1
    59    18    94    1
    60    19    20    1
    61    19    95    1
    62    19    96    1
    63    20    21    1
    64    20    97    1
    65    20    98    1
    66    21    22    1
    67    21    99    1
    68    21   100    1
    69    22    23    1
    70    22   101    1
    71    22   102    1
    72    23    24    1
    73    23   103    1
    74    23   104    1
    75    24    25    1
    76    24   105    1
    77    24   106    1
    78    25    26    1
    79    25   107    1
    80    25   108    1
    81    26   109    1
    82    26   110    1
    83    26   111    1
    84    27    28    2
    85    27    29    1
    86    29    30    1
    87    29   112    1
    88    29   113    1
    89    30    31    1
    90    31    32    1
    91    31   114    1
    92    31   115    1
    93    32    33    1
    94    32   116    1
    95    32   117    1
    96    33    34    1
    97    34    35    1
    98    34   118    1
    99    34   119    1
   100    35    36    2
   101    35    37    1
   102    37    38    1
   103    37    50    1
   104    38    39    1
   105    38   120    1
   106    38   121    1
   107    39    40    1
   108    39   122    1
   109    39   123    1
   110    40    41    1
   111    40   124    1
   112    40   125    1
   113    41    42    1
   114    41   126    1
   115    41   127    1
   116    42    43    1
   117    42   128    1
   118    42   129    1
   119    43    44    1
   120    43   130    1
   121    43   131    1
   122    44    45    1
   123    44   132    1
   124    44   133    1
   125    45    46    1
   126    45   134    1
   127    45   135    1
   128    46    47    1
   129    46   136    1
   130    46   137    1
   131    47    48    1
   132    47   138    1
   133    47   139    1
   134    48    49    1
   135    48   140    1
   136    48   141    1
   137    49   142    1
   138    49   143    1
   139    49   144    1
   140    50    51    1
   141    50   145    1
   142    50   146    1
   143    51    52    1
   144    51   147    1
   145    51   148    1
   146    52    53    1
   147    52   149    1
   148    52   150    1
   149    53    54    1
   150    53   151    1
   151    53   152    1
   152    54    55    1
   153    54   153    1
   154    54   154    1
   155    55    56    1
   156    55   155    1
   157    55   156    1
   158    56    57    1
   159    56   157    1
   160    56   158    1
   161    57    58    1
   162    57   159    1
   163    57   160    1
   164    58    59    1
   165    58   161    1
   166    58   162    1
   167    59    60    1
   168    59   163    1
   169    59   164    1
   170    60    61    1
   171    60   165    1
   172    60   166    1
   173    61   167    1
   174    61   168    1
   175    61   169    1
   176   170   171    1
   177   170   230    1
   178   170   231    1
   179   170   232    1
   180   171   172    1
   181   171   233    1
   182   171   234    1
   183   172   173    1
   184   172   235    1
   185   172   236    1
   186   173   174    1
   187   173   237    1
   188   173   238    1
   189   174   175    1
   190   174   239    1
   191   174   240    1
   192   175   176    1
   193   175   241    1
   194   175   242    1
   195   176   177    1
   196   176   243    1
   197   176   244    1
   198   177   178    1
   199   177   245    1
   200   177   246    1
   201   178   179    1
   202   178   247    1
   203   178   248    1
   204   179   180    1
   205   179   249    1
   206   179   250    1
   207   180   181    1
   208   180   251    1
   209   180   252    1
   210   181   182    1
   211   181   253    1
   212   181   254    1
   213   182   183    1
   214   182   195    1
   215   183   184    1
   216   183   255    1
   217   183   256    1
   218   184   185    1
   219   184   257    1
   220   184   258    1
   221   185   186    1
   222   185   259    1
   223   185   260    1
   224   186   187    1
   225   186   261    1
   226   186   262    1
   227   187   188    1
   228   187   263    1
   229   187   264    1
   230   188   189    1
   231   188   265    1
   232   188   266    1
   233   189   190    1
   234   189   267    1
   235   189   268    1
   236   190   191    1
   237   190   269    1
   238   190   270    1
   239   191   192    1
   240   191   271    1
   241   191   272    1
   242   192   193    1
   243   192   273    1
   244   192   274    1
   245   193   194    1
   246   193   275    1
   247   193   276    1
   248   194   277    1
   249   194   278    1
   250   194   279    1
   251   195   196    2
   252   195   197    1
   253   197   198    1
   254   197   280    1
   255   197   281    1
   256   198   199    1
   257   199   200    1
   258   199   282    1
   259   199   283    1
   260   200   201    1
   261   200   284    1
   262   200   285    1
   263   201   202    1
   264   202   203    1
   265   202   286    1
   266   202   287    1
   267   203   204    2
   268   203   205    1
   269   205   206    1
   270   205   218    1
   271   206   207    1
   272   206   288    1
   273   206   289    1
   274   207   208    1
   275   207   290    1
   276   207   291    1
   277   208   209    1
   278   208   292    1
   279   208   293    1
   280   209   210    1
   281   209   294    1
   282   209   295    1
   283   210   211    1
   284   210   296    1
   285   210   297    1
   286   211   212    1
   287   211   298    1
   288   211   299    1
   289   212   213    1
   290   212   300    1
   291   212   301    1
   292   213   214    1
   293   213   302    1
   294   213   303    1
   295   214   215    1
   296   214   304    1
   297   214   305    1
   298   215   216    1
   299   215   306    1
   300   215   307    1
   301   216   217    1
   302   216   308    1
   303   216   309    1
   304   217   310    1
   305   217   311    1
   306   217   312    1
   307   218   219    1
   308   218   313    1
   309   218   314    1
   310   219   220    1
   311   219   315    1
   312   219   316    1
   313   220   221    1
   314   220   317    1
   315   220   318    1
   316   221   222    1
   317   221   319    1
   318   221   320    1
   319   222   223    1
   320   222   321    1
   321   222   322    1
   322   223   224    1
   323   223   323    1
   324   223   324    1
   325   224   225    1
   326   224   325    1
   327   224   326    1
   328   225   226    1
   329   225   327    1
   330   225   328    1
   331   226   227    1
   332   226   329    1
   333   226   330    1
   334   227   228    1
   335   227   331    1
   336   227   332    1
   337   228   229    1
   338   228   333    1
   339   228   334    1
   340   229   335    1
   341   229   336    1
   342   229   337    1
@<TRIPOS>SUBSTRUCTURE
     1 RES1      337 GROUP             0 ****  ****    0  
