@<TRIPOS>MOLECULE
ICIGOT_geomtry_0_nunpairedes_0_charge_3 Charge: 3 Unpaired_Electrons: 6 XTB_Unpaired_Electrons: 0 XTB_Charge: 3
   281   288     1     0     0
SMALL
NoCharges
****
Generated from Architector

@<TRIPOS>ATOM
     1 Tb1      -0.0288    0.1225   -0.0463   Tb        1 RES1   0.0000
     2 C1       -8.2265    0.0594    3.4407   C.3       1 RES1   0.0000
     3 C2       -8.8203   -0.6224    2.2160   C.3       1 RES1   0.0000
     4 C3       -7.7408   -1.2393    1.3293   C.3       1 RES1   0.0000
     5 C4       -8.3472   -2.0035    0.1546   C.3       1 RES1   0.0000
     6 C5       -7.2956   -2.6440   -0.7510   C.3       1 RES1   0.0000
     7 C6       -6.5732   -1.5948   -1.5965   C.3       1 RES1   0.0000
     8 C7       -5.4113   -2.1712   -2.4136   C.3       1 RES1   0.0000
     9 C8       -4.1215   -2.3109   -1.6010   C.3       1 RES1   0.0000
    10 P1       -2.9896   -0.8652   -1.4578   P.3       1 RES1   0.0000
    11 O1       -1.8490   -1.2206   -0.5444   O.2       1 RES1   0.0000
    12 C9       -2.3642   -0.7007   -3.1823   C.3       1 RES1   0.0000
    13 C10      -1.6335    0.6126   -3.2988   C.2       1 RES1   0.0000
    14 O2       -1.0058    1.0016   -2.3002   O.2       1 RES1   0.0000
    15 N1       -1.6451    1.2965   -4.4423   N.am      1 RES1   0.0000
    16 C11      -2.3056    0.8167   -5.6480   C.3       1 RES1   0.0000
    17 C12      -3.8463    0.8482   -5.6820   C.3       1 RES1   0.0000
    18 C13      -4.2977    0.0595   -6.9094   C.3       1 RES1   0.0000
    19 C14      -4.4247    2.2578   -5.6792   C.3       1 RES1   0.0000
    20 C15      -0.7551    2.4461   -4.5875   C.3       1 RES1   0.0000
    21 C16      -1.4925    3.7654   -4.8313   C.3       1 RES1   0.0000
    22 C17      -0.5036    4.8373   -5.2813   C.3       1 RES1   0.0000
    23 C18      -2.2106    4.1966   -3.5552   C.3       1 RES1   0.0000
    24 C19      -3.9481    0.5998   -0.9578   C.ar      1 RES1   0.0000
    25 C20      -4.8297    1.1989   -1.8531   C.ar      1 RES1   0.0000
    26 C21      -5.7157    2.1684   -1.4214   C.ar      1 RES1   0.0000
    27 C22      -5.7517    2.5258   -0.0842   C.ar      1 RES1   0.0000
    28 C23      -4.8644    1.9449    0.8116   C.ar      1 RES1   0.0000
    29 C24      -3.9553    0.9948    0.3750   C.ar      1 RES1   0.0000
    30 H1       -9.0092    0.5147    4.0391   H         1 RES1   0.0000
    31 H2       -7.5168    0.8328    3.1512   H         1 RES1   0.0000
    32 H3       -7.7120   -0.6718    4.0600   H         1 RES1   0.0000
    33 H4       -9.3931    0.0993    1.6318   H         1 RES1   0.0000
    34 H5       -9.5103   -1.4036    2.5386   H         1 RES1   0.0000
    35 H6       -7.1352   -1.9299    1.9234   H         1 RES1   0.0000
    36 H7       -7.0809   -0.4438    0.9686   H         1 RES1   0.0000
    37 H8       -8.9637   -1.3264   -0.4386   H         1 RES1   0.0000
    38 H9       -9.0022   -2.7795    0.5535   H         1 RES1   0.0000
    39 H10      -7.7864   -3.3583   -1.4126   H         1 RES1   0.0000
    40 H11      -6.5854   -3.2065   -0.1401   H         1 RES1   0.0000
    41 H12      -6.1997   -0.8056   -0.9440   H         1 RES1   0.0000
    42 H13      -7.3112   -1.1487   -2.2676   H         1 RES1   0.0000
    43 H14      -5.2609   -1.5657   -3.3102   H         1 RES1   0.0000
    44 H15      -5.7020   -3.1687   -2.7512   H         1 RES1   0.0000
    45 H16      -3.4867   -3.0893   -2.0364   H         1 RES1   0.0000
    46 H17      -4.3844   -2.6255   -0.5913   H         1 RES1   0.0000
    47 H18      -3.1494   -0.8952   -3.8972   H         1 RES1   0.0000
    48 H19      -1.6187   -1.4962   -3.2771   H         1 RES1   0.0000
    49 H20      -1.9838   -0.2141   -5.8317   H         1 RES1   0.0000
    50 H21      -1.9440    1.4359   -6.4692   H         1 RES1   0.0000
    51 H22      -4.2551    0.3449   -4.8047   H         1 RES1   0.0000
    52 H23      -3.9027    0.5067   -7.8153   H         1 RES1   0.0000
    53 H24      -5.3817    0.0443   -6.9780   H         1 RES1   0.0000
    54 H25      -3.9428   -0.9680   -6.8617   H         1 RES1   0.0000
    55 H26      -4.0698    2.8338   -6.5287   H         1 RES1   0.0000
    56 H27      -4.1728    2.7852   -4.7631   H         1 RES1   0.0000
    57 H28      -5.5083    2.2068   -5.7433   H         1 RES1   0.0000
    58 H29      -0.0526    2.2507   -5.4077   H         1 RES1   0.0000
    59 H30      -0.1884    2.5348   -3.6605   H         1 RES1   0.0000
    60 H31      -2.2194    3.6173   -5.6305   H         1 RES1   0.0000
    61 H32       0.2777    4.9889   -4.5384   H         1 RES1   0.0000
    62 H33      -1.0198    5.7813   -5.4361   H         1 RES1   0.0000
    63 H34      -0.0351    4.5484   -6.2189   H         1 RES1   0.0000
    64 H35      -1.4688    4.5043   -2.8224   H         1 RES1   0.0000
    65 H36      -2.7856    3.3776   -3.1228   H         1 RES1   0.0000
    66 H37      -2.8785    5.0336   -3.7451   H         1 RES1   0.0000
    67 H38      -4.8439    0.8853   -2.8828   H         1 RES1   0.0000
    68 H39      -6.3992    2.6226   -2.1215   H         1 RES1   0.0000
    69 H40      -6.4621    3.2566    0.2642   H         1 RES1   0.0000
    70 H41      -4.8913    2.2333    1.8533   H         1 RES1   0.0000
    71 H42      -3.2353    0.5656    1.0555   H         1 RES1   0.0000
    72 C25       2.2274    9.4057   -0.0051   C.3       1 RES1   0.0000
    73 C26       1.9792    9.1304    1.4724   C.3       1 RES1   0.0000
    74 C27       0.8057    8.1784    1.7142   C.3       1 RES1   0.0000
    75 C28      -0.5483    8.8112    1.3860   C.3       1 RES1   0.0000
    76 C29      -1.7413    7.8971    1.6867   C.3       1 RES1   0.0000
    77 C30      -1.7449    6.7058    0.7321   C.3       1 RES1   0.0000
    78 C31      -2.8076    5.6371    0.9646   C.3       1 RES1   0.0000
    79 C32      -2.6217    4.4723   -0.0071   C.3       1 RES1   0.0000
    80 P2       -1.0351    3.5388    0.0857   P.3       1 RES1   0.0000
    81 O3       -1.3342    2.0820   -0.1049   O.2       1 RES1   0.0000
    82 C33      -0.4918    3.6470    1.8448   C.3       1 RES1   0.0000
    83 C34       0.8019    2.9039    2.0022   C.2       1 RES1   0.0000
    84 O4        1.0739    1.9943    1.1865   O.2       1 RES1   0.0000
    85 N2        1.6044    3.2262    3.0107   N.am      1 RES1   0.0000
    86 C35       1.4088    4.3568    3.9090   C.3       1 RES1   0.0000
    87 C36       0.5237    4.1573    5.1576   C.3       1 RES1   0.0000
    88 C37       0.9658    2.9584    5.9881   C.3       1 RES1   0.0000
    89 C38      -0.9802    4.0804    4.9032   C.3       1 RES1   0.0000
    90 C39       2.8122    2.4340    3.1884   C.3       1 RES1   0.0000
    91 C40       4.0652    2.9731    2.4741   C.3       1 RES1   0.0000
    92 C41       3.8447    3.0697    0.9676   C.3       1 RES1   0.0000
    93 C42       4.5524    4.3116    3.0174   C.3       1 RES1   0.0000
    94 C43       0.2946    4.1676   -1.0229   C.ar      1 RES1   0.0000
    95 C44       0.4318    5.4950   -1.4321   C.ar      1 RES1   0.0000
    96 C45       1.4683    5.8784   -2.2643   C.ar      1 RES1   0.0000
    97 C46       2.3775    4.9411   -2.7241   C.ar      1 RES1   0.0000
    98 C47       2.2246    3.6113   -2.3626   C.ar      1 RES1   0.0000
    99 C48       1.1980    3.2298   -1.5139   C.ar      1 RES1   0.0000
   100 H43       3.1190   10.0129   -0.1241   H         1 RES1   0.0000
   101 H44       1.3967    9.9431   -0.4518   H         1 RES1   0.0000
   102 H45       2.3738    8.4732   -0.5474   H         1 RES1   0.0000
   103 H46       1.7928   10.0699    1.9933   H         1 RES1   0.0000
   104 H47       2.8806    8.6879    1.9042   H         1 RES1   0.0000
   105 H48       0.7997    7.8836    2.7680   H         1 RES1   0.0000
   106 H49       0.9720    7.2775    1.1137   H         1 RES1   0.0000
   107 H50      -0.5764    9.0909    0.3320   H         1 RES1   0.0000
   108 H51      -0.6453    9.7225    1.9757   H         1 RES1   0.0000
   109 H52      -2.6665    8.4629    1.5737   H         1 RES1   0.0000
   110 H53      -1.6942    7.5578    2.7234   H         1 RES1   0.0000
   111 H54      -0.7699    6.2198    0.8032   H         1 RES1   0.0000
   112 H55      -1.8568    7.0990   -0.2818   H         1 RES1   0.0000
   113 H56      -3.7998    6.0635    0.8015   H         1 RES1   0.0000
   114 H57      -2.7740    5.2838    1.9980   H         1 RES1   0.0000
   115 H58      -2.7433    4.8327   -1.0262   H         1 RES1   0.0000
   116 H59      -3.3821    3.7068    0.1633   H         1 RES1   0.0000
   117 H60      -1.2635    3.0573    2.3498   H         1 RES1   0.0000
   118 H61      -0.4750    4.6445    2.2580   H         1 RES1   0.0000
   119 H62       1.0235    5.2015    3.3380   H         1 RES1   0.0000
   120 H63       2.3989    4.6331    4.2679   H         1 RES1   0.0000
   121 H64       0.6974    5.0574    5.7565   H         1 RES1   0.0000
   122 H65       0.8417    2.0285    5.4362   H         1 RES1   0.0000
   123 H66       0.3616    2.9072    6.8892   H         1 RES1   0.0000
   124 H67       2.0061    3.0505    6.2865   H         1 RES1   0.0000
   125 H68      -1.2602    3.1643    4.3922   H         1 RES1   0.0000
   126 H69      -1.3400    4.9336    4.3343   H         1 RES1   0.0000
   127 H70      -1.4977    4.0879    5.8589   H         1 RES1   0.0000
   128 H71       2.5881    1.4533    2.7590   H         1 RES1   0.0000
   129 H72       3.0015    2.3505    4.2606   H         1 RES1   0.0000
   130 H73       4.8511    2.2320    2.6564   H         1 RES1   0.0000
   131 H74       3.1096    3.8379    0.7326   H         1 RES1   0.0000
   132 H75       3.4905    2.1224    0.5646   H         1 RES1   0.0000
   133 H76       4.7783    3.3359    0.4785   H         1 RES1   0.0000
   134 H77       3.8790    5.1162    2.7332   H         1 RES1   0.0000
   135 H78       5.5294    4.5370    2.5997   H         1 RES1   0.0000
   136 H79       4.6553    4.2827    4.0992   H         1 RES1   0.0000
   137 H80      -0.2801    6.2430   -1.1419   H         1 RES1   0.0000
   138 H81       1.5493    6.9076   -2.5778   H         1 RES1   0.0000
   139 H82       3.1741    5.2338   -3.3882   H         1 RES1   0.0000
   140 H83       2.9010    2.8740   -2.7658   H         1 RES1   0.0000
   141 H84       1.0720    2.1785   -1.2387   H         1 RES1   0.0000
   142 C49      -0.6370   -7.1433    6.7884   C.3       1 RES1   0.0000
   143 C50      -1.6473   -6.1107    7.2710   C.3       1 RES1   0.0000
   144 C51      -1.1841   -4.6728    7.0321   C.3       1 RES1   0.0000
   145 C52      -0.0031   -4.2798    7.9191   C.3       1 RES1   0.0000
   146 C53       0.4885   -2.8484    7.6825   C.3       1 RES1   0.0000
   147 C54       1.1270   -2.7059    6.2982   C.3       1 RES1   0.0000
   148 C55       1.6640   -1.3090    5.9845   C.3       1 RES1   0.0000
   149 C56       2.1271   -1.1572    4.5341   C.3       1 RES1   0.0000
   150 P3        0.8432   -1.4002    3.2416   P.3       1 RES1   0.0000
   151 O5        1.0746   -0.5310    2.0478   O.2       1 RES1   0.0000
   152 C57      -0.6830   -0.7778    4.0900   C.3       1 RES1   0.0000
   153 C58      -1.8330   -0.8459    3.1242   C.2       1 RES1   0.0000
   154 O6       -1.6390   -0.4129    1.9709   O.2       1 RES1   0.0000
   155 N3       -2.9792   -1.4076    3.5215   N.am      1 RES1   0.0000
   156 C59      -3.3651   -1.5040    4.9222   C.3       1 RES1   0.0000
   157 C60      -3.7479   -0.1675    5.6000   C.3       1 RES1   0.0000
   158 C61      -5.0442    0.3883    5.0248   C.3       1 RES1   0.0000
   159 C62      -2.6983    0.9352    5.5389   C.3       1 RES1   0.0000
   160 C63      -4.0051   -1.7552    2.5444   C.3       1 RES1   0.0000
   161 C64      -4.3061   -3.2610    2.3555   C.3       1 RES1   0.0000
   162 C65      -3.0780   -4.0104    1.8511   C.3       1 RES1   0.0000
   163 C66      -4.8998   -3.9819    3.5622   C.3       1 RES1   0.0000
   164 C67       0.7700   -3.1464    2.6997   C.ar      1 RES1   0.0000
   165 C68       1.4765   -4.1764    3.3156   C.ar      1 RES1   0.0000
   166 C69       1.4707   -5.4495    2.7758   C.ar      1 RES1   0.0000
   167 C70       0.7433   -5.7128    1.6279   C.ar      1 RES1   0.0000
   168 C71       0.0443   -4.6899    1.0047   C.ar      1 RES1   0.0000
   169 C72       0.0724   -3.4039    1.5236   C.ar      1 RES1   0.0000
   170 H85      -1.0489   -8.1420    6.8910   H         1 RES1   0.0000
   171 H86       0.2790   -7.1005    7.3695   H         1 RES1   0.0000
   172 H87      -0.3926   -6.9776    5.7405   H         1 RES1   0.0000
   173 H88      -1.8388   -6.2552    8.3345   H         1 RES1   0.0000
   174 H89      -2.5912   -6.2664    6.7431   H         1 RES1   0.0000
   175 H90      -2.0139   -3.9920    7.2434   H         1 RES1   0.0000
   176 H91      -0.9227   -4.5698    5.9740   H         1 RES1   0.0000
   177 H92       0.8252   -4.9686    7.7526   H         1 RES1   0.0000
   178 H93      -0.3141   -4.3808    8.9594   H         1 RES1   0.0000
   179 H94       1.2226   -2.5964    8.4495   H         1 RES1   0.0000
   180 H95      -0.3463   -2.1518    7.7934   H         1 RES1   0.0000
   181 H96       0.3888   -2.9903    5.5426   H         1 RES1   0.0000
   182 H97       1.9464   -3.4253    6.2472   H         1 RES1   0.0000
   183 H98       2.5238   -1.1101    6.6262   H         1 RES1   0.0000
   184 H99       0.9080   -0.5600    6.2305   H         1 RES1   0.0000
   185 H100      2.9277   -1.8664    4.3320   H         1 RES1   0.0000
   186 H101      2.5275   -0.1521    4.3829   H         1 RES1   0.0000
   187 H102     -0.4140    0.2658    4.2830   H         1 RES1   0.0000
   188 H103     -0.8606   -1.2711    5.0344   H         1 RES1   0.0000
   189 H104     -2.5787   -1.9997    5.4919   H         1 RES1   0.0000
   190 H105     -4.2523   -2.1310    4.9646   H         1 RES1   0.0000
   191 H106     -3.9247   -0.4108    6.6528   H         1 RES1   0.0000
   192 H107     -4.9146    0.6860    3.9868   H         1 RES1   0.0000
   193 H108     -5.3460    1.2635    5.5922   H         1 RES1   0.0000
   194 H109     -5.8451   -0.3397    5.0860   H         1 RES1   0.0000
   195 H110     -2.4880    1.1999    4.5040   H         1 RES1   0.0000
   196 H111     -1.7802    0.6666    6.0504   H         1 RES1   0.0000
   197 H112     -3.0908    1.8208    6.0311   H         1 RES1   0.0000
   198 H113     -3.6471   -1.3997    1.5775   H         1 RES1   0.0000
   199 H114     -4.9310   -1.2371    2.8052   H         1 RES1   0.0000
   200 H115     -5.0680   -3.2841    1.5652   H         1 RES1   0.0000
   201 H116     -2.2969   -4.0148    2.6087   H         1 RES1   0.0000
   202 H117     -2.6841   -3.5478    0.9482   H         1 RES1   0.0000
   203 H118     -3.3340   -5.0432    1.6261   H         1 RES1   0.0000
   204 H119     -4.1532   -4.1455    4.3349   H         1 RES1   0.0000
   205 H120     -5.2643   -4.9576    3.2496   H         1 RES1   0.0000
   206 H121     -5.7448   -3.4338    3.9723   H         1 RES1   0.0000
   207 H122      2.0410   -3.9970    4.2138   H         1 RES1   0.0000
   208 H123      2.0336   -6.2361    3.2539   H         1 RES1   0.0000
   209 H124      0.7214   -6.7107    1.2204   H         1 RES1   0.0000
   210 H125     -0.5396   -4.9112    0.1229   H         1 RES1   0.0000
   211 H126     -0.4531   -2.5938    1.0157   H         1 RES1   0.0000
   212 C73       3.1536    3.7134   -6.6744   C.3       1 RES1   0.0000
   213 C74       3.2352    2.4894   -7.5779   C.3       1 RES1   0.0000
   214 C75       2.6462    1.2486   -6.9098   C.3       1 RES1   0.0000
   215 C76       2.6979    0.0265   -7.8258   C.3       1 RES1   0.0000
   216 C77       2.0208   -1.2046   -7.2218   C.3       1 RES1   0.0000
   217 C78       2.8562   -1.8099   -6.0935   C.3       1 RES1   0.0000
   218 C79       2.1323   -2.9388   -5.3542   C.3       1 RES1   0.0000
   219 C80       1.1426   -2.3935   -4.3296   C.3       1 RES1   0.0000
   220 P4        1.7255   -1.7972   -2.6941   P.3       1 RES1   0.0000
   221 O7        0.6291   -0.9491   -2.1233   O.2       1 RES1   0.0000
   222 C81       1.9807   -3.2621   -1.5960   C.3       1 RES1   0.0000
   223 C82       2.5983   -2.6158   -0.3794   C.2       1 RES1   0.0000
   224 O8        2.1650   -1.4901   -0.0737   O.2       1 RES1   0.0000
   225 N4        3.5636   -3.2147    0.3140   N.am      1 RES1   0.0000
   226 C83       4.1685   -4.4885   -0.0573   C.3       1 RES1   0.0000
   227 C84       5.0491   -4.4822   -1.3240   C.3       1 RES1   0.0000
   228 C85       5.3184   -5.9283   -1.7386   C.3       1 RES1   0.0000
   229 C86       6.3524   -3.7151   -1.1300   C.3       1 RES1   0.0000
   230 C87       3.9289   -2.6407    1.6046   C.3       1 RES1   0.0000
   231 C88       5.3091   -1.9774    1.6718   C.3       1 RES1   0.0000
   232 C89       5.6434   -1.6812    3.1315   C.3       1 RES1   0.0000
   233 C90       5.3299   -0.6903    0.8546   C.3       1 RES1   0.0000
   234 C91       3.3346   -0.9490   -2.7127   C.ar      1 RES1   0.0000
   235 C92       4.4981   -1.4525   -3.2888   C.ar      1 RES1   0.0000
   236 C93       5.6675   -0.7190   -3.2302   C.ar      1 RES1   0.0000
   237 C94       5.6897    0.5093   -2.5882   C.ar      1 RES1   0.0000
   238 C95       4.5404    1.0019   -1.9927   C.ar      1 RES1   0.0000
   239 C96       3.3656    0.2756   -2.0548   C.ar      1 RES1   0.0000
   240 H127      3.5665    4.5814   -7.1793   H         1 RES1   0.0000
   241 H128      3.7092    3.5495   -5.7531   H         1 RES1   0.0000
   242 H129      2.1202    3.9287   -6.4132   H         1 RES1   0.0000
   243 H130      4.2772    2.2951   -7.8357   H         1 RES1   0.0000
   244 H131      2.6994    2.6856   -8.5085   H         1 RES1   0.0000
   245 H132      1.6033    1.4456   -6.6397   H         1 RES1   0.0000
   246 H133      3.1918    1.0547   -5.9815   H         1 RES1   0.0000
   247 H134      3.7379   -0.2136   -8.0505   H         1 RES1   0.0000
   248 H135      2.2103    0.2808   -8.7688   H         1 RES1   0.0000
   249 H136      1.8848   -1.9536   -8.0029   H         1 RES1   0.0000
   250 H137      1.0278   -0.9246   -6.8599   H         1 RES1   0.0000
   251 H138      3.1110   -1.0236   -5.3817   H         1 RES1   0.0000
   252 H139      3.7841   -2.1808   -6.5335   H         1 RES1   0.0000
   253 H140      2.8498   -3.6224   -4.8958   H         1 RES1   0.0000
   254 H141      1.5679   -3.5156   -6.0894   H         1 RES1   0.0000
   255 H142      0.3821   -3.1426   -4.0866   H         1 RES1   0.0000
   256 H143      0.6408   -1.5229   -4.7597   H         1 RES1   0.0000
   257 H144      2.5532   -4.0532   -2.0550   H         1 RES1   0.0000
   258 H145      0.9977   -3.6457   -1.3103   H         1 RES1   0.0000
   259 H146      3.3756   -5.2334   -0.1789   H         1 RES1   0.0000
   260 H147      4.7952   -4.8056    0.7770   H         1 RES1   0.0000
   261 H148      4.5140   -3.9899   -2.1367   H         1 RES1   0.0000
   262 H149      5.8422   -6.4643   -0.9534   H         1 RES1   0.0000
   263 H150      5.9317   -5.9606   -2.6350   H         1 RES1   0.0000
   264 H151      4.3903   -6.4563   -1.9461   H         1 RES1   0.0000
   265 H152      6.9301   -4.1226   -0.3046   H         1 RES1   0.0000
   266 H153      6.1583   -2.6618   -0.9471   H         1 RES1   0.0000
   267 H154      6.9605   -3.7852   -2.0280   H         1 RES1   0.0000
   268 H155      3.8663   -3.4341    2.3598   H         1 RES1   0.0000
   269 H156      3.1786   -1.8775    1.8257   H         1 RES1   0.0000
   270 H157      6.0570   -2.6690    1.2808   H         1 RES1   0.0000
   271 H158      4.9563   -0.9424    3.5388   H         1 RES1   0.0000
   272 H159      6.6531   -1.2895    3.2133   H         1 RES1   0.0000
   273 H160      5.5811   -2.5867    3.7301   H         1 RES1   0.0000
   274 H161      4.6202    0.0267    1.2624   H         1 RES1   0.0000
   275 H162      5.0561   -0.8753   -0.1802   H         1 RES1   0.0000
   276 H163      6.3216   -0.2458    0.8686   H         1 RES1   0.0000
   277 H164      4.5070   -2.4009   -3.8010   H         1 RES1   0.0000
   278 H165      6.5675   -1.1025   -3.6794   H         1 RES1   0.0000
   279 H166      6.6017    1.0768   -2.5363   H         1 RES1   0.0000
   280 H167      4.5729    1.9430   -1.4659   H         1 RES1   0.0000
   281 H168      2.4549    0.6287   -1.5676   H         1 RES1   0.0000
@<TRIPOS>BOND
     1     1    11    1
     2     1    14    1
     3     1    81    1
     4     1    84    1
     5     1   151    1
     6     1   154    1
     7     1   221    1
     8     1   224    1
     9     2     3    1
    10     2    30    1
    11     2    31    1
    12     2    32    1
    13     3     4    1
    14     3    33    1
    15     3    34    1
    16     4     5    1
    17     4    35    1
    18     4    36    1
    19     5     6    1
    20     5    37    1
    21     5    38    1
    22     6     7    1
    23     6    39    1
    24     6    40    1
    25     7     8    1
    26     7    41    1
    27     7    42    1
    28     8     9    1
    29     8    43    1
    30     8    44    1
    31     9    10    1
    32     9    45    1
    33     9    46    1
    34    10    11    2
    35    10    12    1
    36    10    24    1
    37    12    13    1
    38    12    47    1
    39    12    48    1
    40    13    14    2
    41    13    15    1
    42    15    16    1
    43    15    20    1
    44    16    17    1
    45    16    49    1
    46    16    50    1
    47    17    18    1
    48    17    19    1
    49    17    51    1
    50    18    52    1
    51    18    53    1
    52    18    54    1
    53    19    55    1
    54    19    56    1
    55    19    57    1
    56    20    21    1
    57    20    58    1
    58    20    59    1
    59    21    22    1
    60    21    23    1
    61    21    60    1
    62    22    61    1
    63    22    62    1
    64    22    63    1
    65    23    64    1
    66    23    65    1
    67    23    66    1
    68    24    25    1
    69    24    29    2
    70    25    26    2
    71    25    67    1
    72    26    27    1
    73    26    68    1
    74    27    28    2
    75    27    69    1
    76    28    29    1
    77    28    70    1
    78    29    71    1
    79    72    73    1
    80    72   100    1
    81    72   101    1
    82    72   102    1
    83    73    74    1
    84    73   103    1
    85    73   104    1
    86    74    75    1
    87    74   105    1
    88    74   106    1
    89    75    76    1
    90    75   107    1
    91    75   108    1
    92    76    77    1
    93    76   109    1
    94    76   110    1
    95    77    78    1
    96    77   111    1
    97    77   112    1
    98    78    79    1
    99    78   113    1
   100    78   114    1
   101    79    80    1
   102    79   115    1
   103    79   116    1
   104    80    81    2
   105    80    82    1
   106    80    94    1
   107    82    83    1
   108    82   117    1
   109    82   118    1
   110    83    84    2
   111    83    85    1
   112    85    86    1
   113    85    90    1
   114    86    87    1
   115    86   119    1
   116    86   120    1
   117    87    88    1
   118    87    89    1
   119    87   121    1
   120    88   122    1
   121    88   123    1
   122    88   124    1
   123    89   125    1
   124    89   126    1
   125    89   127    1
   126    90    91    1
   127    90   128    1
   128    90   129    1
   129    91    92    1
   130    91    93    1
   131    91   130    1
   132    92   131    1
   133    92   132    1
   134    92   133    1
   135    93   134    1
   136    93   135    1
   137    93   136    1
   138    94    95    1
   139    94    99    2
   140    95    96    2
   141    95   137    1
   142    96    97    1
   143    96   138    1
   144    97    98    2
   145    97   139    1
   146    98    99    1
   147    98   140    1
   148    99   141    1
   149   142   143    1
   150   142   170    1
   151   142   171    1
   152   142   172    1
   153   143   144    1
   154   143   173    1
   155   143   174    1
   156   144   145    1
   157   144   175    1
   158   144   176    1
   159   145   146    1
   160   145   177    1
   161   145   178    1
   162   146   147    1
   163   146   179    1
   164   146   180    1
   165   147   148    1
   166   147   181    1
   167   147   182    1
   168   148   149    1
   169   148   183    1
   170   148   184    1
   171   149   150    1
   172   149   185    1
   173   149   186    1
   174   150   151    2
   175   150   152    1
   176   150   164    1
   177   152   153    1
   178   152   187    1
   179   152   188    1
   180   153   154    2
   181   153   155    1
   182   155   156    1
   183   155   160    1
   184   156   157    1
   185   156   189    1
   186   156   190    1
   187   157   158    1
   188   157   159    1
   189   157   191    1
   190   158   192    1
   191   158   193    1
   192   158   194    1
   193   159   195    1
   194   159   196    1
   195   159   197    1
   196   160   161    1
   197   160   198    1
   198   160   199    1
   199   161   162    1
   200   161   163    1
   201   161   200    1
   202   162   201    1
   203   162   202    1
   204   162   203    1
   205   163   204    1
   206   163   205    1
   207   163   206    1
   208   164   165    1
   209   164   169    2
   210   165   166    2
   211   165   207    1
   212   166   167    1
   213   166   208    1
   214   167   168    2
   215   167   209    1
   216   168   169    1
   217   168   210    1
   218   169   211    1
   219   212   213    1
   220   212   240    1
   221   212   241    1
   222   212   242    1
   223   213   214    1
   224   213   243    1
   225   213   244    1
   226   214   215    1
   227   214   245    1
   228   214   246    1
   229   215   216    1
   230   215   247    1
   231   215   248    1
   232   216   217    1
   233   216   249    1
   234   216   250    1
   235   217   218    1
   236   217   251    1
   237   217   252    1
   238   218   219    1
   239   218   253    1
   240   218   254    1
   241   219   220    1
   242   219   255    1
   243   219   256    1
   244   220   221    2
   245   220   222    1
   246   220   234    1
   247   222   223    1
   248   222   257    1
   249   222   258    1
   250   223   224    2
   251   223   225    1
   252   225   226    1
   253   225   230    1
   254   226   227    1
   255   226   259    1
   256   226   260    1
   257   227   228    1
   258   227   229    1
   259   227   261    1
   260   228   262    1
   261   228   263    1
   262   228   264    1
   263   229   265    1
   264   229   266    1
   265   229   267    1
   266   230   231    1
   267   230   268    1
   268   230   269    1
   269   231   232    1
   270   231   233    1
   271   231   270    1
   272   232   271    1
   273   232   272    1
   274   232   273    1
   275   233   274    1
   276   233   275    1
   277   233   276    1
   278   234   235    1
   279   234   239    2
   280   235   236    2
   281   235   277    1
   282   236   237    1
   283   236   278    1
   284   237   238    2
   285   237   279    1
   286   238   239    1
   287   238   280    1
   288   239   281    1
@<TRIPOS>SUBSTRUCTURE
     1 RES1      281 GROUP             0 ****  ****    0  
