@<TRIPOS>MOLECULE
ICIGOT_geomtry_0_nunpairedes_0_charge_3 Charge: 3 Unpaired_Electrons: 6 XTB_Unpaired_Electrons: 0 XTB_Charge: 3
   269   272     1     0     0
SMALL
NoCharges
****
Generated from Architector

@<TRIPOS>ATOM
     1 Tb1      -0.1882    0.0616   -0.3677   Tb        1 RES1   0.0000
     2 C1        3.1808   -3.4398   -6.5368   C.3       1 RES1   0.0000
     3 C2        3.2160   -2.2211   -5.6211   C.3       1 RES1   0.0000
     4 C3        1.9256   -2.0171   -4.8185   C.3       1 RES1   0.0000
     5 C4        0.7255   -1.6686   -5.7004   C.3       1 RES1   0.0000
     6 C5       -0.4752   -1.1328   -4.9170   C.3       1 RES1   0.0000
     7 C6       -1.0776   -2.1565   -3.9467   C.3       1 RES1   0.0000
     8 C7       -2.5803   -1.9419   -3.7727   C.3       1 RES1   0.0000
     9 C8       -3.2867   -3.0376   -2.9778   C.3       1 RES1   0.0000
    10 N1       -3.2117   -3.0623   -1.5092   N.am      1 RES1   0.0000
    11 C9       -3.9573   -4.1797   -0.9471   C.3       1 RES1   0.0000
    12 C10      -2.5910   -2.1797   -0.7322   C.2       1 RES1   0.0000
    13 O1       -1.9778   -1.1863   -1.1517   O.2       1 RES1   0.0000
    14 C11      -2.6412   -2.4910    0.7768   C.3       1 RES1   0.0000
    15 C12      -2.4942   -1.2651    1.6750   C.2       1 RES1   0.0000
    16 O2       -2.1026   -0.1680    1.2448   O.2       1 RES1   0.0000
    17 N2       -2.8765   -1.4227    2.9494   N.am      1 RES1   0.0000
    18 C13      -3.0629   -2.7197    3.5702   C.3       1 RES1   0.0000
    19 C14      -2.9718   -0.2391    3.8060   C.3       1 RES1   0.0000
    20 C15      -4.0973   -0.2703    4.8447   C.3       1 RES1   0.0000
    21 C16      -5.5216   -0.3939    4.2967   C.3       1 RES1   0.0000
    22 C17      -5.9405    0.7578    3.3800   C.3       1 RES1   0.0000
    23 C18      -7.4482    1.0226    3.4080   C.3       1 RES1   0.0000
    24 C19      -8.3505   -0.1376    2.9920   C.3       1 RES1   0.0000
    25 C20      -8.2598   -0.4986    1.5112   C.3       1 RES1   0.0000
    26 C21      -9.2932   -1.5570    1.1376   C.3       1 RES1   0.0000
    27 H1        4.1287   -3.5347   -7.0592   H         1 RES1   0.0000
    28 H2        2.3945   -3.3488   -7.2798   H         1 RES1   0.0000
    29 H3        3.0179   -4.3512   -5.9664   H         1 RES1   0.0000
    30 H4        3.4105   -1.3320   -6.2253   H         1 RES1   0.0000
    31 H5        4.0515   -2.3317   -4.9221   H         1 RES1   0.0000
    32 H6        2.0752   -1.2079   -4.0924   H         1 RES1   0.0000
    33 H7        1.7140   -2.9286   -4.2547   H         1 RES1   0.0000
    34 H8        0.4127   -2.5584   -6.2501   H         1 RES1   0.0000
    35 H9        1.0308   -0.9172   -6.4346   H         1 RES1   0.0000
    36 H10      -1.2310   -0.8392   -5.6449   H         1 RES1   0.0000
    37 H11      -0.1980   -0.2335   -4.3620   H         1 RES1   0.0000
    38 H12      -0.5773   -2.0586   -2.9783   H         1 RES1   0.0000
    39 H13      -0.9051   -3.1616   -4.3370   H         1 RES1   0.0000
    40 H14      -3.0412   -1.9554   -4.7648   H         1 RES1   0.0000
    41 H15      -2.7568   -0.9607   -3.3390   H         1 RES1   0.0000
    42 H16      -2.9021   -4.0064   -3.3133   H         1 RES1   0.0000
    43 H17      -4.3522   -3.0067   -3.2255   H         1 RES1   0.0000
    44 H18      -4.3500   -4.7826   -1.7610   H         1 RES1   0.0000
    45 H19      -4.8089   -3.8347   -0.3569   H         1 RES1   0.0000
    46 H20      -3.3178   -4.8074   -0.3272   H         1 RES1   0.0000
    47 H21      -1.8393   -3.2110    0.9710   H         1 RES1   0.0000
    48 H22      -3.5867   -2.9622    1.0340   H         1 RES1   0.0000
    49 H23      -2.3640   -3.4480    3.1648   H         1 RES1   0.0000
    50 H24      -4.0782   -3.0977    3.4363   H         1 RES1   0.0000
    51 H25      -2.8672   -2.6330    4.6370   H         1 RES1   0.0000
    52 H26      -3.1324    0.6033    3.1280   H         1 RES1   0.0000
    53 H27      -2.0143   -0.1042    4.3271   H         1 RES1   0.0000
    54 H28      -4.0294    0.6680    5.3980   H         1 RES1   0.0000
    55 H29      -3.9190   -1.0614    5.5749   H         1 RES1   0.0000
    56 H30      -6.1867   -0.4113    5.1612   H         1 RES1   0.0000
    57 H31      -5.6443   -1.3412    3.7751   H         1 RES1   0.0000
    58 H32      -5.6080    0.5716    2.3579   H         1 RES1   0.0000
    59 H33      -5.4562    1.6745    3.7204   H         1 RES1   0.0000
    60 H34      -7.6701    1.8800    2.7696   H         1 RES1   0.0000
    61 H35      -7.7165    1.3067    4.4247   H         1 RES1   0.0000
    62 H36      -9.3821    0.1530    3.2001   H         1 RES1   0.0000
    63 H37      -8.1386   -1.0204    3.5973   H         1 RES1   0.0000
    64 H38      -7.2564   -0.8665    1.2732   H         1 RES1   0.0000
    65 H39      -8.4340    0.3977    0.9111   H         1 RES1   0.0000
    66 H40      -9.0923   -2.4924    1.6571   H         1 RES1   0.0000
    67 H41      -9.2948   -1.7449    0.0658   H         1 RES1   0.0000
    68 H42     -10.2903   -1.2255    1.4148   H         1 RES1   0.0000
    69 C22      -3.0396    6.5741    2.9183   C.3       1 RES1   0.0000
    70 C23      -3.3913    7.1653    1.5554   C.3       1 RES1   0.0000
    71 C24      -2.1749    7.5838    0.7281   C.3       1 RES1   0.0000
    72 C25      -1.2726    6.4324    0.2634   C.3       1 RES1   0.0000
    73 C26      -1.4793    6.0186   -1.1936   C.3       1 RES1   0.0000
    74 C27      -0.4952    4.9086   -1.5771   C.3       1 RES1   0.0000
    75 C28      -0.6400    4.4357   -3.0277   C.3       1 RES1   0.0000
    76 C29      -0.1314    3.0171   -3.3232   C.3       1 RES1   0.0000
    77 N3        1.2794    2.7474   -3.0245   N.am      1 RES1   0.0000
    78 C30       2.1997    3.7183   -3.5813   C.3       1 RES1   0.0000
    79 C31       1.6013    1.5562   -2.5125   C.2       1 RES1   0.0000
    80 O3        0.7260    0.6960   -2.2769   O.2       1 RES1   0.0000
    81 C32       3.0657    1.1703   -2.3084   C.3       1 RES1   0.0000
    82 C33       3.2802    0.2127   -1.1301   C.2       1 RES1   0.0000
    83 O4        2.3657   -0.1128   -0.3624   O.2       1 RES1   0.0000
    84 N4        4.5362   -0.2175   -0.9540   N.am      1 RES1   0.0000
    85 C34       5.5935   -0.0554   -1.9346   C.3       1 RES1   0.0000
    86 C35       4.8946   -0.9842    0.2352   C.3       1 RES1   0.0000
    87 C36       5.0587   -2.4817   -0.0551   C.3       1 RES1   0.0000
    88 C37       5.9133   -3.2124    0.9875   C.3       1 RES1   0.0000
    89 C38       5.1981   -3.4511    2.3291   C.3       1 RES1   0.0000
    90 C39       5.1244   -4.9454    2.6632   C.3       1 RES1   0.0000
    91 C40       4.1047   -5.2883    3.7482   C.3       1 RES1   0.0000
    92 C41       3.9889   -6.7987    3.9658   C.3       1 RES1   0.0000
    93 C42       3.1820   -7.4868    2.8721   C.3       1 RES1   0.0000
    94 H43      -3.9368    6.4697    3.5236   H         1 RES1   0.0000
    95 H44      -2.3488    7.2261    3.4471   H         1 RES1   0.0000
    96 H45      -2.5783    5.5902    2.8296   H         1 RES1   0.0000
    97 H46      -4.0021    8.0531    1.7237   H         1 RES1   0.0000
    98 H47      -3.9999    6.4592    0.9851   H         1 RES1   0.0000
    99 H48      -1.5903    8.2817    1.3293   H         1 RES1   0.0000
   100 H49      -2.5241    8.1286   -0.1487   H         1 RES1   0.0000
   101 H50      -1.4280    5.5606    0.8985   H         1 RES1   0.0000
   102 H51      -0.2322    6.7392    0.3755   H         1 RES1   0.0000
   103 H52      -1.3261    6.8858   -1.8367   H         1 RES1   0.0000
   104 H53      -2.5071    5.6840   -1.3405   H         1 RES1   0.0000
   105 H54      -0.6353    4.0628   -0.9025   H         1 RES1   0.0000
   106 H55       0.5103    5.2965   -1.4132   H         1 RES1   0.0000
   107 H56      -0.1785    5.1624   -3.6980   H         1 RES1   0.0000
   108 H57      -1.7034    4.4116   -3.2806   H         1 RES1   0.0000
   109 H58      -0.2791    2.8227   -4.3910   H         1 RES1   0.0000
   110 H59      -0.7174    2.2935   -2.7536   H         1 RES1   0.0000
   111 H60       2.2349    4.6152   -2.9609   H         1 RES1   0.0000
   112 H61       1.8409    4.0097   -4.5713   H         1 RES1   0.0000
   113 H62       3.2044    3.3173   -3.6882   H         1 RES1   0.0000
   114 H63       3.7098    2.0362   -2.1641   H         1 RES1   0.0000
   115 H64       3.3782    0.6538   -3.2210   H         1 RES1   0.0000
   116 H65       5.3144   -0.5002   -2.8906   H         1 RES1   0.0000
   117 H66       6.4852   -0.5669   -1.5803   H         1 RES1   0.0000
   118 H67       5.8545    0.9901   -2.0948   H         1 RES1   0.0000
   119 H68       4.1202   -0.8140    0.9853   H         1 RES1   0.0000
   120 H69       5.8388   -0.5872    0.6178   H         1 RES1   0.0000
   121 H70       5.5450   -2.5971   -1.0255   H         1 RES1   0.0000
   122 H71       4.0713   -2.9424   -0.1252   H         1 RES1   0.0000
   123 H72       6.8431   -2.6644    1.1404   H         1 RES1   0.0000
   124 H73       6.1965   -4.1786    0.5666   H         1 RES1   0.0000
   125 H74       4.1866   -3.0350    2.2738   H         1 RES1   0.0000
   126 H75       5.7104   -2.9267    3.1378   H         1 RES1   0.0000
   127 H76       6.1096   -5.2855    2.9798   H         1 RES1   0.0000
   128 H77       4.8831   -5.5130    1.7616   H         1 RES1   0.0000
   129 H78       3.1185   -4.8962    3.4729   H         1 RES1   0.0000
   130 H79       4.3914   -4.8043    4.6830   H         1 RES1   0.0000
   131 H80       3.5079   -6.9884    4.9247   H         1 RES1   0.0000
   132 H81       4.9869   -7.2307    4.0093   H         1 RES1   0.0000
   133 H82       2.1641   -7.1003    2.8534   H         1 RES1   0.0000
   134 H83       3.1352   -8.5560    3.0535   H         1 RES1   0.0000
   135 H84       3.6314   -7.3390    1.8941   H         1 RES1   0.0000
   136 C43      -7.8228   -4.2786   -1.4879   C.3       1 RES1   0.0000
   137 C44      -7.7703   -3.1867   -2.5490   C.3       1 RES1   0.0000
   138 C45      -6.9853   -1.9543   -2.0962   C.3       1 RES1   0.0000
   139 C46      -7.0497   -0.8262   -3.1356   C.3       1 RES1   0.0000
   140 C47      -5.7762    0.0192   -3.1916   C.3       1 RES1   0.0000
   141 C48      -5.5283    0.8940   -1.9589   C.3       1 RES1   0.0000
   142 C49      -4.1052    1.4631   -2.0038   C.3       1 RES1   0.0000
   143 C50      -3.9119    2.8038   -1.2793   C.3       1 RES1   0.0000
   144 N5       -3.3866    2.7395    0.0862   N.am      1 RES1   0.0000
   145 C51      -4.2386    3.2179    1.1503   C.3       1 RES1   0.0000
   146 C52      -2.1087    2.3905    0.2067   C.2       1 RES1   0.0000
   147 O5       -1.5097    1.8690   -0.7516   O.2       1 RES1   0.0000
   148 C53      -1.3642    2.7409    1.5034   C.3       1 RES1   0.0000
   149 C54       0.1424    2.8303    1.2431   C.2       1 RES1   0.0000
   150 O6        0.6733    1.9765    0.5100   O.2       1 RES1   0.0000
   151 N6        0.8912    3.7822    1.8034   N.am      1 RES1   0.0000
   152 C55       0.4713    4.7464    2.7965   C.3       1 RES1   0.0000
   153 C56       2.3308    3.7356    1.5364   C.3       1 RES1   0.0000
   154 C57       2.7805    4.5697    0.3315   C.3       1 RES1   0.0000
   155 C58       2.7589    6.0778    0.5772   C.3       1 RES1   0.0000
   156 C59       3.2657    6.8831   -0.6197   C.3       1 RES1   0.0000
   157 C60       3.4639    8.3683   -0.2973   C.3       1 RES1   0.0000
   158 C61       2.1994    9.1471    0.0782   C.3       1 RES1   0.0000
   159 C62       1.1525    9.2144   -1.0328   C.3       1 RES1   0.0000
   160 C63       0.0101   10.1549   -0.6690   C.3       1 RES1   0.0000
   161 H85      -8.4281   -5.1083   -1.8377   H         1 RES1   0.0000
   162 H86      -8.2646   -3.8991   -0.5713   H         1 RES1   0.0000
   163 H87      -6.8309   -4.6625   -1.2573   H         1 RES1   0.0000
   164 H88      -8.7870   -2.8822   -2.7999   H         1 RES1   0.0000
   165 H89      -7.3167   -3.5876   -3.4587   H         1 RES1   0.0000
   166 H90      -5.9404   -2.2319   -1.9302   H         1 RES1   0.0000
   167 H91      -7.3799   -1.6099   -1.1386   H         1 RES1   0.0000
   168 H92      -7.9130   -0.1909   -2.9365   H         1 RES1   0.0000
   169 H93      -7.1970   -1.2653   -4.1256   H         1 RES1   0.0000
   170 H94      -5.8188    0.6612   -4.0743   H         1 RES1   0.0000
   171 H95      -4.9250   -0.6490   -3.3264   H         1 RES1   0.0000
   172 H96      -5.6848    0.3076   -1.0514   H         1 RES1   0.0000
   173 H97      -6.2550    1.7071   -1.9630   H         1 RES1   0.0000
   174 H98      -3.8453    1.6256   -3.0530   H         1 RES1   0.0000
   175 H99      -3.3989    0.7264   -1.6147   H         1 RES1   0.0000
   176 H100     -4.8554    3.3467   -1.2448   H         1 RES1   0.0000
   177 H101     -3.1905    3.3961   -1.8523   H         1 RES1   0.0000
   178 H102     -3.9093    2.8604    2.1226   H         1 RES1   0.0000
   179 H103     -5.2511    2.8593    0.9819   H         1 RES1   0.0000
   180 H104     -4.2725    4.3080    1.1700   H         1 RES1   0.0000
   181 H105     -1.5247    1.9292    2.2199   H         1 RES1   0.0000
   182 H106     -1.7789    3.6621    1.9006   H         1 RES1   0.0000
   183 H107     -0.5469    4.5693    3.1206   H         1 RES1   0.0000
   184 H108      0.5442    5.7659    2.4190   H         1 RES1   0.0000
   185 H109      1.1219    4.6682    3.6662   H         1 RES1   0.0000
   186 H110      2.5776    2.6895    1.3309   H         1 RES1   0.0000
   187 H111      2.8532    4.0699    2.4339   H         1 RES1   0.0000
   188 H112      2.1433    4.3030   -0.5124   H         1 RES1   0.0000
   189 H113      3.8051    4.2811    0.0816   H         1 RES1   0.0000
   190 H114      3.3847    6.3073    1.4412   H         1 RES1   0.0000
   191 H115      1.7435    6.3979    0.7996   H         1 RES1   0.0000
   192 H116      2.5735    6.7799   -1.4577   H         1 RES1   0.0000
   193 H117      4.2296    6.4822   -0.9388   H         1 RES1   0.0000
   194 H118      3.9196    8.8510   -1.1652   H         1 RES1   0.0000
   195 H119      4.1752    8.4478    0.5284   H         1 RES1   0.0000
   196 H120      2.5077   10.1665    0.3172   H         1 RES1   0.0000
   197 H121      1.7480    8.7310    0.9836   H         1 RES1   0.0000
   198 H122      0.7497    8.2181   -1.2284   H         1 RES1   0.0000
   199 H123      1.6284    9.5648   -1.9500   H         1 RES1   0.0000
   200 H124     -0.4257    9.8859    0.2895   H         1 RES1   0.0000
   201 H125     -0.7707   10.1198   -1.4241   H         1 RES1   0.0000
   202 H126      0.3666   11.1774   -0.5962   H         1 RES1   0.0000
   203 C64       2.8604    6.7353    5.2306   C.3       1 RES1   0.0000
   204 C65       2.4895    5.4085    5.8821   C.3       1 RES1   0.0000
   205 C66       1.0259    5.3950    6.3243   C.3       1 RES1   0.0000
   206 C67       0.5400    4.0882    6.9655   C.3       1 RES1   0.0000
   207 C68       0.1286    2.9566    6.0091   C.3       1 RES1   0.0000
   208 C69       1.2908    2.1830    5.3785   C.3       1 RES1   0.0000
   209 C70       0.8352    0.8985    4.6759   C.3       1 RES1   0.0000
   210 C71       1.9630    0.2861    3.8370   C.3       1 RES1   0.0000
   211 N7        1.7494   -1.1207    3.5066   N.am      1 RES1   0.0000
   212 C72       2.2282   -2.0481    4.5079   C.3       1 RES1   0.0000
   213 C73       1.0918   -1.4226    2.3848   C.2       1 RES1   0.0000
   214 O7        0.4992   -0.5354    1.7509   O.2       1 RES1   0.0000
   215 C74       1.0822   -2.8829    1.9128   C.3       1 RES1   0.0000
   216 C75       1.0011   -2.9881    0.3833   C.2       1 RES1   0.0000
   217 O8        0.3741   -2.1324   -0.2689   O.2       1 RES1   0.0000
   218 N8        1.5795   -4.0246   -0.2173   N.am      1 RES1   0.0000
   219 C76       2.2153   -5.1210    0.4777   C.3       1 RES1   0.0000
   220 C77       1.6870   -4.0223   -1.6753   C.3       1 RES1   0.0000
   221 C78       1.2045   -5.2754   -2.4110   C.3       1 RES1   0.0000
   222 C79      -0.2461   -5.7006   -2.1755   C.3       1 RES1   0.0000
   223 C80      -0.4907   -6.4123   -0.8433   C.3       1 RES1   0.0000
   224 C81      -1.6994   -7.3457   -0.9052   C.3       1 RES1   0.0000
   225 C82      -1.9946   -8.0314    0.4302   C.3       1 RES1   0.0000
   226 C83      -2.5482   -7.0999    1.5081   C.3       1 RES1   0.0000
   227 C84      -2.8283   -7.8568    2.8019   C.3       1 RES1   0.0000
   228 H127      3.9202    6.7611    4.9975   H         1 RES1   0.0000
   229 H128      2.6385    7.5583    5.9024   H         1 RES1   0.0000
   230 H129      2.3041    6.8983    4.3098   H         1 RES1   0.0000
   231 H130      3.1193    5.2500    6.7580   H         1 RES1   0.0000
   232 H131      2.7010    4.5909    5.1891   H         1 RES1   0.0000
   233 H132      0.3736    5.6574    5.4871   H         1 RES1   0.0000
   234 H133      0.9097    6.1884    7.0650   H         1 RES1   0.0000
   235 H134     -0.3458    4.3335    7.5562   H         1 RES1   0.0000
   236 H135      1.2980    3.7179    7.6587   H         1 RES1   0.0000
   237 H136     -0.5177    3.3610    5.2255   H         1 RES1   0.0000
   238 H137     -0.4725    2.2479    6.5844   H         1 RES1   0.0000
   239 H138      2.0024    1.9258    6.1647   H         1 RES1   0.0000
   240 H139      1.8122    2.8074    4.6542   H         1 RES1   0.0000
   241 H140     -0.0125    1.1099    4.0201   H         1 RES1   0.0000
   242 H141      0.5036    0.1804    5.4289   H         1 RES1   0.0000
   243 H142      2.9047    0.3437    4.3868   H         1 RES1   0.0000
   244 H143      2.0628    0.8417    2.9010   H         1 RES1   0.0000
   245 H144      2.0418   -1.6086    5.4863   H         1 RES1   0.0000
   246 H145      3.3009   -2.2288    4.4181   H         1 RES1   0.0000
   247 H146      1.6970   -2.9909    4.4666   H         1 RES1   0.0000
   248 H147      0.1946   -3.3664    2.3320   H         1 RES1   0.0000
   249 H148      1.9663   -3.3972    2.2820   H         1 RES1   0.0000
   250 H149      3.1434   -4.8174    0.9593   H         1 RES1   0.0000
   251 H150      2.4437   -5.8865   -0.2573   H         1 RES1   0.0000
   252 H151      1.5455   -5.5554    1.2181   H         1 RES1   0.0000
   253 H152      2.7445   -3.8719   -1.9269   H         1 RES1   0.0000
   254 H153      1.1206   -3.1591   -2.0316   H         1 RES1   0.0000
   255 H154      1.8521   -6.1320   -2.2186   H         1 RES1   0.0000
   256 H155      1.3262   -5.0372   -3.4699   H         1 RES1   0.0000
   257 H156     -0.5081   -6.3879   -2.9825   H         1 RES1   0.0000
   258 H157     -0.9032   -4.8331   -2.2501   H         1 RES1   0.0000
   259 H158     -0.6302   -5.6721   -0.0523   H         1 RES1   0.0000
   260 H159      0.3765   -7.0176   -0.5813   H         1 RES1   0.0000
   261 H160     -1.4922   -8.1203   -1.6441   H         1 RES1   0.0000
   262 H161     -2.5808   -6.7997   -1.2473   H         1 RES1   0.0000
   263 H162     -1.0814   -8.5009    0.8024   H         1 RES1   0.0000
   264 H163     -2.7244   -8.8242    0.2611   H         1 RES1   0.0000
   265 H164     -3.4771   -6.6439    1.1523   H         1 RES1   0.0000
   266 H165     -1.8306   -6.2976    1.7143   H         1 RES1   0.0000
   267 H166     -3.5648   -8.6366    2.6308   H         1 RES1   0.0000
   268 H167     -3.2129   -7.1888    3.5705   H         1 RES1   0.0000
   269 H168     -1.9211   -8.3274    3.1740   H         1 RES1   0.0000
@<TRIPOS>BOND
     1     1    13    1
     2     1    16    1
     3     1    80    1
     4     1    83    1
     5     1   147    1
     6     1   150    1
     7     1   214    1
     8     1   217    1
     9     2     3    1
    10     2    27    1
    11     2    28    1
    12     2    29    1
    13     3     4    1
    14     3    30    1
    15     3    31    1
    16     4     5    1
    17     4    32    1
    18     4    33    1
    19     5     6    1
    20     5    34    1
    21     5    35    1
    22     6     7    1
    23     6    36    1
    24     6    37    1
    25     7     8    1
    26     7    38    1
    27     7    39    1
    28     8     9    1
    29     8    40    1
    30     8    41    1
    31     9    10    1
    32     9    42    1
    33     9    43    1
    34    10    11    1
    35    10    12    1
    36    11    44    1
    37    11    45    1
    38    11    46    1
    39    12    13    2
    40    12    14    1
    41    14    15    1
    42    14    47    1
    43    14    48    1
    44    15    16    2
    45    15    17    1
    46    17    18    1
    47    17    19    1
    48    18    49    1
    49    18    50    1
    50    18    51    1
    51    19    20    1
    52    19    52    1
    53    19    53    1
    54    20    21    1
    55    20    54    1
    56    20    55    1
    57    21    22    1
    58    21    56    1
    59    21    57    1
    60    22    23    1
    61    22    58    1
    62    22    59    1
    63    23    24    1
    64    23    60    1
    65    23    61    1
    66    24    25    1
    67    24    62    1
    68    24    63    1
    69    25    26    1
    70    25    64    1
    71    25    65    1
    72    26    66    1
    73    26    67    1
    74    26    68    1
    75    69    70    1
    76    69    94    1
    77    69    95    1
    78    69    96    1
    79    70    71    1
    80    70    97    1
    81    70    98    1
    82    71    72    1
    83    71    99    1
    84    71   100    1
    85    72    73    1
    86    72   101    1
    87    72   102    1
    88    73    74    1
    89    73   103    1
    90    73   104    1
    91    74    75    1
    92    74   105    1
    93    74   106    1
    94    75    76    1
    95    75   107    1
    96    75   108    1
    97    76    77    1
    98    76   109    1
    99    76   110    1
   100    77    78    1
   101    77    79    1
   102    78   111    1
   103    78   112    1
   104    78   113    1
   105    79    80    2
   106    79    81    1
   107    81    82    1
   108    81   114    1
   109    81   115    1
   110    82    83    2
   111    82    84    1
   112    84    85    1
   113    84    86    1
   114    85   116    1
   115    85   117    1
   116    85   118    1
   117    86    87    1
   118    86   119    1
   119    86   120    1
   120    87    88    1
   121    87   121    1
   122    87   122    1
   123    88    89    1
   124    88   123    1
   125    88   124    1
   126    89    90    1
   127    89   125    1
   128    89   126    1
   129    90    91    1
   130    90   127    1
   131    90   128    1
   132    91    92    1
   133    91   129    1
   134    91   130    1
   135    92    93    1
   136    92   131    1
   137    92   132    1
   138    93   133    1
   139    93   134    1
   140    93   135    1
   141   136   137    1
   142   136   161    1
   143   136   162    1
   144   136   163    1
   145   137   138    1
   146   137   164    1
   147   137   165    1
   148   138   139    1
   149   138   166    1
   150   138   167    1
   151   139   140    1
   152   139   168    1
   153   139   169    1
   154   140   141    1
   155   140   170    1
   156   140   171    1
   157   141   142    1
   158   141   172    1
   159   141   173    1
   160   142   143    1
   161   142   174    1
   162   142   175    1
   163   143   144    1
   164   143   176    1
   165   143   177    1
   166   144   145    1
   167   144   146    1
   168   145   178    1
   169   145   179    1
   170   145   180    1
   171   146   147    2
   172   146   148    1
   173   148   149    1
   174   148   181    1
   175   148   182    1
   176   149   150    2
   177   149   151    1
   178   151   152    1
   179   151   153    1
   180   152   183    1
   181   152   184    1
   182   152   185    1
   183   153   154    1
   184   153   186    1
   185   153   187    1
   186   154   155    1
   187   154   188    1
   188   154   189    1
   189   155   156    1
   190   155   190    1
   191   155   191    1
   192   156   157    1
   193   156   192    1
   194   156   193    1
   195   157   158    1
   196   157   194    1
   197   157   195    1
   198   158   159    1
   199   158   196    1
   200   158   197    1
   201   159   160    1
   202   159   198    1
   203   159   199    1
   204   160   200    1
   205   160   201    1
   206   160   202    1
   207   203   204    1
   208   203   228    1
   209   203   229    1
   210   203   230    1
   211   204   205    1
   212   204   231    1
   213   204   232    1
   214   205   206    1
   215   205   233    1
   216   205   234    1
   217   206   207    1
   218   206   235    1
   219   206   236    1
   220   207   208    1
   221   207   237    1
   222   207   238    1
   223   208   209    1
   224   208   239    1
   225   208   240    1
   226   209   210    1
   227   209   241    1
   228   209   242    1
   229   210   211    1
   230   210   243    1
   231   210   244    1
   232   211   212    1
   233   211   213    1
   234   212   245    1
   235   212   246    1
   236   212   247    1
   237   213   214    2
   238   213   215    1
   239   215   216    1
   240   215   248    1
   241   215   249    1
   242   216   217    2
   243   216   218    1
   244   218   219    1
   245   218   220    1
   246   219   250    1
   247   219   251    1
   248   219   252    1
   249   220   221    1
   250   220   253    1
   251   220   254    1
   252   221   222    1
   253   221   255    1
   254   221   256    1
   255   222   223    1
   256   222   257    1
   257   222   258    1
   258   223   224    1
   259   223   259    1
   260   223   260    1
   261   224   225    1
   262   224   261    1
   263   224   262    1
   264   225   226    1
   265   225   263    1
   266   225   264    1
   267   226   227    1
   268   226   265    1
   269   226   266    1
   270   227   267    1
   271   227   268    1
   272   227   269    1
@<TRIPOS>SUBSTRUCTURE
     1 RES1      269 GROUP             0 ****  ****    0  
