@<TRIPOS>MOLECULE
bicapped_trigonal_prismatic_0_nunpairedes_0_charge_3 Charge: 3 Unpaired_Electrons: 6 XTB_Unpaired_Electrons: 0 XTB_Charge: 3
   253   264     1     0     0
SMALL
NoCharges
****
Generated from Architector

@<TRIPOS>ATOM
     1 Tb1       0.3668    0.1021   -0.1257   Tb        1 RES1   0.0000
     2 C1       -8.9415   -5.0431   -1.8187   C.3       1 RES1   0.0000
     3 C2       -8.3404   -3.6935   -2.2072   C.3       1 RES1   0.0000
     4 C3       -9.0495   -2.5604   -1.4590   C.3       1 RES1   0.0000
     5 C4       -8.7244   -1.1479   -1.9516   C.3       1 RES1   0.0000
     6 C5       -7.2405   -0.7591   -1.8385   C.3       1 RES1   0.0000
     7 C6       -6.8068    0.1248   -0.6536   C.3       1 RES1   0.0000
     8 C7       -5.3400    0.5224   -0.8564   C.3       1 RES1   0.0000
     9 C8       -4.5857    1.1666    0.3228   C.3       1 RES1   0.0000
    10 N1       -4.0185    0.1827    1.2630   N.am      1 RES1   0.0000
    11 C9       -4.6221    0.1210    2.5917   C.3       1 RES1   0.0000
    12 C10      -3.6152    0.5854    3.6498   C.3       1 RES1   0.0000
    13 C11      -4.2190    0.7556    5.0469   C.3       1 RES1   0.0000
    14 C12      -3.1794    0.6134    6.1626   C.3       1 RES1   0.0000
    15 C13      -2.6761   -0.8224    6.3741   C.3       1 RES1   0.0000
    16 C14      -2.6473   -1.2491    7.8473   C.3       1 RES1   0.0000
    17 C15      -1.7956   -0.3908    8.7842   C.3       1 RES1   0.0000
    18 C16      -0.3154   -0.3981    8.4279   C.3       1 RES1   0.0000
    19 C17      -2.8198   -0.3211    0.9373   C.2       1 RES1   0.0000
    20 O1       -2.2226    0.0960   -0.0851   O.2       1 RES1   0.0000
    21 C18      -2.1011   -1.4825    1.6083   C.ar      1 RES1   0.0000
    22 C19      -2.5882   -2.4217    2.5331   C.ar      1 RES1   0.0000
    23 C20      -1.8978   -3.6007    2.7217   C.ar      1 RES1   0.0000
    24 C21      -0.7173   -3.8663    2.0032   C.ar      1 RES1   0.0000
    25 C22      -0.0726   -5.1400    1.9674   C.ar      1 RES1   0.0000
    26 C23       1.0161   -5.3417    1.1804   C.ar      1 RES1   0.0000
    27 C24       1.6431   -4.2520    0.5085   C.ar      1 RES1   0.0000
    28 C25       2.8339   -4.3676   -0.2236   C.ar      1 RES1   0.0000
    29 C26       3.4127   -3.2623   -0.8065   C.ar      1 RES1   0.0000
    30 C27       2.8327   -1.9933   -0.6398   C.ar      1 RES1   0.0000
    31 C28       3.3420   -0.6221   -1.0792   C.2       1 RES1   0.0000
    32 O2        2.5388    0.3260   -0.8500   O.2       1 RES1   0.0000
    33 N2        4.5510   -0.3473   -1.5651   N.am      1 RES1   0.0000
    34 C29       4.8330    1.0798   -1.8083   C.3       1 RES1   0.0000
    35 C30       6.3000    1.4881   -1.6964   C.3       1 RES1   0.0000
    36 C31       6.4519    3.0139   -1.6916   C.3       1 RES1   0.0000
    37 C32       6.2984    3.5843   -0.2847   C.3       1 RES1   0.0000
    38 C33       7.5362    3.2954    0.5713   C.3       1 RES1   0.0000
    39 C34       7.2201    3.3896    2.0626   C.3       1 RES1   0.0000
    40 C35       8.3528    2.8733    2.9492   C.3       1 RES1   0.0000
    41 C36       8.0991    3.2254    4.4085   C.3       1 RES1   0.0000
    42 C37       5.6161   -1.2514   -1.9580   C.3       1 RES1   0.0000
    43 C38       5.7659   -1.4243   -3.4769   C.3       1 RES1   0.0000
    44 C39       4.6547   -2.2134   -4.1864   C.3       1 RES1   0.0000
    45 C40       3.9678   -1.4162   -5.2989   C.3       1 RES1   0.0000
    46 C41       2.9040   -0.4561   -4.7736   C.3       1 RES1   0.0000
    47 C42       2.0963    0.2180   -5.8838   C.3       1 RES1   0.0000
    48 C43       2.8542    1.3091   -6.6559   C.3       1 RES1   0.0000
    49 C44       3.2787    0.8775   -8.0551   C.3       1 RES1   0.0000
    50 N3        1.6734   -1.8876    0.0232   N.ar      1 RES1   0.0000
    51 C45       1.0743   -2.9591    0.5662   C.ar      1 RES1   0.0000
    52 C46      -0.2036   -2.7933    1.2358   C.ar      1 RES1   0.0000
    53 N4       -0.8940   -1.6585    1.0520   N.ar      1 RES1   0.0000
    54 H1       -8.3429   -5.8733   -2.1920   H         1 RES1   0.0000
    55 H2       -9.9471   -5.1350   -2.2226   H         1 RES1   0.0000
    56 H3       -8.9958   -5.1272   -0.7334   H         1 RES1   0.0000
    57 H4       -8.4221   -3.5426   -3.2869   H         1 RES1   0.0000
    58 H5       -7.2762   -3.6982   -1.9583   H         1 RES1   0.0000
    59 H6       -8.8188   -2.6523   -0.3947   H         1 RES1   0.0000
    60 H7      -10.1258   -2.7080   -1.5746   H         1 RES1   0.0000
    61 H8       -9.3508   -0.4453   -1.4035   H         1 RES1   0.0000
    62 H9       -9.0222   -1.0814   -2.9986   H         1 RES1   0.0000
    63 H10      -6.9368   -0.2588   -2.7626   H         1 RES1   0.0000
    64 H11      -6.6573   -1.6794   -1.7758   H         1 RES1   0.0000
    65 H12      -6.9226   -0.4345    0.2743   H         1 RES1   0.0000
    66 H13      -7.4223    1.0207   -0.5800   H         1 RES1   0.0000
    67 H14      -5.2865    1.2014   -1.7114   H         1 RES1   0.0000
    68 H15      -4.8015   -0.3783   -1.1343   H         1 RES1   0.0000
    69 H16      -5.2456    1.8506    0.8633   H         1 RES1   0.0000
    70 H17      -3.7396    1.7360   -0.0845   H         1 RES1   0.0000
    71 H18      -5.0241   -0.8719    2.8025   H         1 RES1   0.0000
    72 H19      -5.4797    0.7986    2.6075   H         1 RES1   0.0000
    73 H20      -3.2092    1.5446    3.3165   H         1 RES1   0.0000
    74 H21      -2.7848   -0.1159    3.7101   H         1 RES1   0.0000
    75 H22      -5.0191    0.0355    5.2127   H         1 RES1   0.0000
    76 H23      -4.6649    1.7459    5.1112   H         1 RES1   0.0000
    77 H24      -3.6346    0.9683    7.0873   H         1 RES1   0.0000
    78 H25      -2.3349    1.2719    5.9511   H         1 RES1   0.0000
    79 H26      -1.6775   -0.9498    5.9492   H         1 RES1   0.0000
    80 H27      -3.3389   -1.5224    5.8604   H         1 RES1   0.0000
    81 H28      -2.2781   -2.2757    7.8990   H         1 RES1   0.0000
    82 H29      -3.6673   -1.2549    8.2322   H         1 RES1   0.0000
    83 H30      -1.9078   -0.7863    9.7955   H         1 RES1   0.0000
    84 H31      -2.1615    0.6374    8.7944   H         1 RES1   0.0000
    85 H32       0.0615   -1.4165    8.3735   H         1 RES1   0.0000
    86 H33       0.2642    0.1328    9.1782   H         1 RES1   0.0000
    87 H34      -0.1530    0.0864    7.4674   H         1 RES1   0.0000
    88 H35      -3.5163   -2.2683    3.0566   H         1 RES1   0.0000
    89 H36      -2.2772   -4.3452    3.4066   H         1 RES1   0.0000
    90 H37      -0.5037   -5.9562    2.5278   H         1 RES1   0.0000
    91 H38       1.4509   -6.3237    1.0735   H         1 RES1   0.0000
    92 H39       3.3026   -5.3339   -0.3129   H         1 RES1   0.0000
    93 H40       4.3010   -3.4272   -1.3864   H         1 RES1   0.0000
    94 H41       4.2444    1.6423   -1.0778   H         1 RES1   0.0000
    95 H42       4.4517    1.3369   -2.8029   H         1 RES1   0.0000
    96 H43       6.8844    1.0745   -2.5177   H         1 RES1   0.0000
    97 H44       6.7147    1.1217   -0.7564   H         1 RES1   0.0000
    98 H45       5.7295    3.4613   -2.3714   H         1 RES1   0.0000
    99 H46       7.4448    3.2727   -2.0506   H         1 RES1   0.0000
   100 H47       5.4188    3.1365    0.1836   H         1 RES1   0.0000
   101 H48       6.1235    4.6618   -0.3190   H         1 RES1   0.0000
   102 H49       8.3177    4.0144    0.3179   H         1 RES1   0.0000
   103 H50       7.9237    2.2938    0.3551   H         1 RES1   0.0000
   104 H51       6.3163    2.8024    2.2722   H         1 RES1   0.0000
   105 H52       7.0037    4.4325    2.3122   H         1 RES1   0.0000
   106 H53       9.2977    3.3235    2.6394   H         1 RES1   0.0000
   107 H54       8.4392    1.7880    2.8344   H         1 RES1   0.0000
   108 H55       8.2054    4.2943    4.5578   H         1 RES1   0.0000
   109 H56       8.8205    2.7364    5.0526   H         1 RES1   0.0000
   110 H57       7.0990    2.9350    4.7213   H         1 RES1   0.0000
   111 H58       5.5209   -2.2139   -1.4726   H         1 RES1   0.0000
   112 H59       6.5459   -0.8200   -1.5893   H         1 RES1   0.0000
   113 H60       6.7160   -1.9379   -3.6247   H         1 RES1   0.0000
   114 H61       5.8566   -0.4422   -3.9393   H         1 RES1   0.0000
   115 H62       3.8898   -2.5363   -3.4775   H         1 RES1   0.0000
   116 H63       5.0735   -3.1139   -4.6371   H         1 RES1   0.0000
   117 H64       3.4825   -2.1188   -5.9776   H         1 RES1   0.0000
   118 H65       4.7192   -0.8760   -5.8767   H         1 RES1   0.0000
   119 H66       3.3601    0.3192   -4.1566   H         1 RES1   0.0000
   120 H67       2.2159   -1.0145   -4.1282   H         1 RES1   0.0000
   121 H68       1.2063    0.6570   -5.4264   H         1 RES1   0.0000
   122 H69       1.7525   -0.5430   -6.5832   H         1 RES1   0.0000
   123 H70       3.7378    1.6031   -6.0860   H         1 RES1   0.0000
   124 H71       2.2177    2.1924   -6.7456   H         1 RES1   0.0000
   125 H72       3.9699    0.0397   -8.0082   H         1 RES1   0.0000
   126 H73       3.7741    1.7030   -8.5606   H         1 RES1   0.0000
   127 H74       2.4122    0.5902   -8.6488   H         1 RES1   0.0000
   128 C47      -7.7497   -2.6362    2.6579   C.3       1 RES1   0.0000
   129 C48      -6.5409   -3.5295    2.3753   C.3       1 RES1   0.0000
   130 C49      -6.3198   -3.6770    0.8630   C.3       1 RES1   0.0000
   131 C50      -4.9096   -4.0976    0.3904   C.3       1 RES1   0.0000
   132 C51      -4.2160   -3.0557   -0.5089   C.3       1 RES1   0.0000
   133 C52      -3.9754   -3.5885   -1.9252   C.3       1 RES1   0.0000
   134 C53      -4.0527   -2.5551   -3.0586   C.3       1 RES1   0.0000
   135 C54      -3.1824   -1.2907   -3.0591   C.3       1 RES1   0.0000
   136 N5       -1.7329   -1.4516   -3.1230   N.am      1 RES1   0.0000
   137 C55      -1.1276   -2.7188   -3.5103   C.3       1 RES1   0.0000
   138 C56      -0.6446   -2.6685   -4.9644   C.3       1 RES1   0.0000
   139 C57      -1.7781   -2.4235   -5.9688   C.3       1 RES1   0.0000
   140 C58      -1.9097   -0.9502   -6.3871   C.3       1 RES1   0.0000
   141 C59      -1.2583   -0.6449   -7.7483   C.3       1 RES1   0.0000
   142 C60      -2.2637   -0.5852   -8.9043   C.3       1 RES1   0.0000
   143 C61      -2.9586   -1.9100   -9.2212   C.3       1 RES1   0.0000
   144 C62      -3.9344   -1.7426  -10.3800   C.3       1 RES1   0.0000
   145 C63      -0.9123   -0.4904   -2.7134   C.2       1 RES1   0.0000
   146 O3        0.2508   -0.7517   -2.3194   O.2       1 RES1   0.0000
   147 C64      -1.3102    0.9694   -2.6415   C.ar      1 RES1   0.0000
   148 C65      -2.0789    1.7129   -3.5531   C.ar      1 RES1   0.0000
   149 C66      -2.2060    3.0748   -3.3644   C.ar      1 RES1   0.0000
   150 C67      -1.6229    3.6948   -2.2419   C.ar      1 RES1   0.0000
   151 C68      -1.7557    5.0784   -1.9126   C.ar      1 RES1   0.0000
   152 C69      -1.3125    5.5637   -0.7212   C.ar      1 RES1   0.0000
   153 C70      -0.7200    4.6978    0.2508   C.ar      1 RES1   0.0000
   154 C71      -0.4524    5.0482    1.5841   C.ar      1 RES1   0.0000
   155 C72       0.0219    4.1110    2.4787   C.ar      1 RES1   0.0000
   156 C73       0.3054    2.8085    2.0305   C.ar      1 RES1   0.0000
   157 C74       0.7519    1.5822    2.8113   C.2       1 RES1   0.0000
   158 O4        0.6567    0.5107    2.1617   O.2       1 RES1   0.0000
   159 N6        1.1308    1.5848    4.0840   N.am      1 RES1   0.0000
   160 C75       1.5615    2.7667    4.8262   C.3       1 RES1   0.0000
   161 C76       2.6500    3.5528    4.0974   C.3       1 RES1   0.0000
   162 C77       2.9661    4.8449    4.8486   C.3       1 RES1   0.0000
   163 C78       3.8699    5.7842    4.0518   C.3       1 RES1   0.0000
   164 C79       3.1940    6.3598    2.8078   C.3       1 RES1   0.0000
   165 C80       4.0163    7.5008    2.2215   C.3       1 RES1   0.0000
   166 C81       3.3198    8.2387    1.0822   C.3       1 RES1   0.0000
   167 C82       3.0591    7.3735   -0.1450   C.3       1 RES1   0.0000
   168 C83       1.1635    0.4043    4.9655   C.3       1 RES1   0.0000
   169 C84       0.8514   -0.9930    4.4419   C.3       1 RES1   0.0000
   170 C85       2.0303   -1.6624    3.7434   C.3       1 RES1   0.0000
   171 C86       3.2276   -1.8499    4.6790   C.3       1 RES1   0.0000
   172 C87       4.2275   -2.8766    4.1495   C.3       1 RES1   0.0000
   173 C88       4.6263   -2.7238    2.6784   C.3       1 RES1   0.0000
   174 C89       5.3918   -1.4536    2.2866   C.3       1 RES1   0.0000
   175 C90       4.5936   -0.1530    2.1632   C.3       1 RES1   0.0000
   176 N7        0.0779    2.4681    0.7612   N.ar      1 RES1   0.0000
   177 C91      -0.4500    3.3558   -0.0938   C.ar      1 RES1   0.0000
   178 C92      -0.8971    2.8575   -1.3697   C.ar      1 RES1   0.0000
   179 N8       -0.6953    1.5619   -1.6246   N.ar      1 RES1   0.0000
   180 H75      -7.9390   -2.5509    3.7265   H         1 RES1   0.0000
   181 H76      -8.6432   -3.0406    2.1897   H         1 RES1   0.0000
   182 H77      -7.5997   -1.6368    2.2495   H         1 RES1   0.0000
   183 H78      -6.7088   -4.5011    2.8445   H         1 RES1   0.0000
   184 H79      -5.6589   -3.0862    2.8501   H         1 RES1   0.0000
   185 H80      -6.5651   -2.7140    0.4145   H         1 RES1   0.0000
   186 H81      -7.0423   -4.3962    0.4782   H         1 RES1   0.0000
   187 H82      -5.0144   -5.0139   -0.1879   H         1 RES1   0.0000
   188 H83      -4.2644   -4.3428    1.2355   H         1 RES1   0.0000
   189 H84      -3.2704   -2.7141   -0.0746   H         1 RES1   0.0000
   190 H85      -4.8530   -2.1780   -0.5745   H         1 RES1   0.0000
   191 H86      -4.7784   -4.2874   -2.1682   H         1 RES1   0.0000
   192 H87      -3.0463   -4.1608   -1.9313   H         1 RES1   0.0000
   193 H88      -5.0752   -2.1716   -3.0477   H         1 RES1   0.0000
   194 H89      -3.9460   -3.0742   -4.0130   H         1 RES1   0.0000
   195 H90      -3.3636   -0.7210   -2.1460   H         1 RES1   0.0000
   196 H91      -3.5216   -0.6973   -3.9135   H         1 RES1   0.0000
   197 H92      -1.8480   -3.5209   -3.3920   H         1 RES1   0.0000
   198 H93      -0.2772   -2.8957   -2.8444   H         1 RES1   0.0000
   199 H94      -0.1614   -3.6221   -5.1809   H         1 RES1   0.0000
   200 H95       0.1021   -1.8784   -5.0542   H         1 RES1   0.0000
   201 H96      -2.7155   -2.7856   -5.5482   H         1 RES1   0.0000
   202 H97      -1.5920   -3.0207   -6.8586   H         1 RES1   0.0000
   203 H98      -1.4403   -0.3239   -5.6217   H         1 RES1   0.0000
   204 H99      -2.9626   -0.6646   -6.4567   H         1 RES1   0.0000
   205 H100     -0.4907   -1.3898   -7.9690   H         1 RES1   0.0000
   206 H101     -0.7559    0.3247   -7.6926   H         1 RES1   0.0000
   207 H102     -1.7346   -0.2459   -9.7989   H         1 RES1   0.0000
   208 H103     -3.0189    0.1712   -8.6678   H         1 RES1   0.0000
   209 H104     -3.5056   -2.2680   -8.3432   H         1 RES1   0.0000
   210 H105     -2.2052   -2.6592   -9.4810   H         1 RES1   0.0000
   211 H106     -4.6901   -0.9987  -10.1362   H         1 RES1   0.0000
   212 H107     -4.4292   -2.6836  -10.5967   H         1 RES1   0.0000
   213 H108     -3.4199   -1.4188  -11.2809   H         1 RES1   0.0000
   214 H109     -2.5512    1.2322   -4.3962   H         1 RES1   0.0000
   215 H110     -2.7893    3.6685   -4.0526   H         1 RES1   0.0000
   216 H111     -2.2157    5.7327   -2.6366   H         1 RES1   0.0000
   217 H112     -1.4315    6.6068   -0.4633   H         1 RES1   0.0000
   218 H113     -0.6518    6.0567    1.9085   H         1 RES1   0.0000
   219 H114      0.1413    4.3977    3.5089   H         1 RES1   0.0000
   220 H115      1.9874    2.4309    5.7743   H         1 RES1   0.0000
   221 H116      0.7004    3.3859    5.0940   H         1 RES1   0.0000
   222 H117      2.3356    3.7998    3.0850   H         1 RES1   0.0000
   223 H118      3.5405    2.9266    4.0179   H         1 RES1   0.0000
   224 H119      3.4229    4.6059    5.8119   H         1 RES1   0.0000
   225 H120      2.0217    5.3526    5.0598   H         1 RES1   0.0000
   226 H121      4.7878    5.2655    3.7725   H         1 RES1   0.0000
   227 H122      4.1451    6.6024    4.7156   H         1 RES1   0.0000
   228 H123      2.2074    6.7394    3.0809   H         1 RES1   0.0000
   229 H124      3.0614    5.5831    2.0508   H         1 RES1   0.0000
   230 H125      4.9745    7.1147    1.8767   H         1 RES1   0.0000
   231 H126      4.2266    8.2197    3.0120   H         1 RES1   0.0000
   232 H127      3.9464    9.0814    0.7881   H         1 RES1   0.0000
   233 H128      2.3741    8.6477    1.4396   H         1 RES1   0.0000
   234 H129      3.9891    6.9456   -0.5086   H         1 RES1   0.0000
   235 H130      2.6371    7.9738   -0.9467   H         1 RES1   0.0000
   236 H131      2.3652    6.5597    0.0685   H         1 RES1   0.0000
   237 H132      0.4209    0.6305    5.7423   H         1 RES1   0.0000
   238 H133      2.1423    0.3932    5.4564   H         1 RES1   0.0000
   239 H134     -0.0089   -0.9591    3.7752   H         1 RES1   0.0000
   240 H135      0.5866   -1.5892    5.3190   H         1 RES1   0.0000
   241 H136      2.3015   -1.0697    2.8675   H         1 RES1   0.0000
   242 H137      1.6993   -2.6464    3.4026   H         1 RES1   0.0000
   243 H138      2.8629   -2.2087    5.6435   H         1 RES1   0.0000
   244 H139      3.7459   -0.9047    4.8570   H         1 RES1   0.0000
   245 H140      3.7869   -3.8738    4.2507   H         1 RES1   0.0000
   246 H141      5.1209   -2.8475    4.7768   H         1 RES1   0.0000
   247 H142      3.7376   -2.8332    2.0529   H         1 RES1   0.0000
   248 H143      5.2821   -3.5657    2.4458   H         1 RES1   0.0000
   249 H144      5.8767   -1.6434    1.3223   H         1 RES1   0.0000
   250 H145      6.1740   -1.2854    3.0294   H         1 RES1   0.0000
   251 H146      5.2726    0.6434    1.8506   H         1 RES1   0.0000
   252 H147      4.1564    0.1273    3.1170   H         1 RES1   0.0000
   253 H148      3.7811   -0.2042    1.4300   H         1 RES1   0.0000
@<TRIPOS>BOND
     1     1    20    1
     2     1    32    1
     3     1    50    1
     4     1    53    1
     5     1   146    1
     6     1   158    1
     7     1   176    1
     8     1   179    1
     9     2     3    1
    10     2    54    1
    11     2    55    1
    12     2    56    1
    13     3     4    1
    14     3    57    1
    15     3    58    1
    16     4     5    1
    17     4    59    1
    18     4    60    1
    19     5     6    1
    20     5    61    1
    21     5    62    1
    22     6     7    1
    23     6    63    1
    24     6    64    1
    25     7     8    1
    26     7    65    1
    27     7    66    1
    28     8     9    1
    29     8    67    1
    30     8    68    1
    31     9    10    1
    32     9    69    1
    33     9    70    1
    34    10    11    1
    35    10    19    1
    36    11    12    1
    37    11    71    1
    38    11    72    1
    39    12    13    1
    40    12    73    1
    41    12    74    1
    42    13    14    1
    43    13    75    1
    44    13    76    1
    45    14    15    1
    46    14    77    1
    47    14    78    1
    48    15    16    1
    49    15    79    1
    50    15    80    1
    51    16    17    1
    52    16    81    1
    53    16    82    1
    54    17    18    1
    55    17    83    1
    56    17    84    1
    57    18    85    1
    58    18    86    1
    59    18    87    1
    60    19    20    2
    61    19    21    1
    62    21    22    1
    63    21    53    2
    64    22    23    2
    65    22    88    1
    66    23    24    1
    67    23    89    1
    68    24    25    1
    69    24    52    2
    70    25    26    2
    71    25    90    1
    72    26    27    1
    73    26    91    1
    74    27    28    1
    75    27    51    2
    76    28    29    2
    77    28    92    1
    78    29    30    1
    79    29    93    1
    80    30    31    1
    81    30    50    2
    82    31    32    2
    83    31    33    1
    84    33    34    1
    85    33    42    1
    86    34    35    1
    87    34    94    1
    88    34    95    1
    89    35    36    1
    90    35    96    1
    91    35    97    1
    92    36    37    1
    93    36    98    1
    94    36    99    1
    95    37    38    1
    96    37   100    1
    97    37   101    1
    98    38    39    1
    99    38   102    1
   100    38   103    1
   101    39    40    1
   102    39   104    1
   103    39   105    1
   104    40    41    1
   105    40   106    1
   106    40   107    1
   107    41   108    1
   108    41   109    1
   109    41   110    1
   110    42    43    1
   111    42   111    1
   112    42   112    1
   113    43    44    1
   114    43   113    1
   115    43   114    1
   116    44    45    1
   117    44   115    1
   118    44   116    1
   119    45    46    1
   120    45   117    1
   121    45   118    1
   122    46    47    1
   123    46   119    1
   124    46   120    1
   125    47    48    1
   126    47   121    1
   127    47   122    1
   128    48    49    1
   129    48   123    1
   130    48   124    1
   131    49   125    1
   132    49   126    1
   133    49   127    1
   134    50    51    1
   135    51    52    1
   136    52    53    1
   137   128   129    1
   138   128   180    1
   139   128   181    1
   140   128   182    1
   141   129   130    1
   142   129   183    1
   143   129   184    1
   144   130   131    1
   145   130   185    1
   146   130   186    1
   147   131   132    1
   148   131   187    1
   149   131   188    1
   150   132   133    1
   151   132   189    1
   152   132   190    1
   153   133   134    1
   154   133   191    1
   155   133   192    1
   156   134   135    1
   157   134   193    1
   158   134   194    1
   159   135   136    1
   160   135   195    1
   161   135   196    1
   162   136   137    1
   163   136   145    1
   164   137   138    1
   165   137   197    1
   166   137   198    1
   167   138   139    1
   168   138   199    1
   169   138   200    1
   170   139   140    1
   171   139   201    1
   172   139   202    1
   173   140   141    1
   174   140   203    1
   175   140   204    1
   176   141   142    1
   177   141   205    1
   178   141   206    1
   179   142   143    1
   180   142   207    1
   181   142   208    1
   182   143   144    1
   183   143   209    1
   184   143   210    1
   185   144   211    1
   186   144   212    1
   187   144   213    1
   188   145   146    2
   189   145   147    1
   190   147   148    1
   191   147   179    2
   192   148   149    2
   193   148   214    1
   194   149   150    1
   195   149   215    1
   196   150   151    1
   197   150   178    2
   198   151   152    2
   199   151   216    1
   200   152   153    1
   201   152   217    1
   202   153   154    1
   203   153   177    2
   204   154   155    2
   205   154   218    1
   206   155   156    1
   207   155   219    1
   208   156   157    1
   209   156   176    2
   210   157   158    2
   211   157   159    1
   212   159   160    1
   213   159   168    1
   214   160   161    1
   215   160   220    1
   216   160   221    1
   217   161   162    1
   218   161   222    1
   219   161   223    1
   220   162   163    1
   221   162   224    1
   222   162   225    1
   223   163   164    1
   224   163   226    1
   225   163   227    1
   226   164   165    1
   227   164   228    1
   228   164   229    1
   229   165   166    1
   230   165   230    1
   231   165   231    1
   232   166   167    1
   233   166   232    1
   234   166   233    1
   235   167   234    1
   236   167   235    1
   237   167   236    1
   238   168   169    1
   239   168   237    1
   240   168   238    1
   241   169   170    1
   242   169   239    1
   243   169   240    1
   244   170   171    1
   245   170   241    1
   246   170   242    1
   247   171   172    1
   248   171   243    1
   249   171   244    1
   250   172   173    1
   251   172   245    1
   252   172   246    1
   253   173   174    1
   254   173   247    1
   255   173   248    1
   256   174   175    1
   257   174   249    1
   258   174   250    1
   259   175   251    1
   260   175   252    1
   261   175   253    1
   262   176   177    1
   263   177   178    1
   264   178   179    1
@<TRIPOS>SUBSTRUCTURE
     1 RES1      253 GROUP             0 ****  ****    0  
