@<TRIPOS>MOLECULE
ICIGOT_geomtry_0_nunpairedes_0_charge_3 Charge: 3 Unpaired_Electrons: 6 XTB_Unpaired_Electrons: 0 XTB_Charge: 3
    93   100     1     0     0
SMALL
NoCharges
****
Generated from Architector

@<TRIPOS>ATOM
     1 Tb1       0.0698    0.1565    0.2334   Tb        1 RES1   0.0000
     2 O1        0.1086    0.1776   -1.9840   O.2       1 RES1   0.0000
     3 C1       -0.5903   -0.5945   -2.6870   C.2       1 RES1   0.0000
     4 C2       -1.8097   -1.2584   -2.0046   C.3       1 RES1   0.0000
     5 O2       -1.9495   -0.8082   -0.6523   O.3       1 RES1   0.0000
     6 C3       -3.0930   -0.0028   -0.3412   C.3       1 RES1   0.0000
     7 C4       -2.6726    1.4502   -0.0494   C.2       1 RES1   0.0000
     8 O3       -1.4431    1.7061   -0.0095   O.2       1 RES1   0.0000
     9 N1       -3.5821    2.3792    0.1564   N.am      1 RES1   0.0000
    10 C5       -3.1209    3.7657    0.3285   C.3       1 RES1   0.0000
    11 C6       -4.2569    4.6825    0.7509   C.3       1 RES1   0.0000
    12 C7       -5.3994    4.6413   -0.2649   C.3       1 RES1   0.0000
    13 C8       -5.6717    3.2129   -0.7563   C.3       1 RES1   0.0000
    14 C9       -5.0246    2.1880    0.1714   C.3       1 RES1   0.0000
    15 N2       -0.3243   -0.8859   -3.9435   N.am      1 RES1   0.0000
    16 C10       0.7446   -0.1860   -4.6601   C.3       1 RES1   0.0000
    17 C11       1.7426   -1.1496   -5.3043   C.3       1 RES1   0.0000
    18 C12       1.0115   -2.1814   -6.1546   C.3       1 RES1   0.0000
    19 C13      -0.0187   -2.9003   -5.2949   C.3       1 RES1   0.0000
    20 C14      -1.0242   -1.8945   -4.7287   C.3       1 RES1   0.0000
    21 H1       -2.7039   -1.0372   -2.5936   H         1 RES1   0.0000
    22 H2       -1.6705   -2.3483   -1.9543   H         1 RES1   0.0000
    23 H3       -3.8100   -0.0217   -1.1645   H         1 RES1   0.0000
    24 H4       -3.5594   -0.4361    0.5538   H         1 RES1   0.0000
    25 H5       -2.3019    3.7703    1.0560   H         1 RES1   0.0000
    26 H6       -2.7122    4.1063   -0.6273   H         1 RES1   0.0000
    27 H7       -4.6045    4.4016    1.7445   H         1 RES1   0.0000
    28 H8       -3.8717    5.6995    0.8205   H         1 RES1   0.0000
    29 H9       -6.2872    5.0619    0.1999   H         1 RES1   0.0000
    30 H10      -5.1510    5.2726   -1.1157   H         1 RES1   0.0000
    31 H11      -6.7443    3.0346   -0.8125   H         1 RES1   0.0000
    32 H12      -5.2644    3.0734   -1.7574   H         1 RES1   0.0000
    33 H13      -5.3947    2.3377    1.1886   H         1 RES1   0.0000
    34 H14      -5.2845    1.1776   -0.1324   H         1 RES1   0.0000
    35 H15       0.2853    0.4271   -5.4414   H         1 RES1   0.0000
    36 H16       1.2476    0.4715   -3.9486   H         1 RES1   0.0000
    37 H17       2.4337   -0.5708   -5.9184   H         1 RES1   0.0000
    38 H18       2.3346   -1.6478   -4.5331   H         1 RES1   0.0000
    39 H19       0.5043   -1.6724   -6.9729   H         1 RES1   0.0000
    40 H20       1.7220   -2.8882   -6.5832   H         1 RES1   0.0000
    41 H21      -0.5428   -3.6493   -5.8861   H         1 RES1   0.0000
    42 H22       0.4819   -3.4211   -4.4764   H         1 RES1   0.0000
    43 H23      -1.5521   -1.4128   -5.5536   H         1 RES1   0.0000
    44 H24      -1.7501   -2.4232   -4.1195   H         1 RES1   0.0000
    45 O4       -0.3085   -1.6386    1.5752   O.2       1 RES1   0.0000
    46 C15       0.5678   -2.4101    2.0501   C.2       1 RES1   0.0000
    47 C16       2.0453   -2.0666    1.7583   C.3       1 RES1   0.0000
    48 O5        1.9762   -0.7608    1.1983   O.3       1 RES1   0.0000
    49 C17       3.1510   -0.2317    0.5767   C.3       1 RES1   0.0000
    50 C18       2.8825    1.2837    0.6442   C.2       1 RES1   0.0000
    51 O6        1.6711    1.6291    0.5898   O.2       1 RES1   0.0000
    52 N3        3.8383    2.1507    0.8500   N.am      1 RES1   0.0000
    53 C19       3.4632    3.5146    1.2387   C.3       1 RES1   0.0000
    54 C20       4.6819    4.3035    1.6961   C.3       1 RES1   0.0000
    55 C21       5.5015    3.5236    2.7275   C.3       1 RES1   0.0000
    56 C22       5.7821    2.0799    2.2731   C.3       1 RES1   0.0000
    57 C23       5.2576    1.8661    0.8570   C.3       1 RES1   0.0000
    58 N4        0.2689   -3.4298    2.8188   N.am      1 RES1   0.0000
    59 C24      -1.0776   -3.6012    3.3637   C.3       1 RES1   0.0000
    60 C25      -1.6808   -4.9565    3.0026   C.3       1 RES1   0.0000
    61 C26      -0.7247   -6.0734    3.4018   C.3       1 RES1   0.0000
    62 C27       0.6391   -5.8290    2.7697   C.3       1 RES1   0.0000
    63 C28       1.1930   -4.4736    3.2192   C.3       1 RES1   0.0000
    64 H25       2.6156   -2.0496    2.6970   H         1 RES1   0.0000
    65 H26       2.5118   -2.7766    1.0645   H         1 RES1   0.0000
    66 H27       4.0437   -0.5245    1.1341   H         1 RES1   0.0000
    67 H28       3.2235   -0.5704   -0.4724   H         1 RES1   0.0000
    68 H29       2.9518    4.0082    0.4062   H         1 RES1   0.0000
    69 H30       2.7442    3.4256    2.0594   H         1 RES1   0.0000
    70 H31       5.2978    4.5658    0.8369   H         1 RES1   0.0000
    71 H32       4.3387    5.2372    2.1414   H         1 RES1   0.0000
    72 H33       6.4358    4.0563    2.8902   H         1 RES1   0.0000
    73 H34       4.9682    3.5108    3.6775   H         1 RES1   0.0000
    74 H35       6.8493    1.8673    2.2988   H         1 RES1   0.0000
    75 H36       5.2815    1.3742    2.9388   H         1 RES1   0.0000
    76 H37       5.7438    2.5627    0.1746   H         1 RES1   0.0000
    77 H38       5.4578    0.8603    0.4978   H         1 RES1   0.0000
    78 H39      -0.9818   -3.5292    4.4522   H         1 RES1   0.0000
    79 H40      -1.6998   -2.7827    2.9997   H         1 RES1   0.0000
    80 H41      -2.6319   -5.0586    3.5268   H         1 RES1   0.0000
    81 H42      -1.8760   -5.0031    1.9303   H         1 RES1   0.0000
    82 H43      -0.6239   -6.0971    4.4851   H         1 RES1   0.0000
    83 H44      -1.1233   -7.0336    3.0821   H         1 RES1   0.0000
    84 H45       1.3405   -6.6099    3.0583   H         1 RES1   0.0000
    85 H46       0.5422   -5.8431    1.6821   H         1 RES1   0.0000
    86 H47       1.2835   -4.4549    4.3080   H         1 RES1   0.0000
    87 H48       2.1700   -4.3068    2.7737   H         1 RES1   0.0000
    88 O7       -0.5595    1.1372    2.4734   O.3       1 RES1   0.0000
    89 H49      -0.3297    2.0624    2.6579   H         1 RES1   0.0000
    90 H50      -1.2242    0.9089    3.1441   H         1 RES1   0.0000
    91 O8        1.0629   -2.2509   -1.0909   O.3       1 RES1   0.0000
    92 H51       1.6127   -2.4049   -1.8728   H         1 RES1   0.0000
    93 H52       0.7225   -3.1243   -0.8527   H         1 RES1   0.0000
@<TRIPOS>BOND
     1     1     2    1
     2     1     5    1
     3     1     8    1
     4     1    45    1
     5     1    48    1
     6     1    51    1
     7     1    88    1
     8     1    91    1
     9     2     3    2
    10     3     4    1
    11     3    15    1
    12     4     5    1
    13     4    21    1
    14     4    22    1
    15     5     6    1
    16     6     7    1
    17     6    23    1
    18     6    24    1
    19     7     8    2
    20     7     9    1
    21     9    10    1
    22     9    14    1
    23    10    11    1
    24    10    25    1
    25    10    26    1
    26    11    12    1
    27    11    27    1
    28    11    28    1
    29    12    13    1
    30    12    29    1
    31    12    30    1
    32    13    14    1
    33    13    31    1
    34    13    32    1
    35    14    33    1
    36    14    34    1
    37    15    16    1
    38    15    20    1
    39    16    17    1
    40    16    35    1
    41    16    36    1
    42    17    18    1
    43    17    37    1
    44    17    38    1
    45    18    19    1
    46    18    39    1
    47    18    40    1
    48    19    20    1
    49    19    41    1
    50    19    42    1
    51    20    43    1
    52    20    44    1
    53    45    46    2
    54    46    47    1
    55    46    58    1
    56    47    48    1
    57    47    64    1
    58    47    65    1
    59    48    49    1
    60    49    50    1
    61    49    66    1
    62    49    67    1
    63    50    51    2
    64    50    52    1
    65    52    53    1
    66    52    57    1
    67    53    54    1
    68    53    68    1
    69    53    69    1
    70    54    55    1
    71    54    70    1
    72    54    71    1
    73    55    56    1
    74    55    72    1
    75    55    73    1
    76    56    57    1
    77    56    74    1
    78    56    75    1
    79    57    76    1
    80    57    77    1
    81    58    59    1
    82    58    63    1
    83    59    60    1
    84    59    78    1
    85    59    79    1
    86    60    61    1
    87    60    80    1
    88    60    81    1
    89    61    62    1
    90    61    82    1
    91    61    83    1
    92    62    63    1
    93    62    84    1
    94    62    85    1
    95    63    86    1
    96    63    87    1
    97    88    89    1
    98    88    90    1
    99    91    92    1
   100    91    93    1
@<TRIPOS>SUBSTRUCTURE
     1 RES1       93 GROUP             0 ****  ****    0  
