@<TRIPOS>MOLECULE
ICIGOT_geomtry_0_nunpairedes_0_charge_3 Charge: 3 Unpaired_Electrons: 6 XTB_Unpaired_Electrons: 0 XTB_Charge: 3
   173   176     1     0     0
SMALL
NoCharges
****
Generated from Architector

@<TRIPOS>ATOM
     1 Tb1       0.0305   -0.4434   -0.1292   Tb        1 RES1   0.0000
     2 C1       -5.5236   -3.6463   -5.0025   C.3       1 RES1   0.0000
     3 C2       -4.9694   -4.5291   -3.8916   C.3       1 RES1   0.0000
     4 C3       -5.4616   -4.0775   -2.5175   C.3       1 RES1   0.0000
     5 C4       -5.0084   -4.9936   -1.3768   C.3       1 RES1   0.0000
     6 C5       -3.4987   -5.0115   -1.1232   C.3       1 RES1   0.0000
     7 C6       -2.8895   -3.6648   -0.7271   C.3       1 RES1   0.0000
     8 C7       -3.3327   -3.1904    0.6660   C.3       1 RES1   0.0000
     9 C8       -4.5028   -2.2095    0.6742   C.3       1 RES1   0.0000
    10 N1       -4.2897   -0.8086    0.2458   N.am      1 RES1   0.0000
    11 C9       -5.5122   -0.0159    0.3920   C.3       1 RES1   0.0000
    12 C10      -6.5473   -0.2196   -0.7222   C.3       1 RES1   0.0000
    13 C11      -6.1520    0.3877   -2.0613   C.3       1 RES1   0.0000
    14 C12      -3.1493   -0.3322   -0.2145   C.2       1 RES1   0.0000
    15 O1       -2.0940   -1.0050   -0.2833   O.2       1 RES1   0.0000
    16 C13      -3.0360    1.1176   -0.7458   C.3       1 RES1   0.0000
    17 O2       -1.6418    1.4379   -0.7575   O.3       1 RES1   0.0000
    18 C14      -1.2444    2.5126   -1.6171   C.3       1 RES1   0.0000
    19 C15       0.0536    2.0413   -2.2929   C.2       1 RES1   0.0000
    20 O3        0.6258    1.0535   -1.7669   O.2       1 RES1   0.0000
    21 N2        0.4828    2.6086   -3.4049   N.am      1 RES1   0.0000
    22 C16       1.4663    1.8848   -4.2115   C.3       1 RES1   0.0000
    23 C17       0.7573    0.8081   -5.0388   C.3       1 RES1   0.0000
    24 C18       1.7301    0.1218   -5.9869   C.3       1 RES1   0.0000
    25 C19       0.1230    3.9372   -3.8856   C.3       1 RES1   0.0000
    26 C20       1.2606    4.9329   -3.6090   C.3       1 RES1   0.0000
    27 C21       1.3570    5.3431   -2.1420   C.3       1 RES1   0.0000
    28 C22       2.6796    6.0498   -1.8252   C.3       1 RES1   0.0000
    29 C23       3.8716    5.1079   -1.6395   C.3       1 RES1   0.0000
    30 C24       3.7810    4.2036   -0.4075   C.3       1 RES1   0.0000
    31 C25       3.9393    4.9464    0.9175   C.3       1 RES1   0.0000
    32 C26       3.7356    4.0271    2.1162   C.3       1 RES1   0.0000
    33 H1       -5.1665   -3.9797   -5.9725   H         1 RES1   0.0000
    34 H2       -5.2230   -2.6082   -4.8632   H         1 RES1   0.0000
    35 H3       -6.6089   -3.6880   -5.0133   H         1 RES1   0.0000
    36 H4       -3.8775   -4.5102   -3.9268   H         1 RES1   0.0000
    37 H5       -5.2858   -5.5577   -4.0608   H         1 RES1   0.0000
    38 H6       -6.5542   -4.0635   -2.5322   H         1 RES1   0.0000
    39 H7       -5.1291   -3.0478   -2.3446   H         1 RES1   0.0000
    40 H8       -5.3161   -6.0135   -1.6149   H         1 RES1   0.0000
    41 H9       -5.5361   -4.7172   -0.4604   H         1 RES1   0.0000
    42 H10      -2.9979   -5.3755   -2.0202   H         1 RES1   0.0000
    43 H11      -3.2968   -5.7323   -0.3304   H         1 RES1   0.0000
    44 H12      -3.1452   -2.9191   -1.4821   H         1 RES1   0.0000
    45 H13      -1.8003   -3.7697   -0.7162   H         1 RES1   0.0000
    46 H14      -2.4831   -2.7775    1.2151   H         1 RES1   0.0000
    47 H15      -3.6762   -4.0591    1.2315   H         1 RES1   0.0000
    48 H16      -4.9020   -2.1640    1.6929   H         1 RES1   0.0000
    49 H17      -5.2960   -2.6052    0.0350   H         1 RES1   0.0000
    50 H18      -5.2628    1.0431    0.4691   H         1 RES1   0.0000
    51 H19      -5.9769   -0.3149    1.3346   H         1 RES1   0.0000
    52 H20      -7.4717    0.2466   -0.3784   H         1 RES1   0.0000
    53 H21      -6.7585   -1.2808   -0.8571   H         1 RES1   0.0000
    54 H22      -5.9313    1.4480   -1.9547   H         1 RES1   0.0000
    55 H23      -6.9830    0.2909   -2.7546   H         1 RES1   0.0000
    56 H24      -5.2928   -0.1264   -2.4910   H         1 RES1   0.0000
    57 H25      -3.5774    1.8436   -0.1299   H         1 RES1   0.0000
    58 H26      -3.4424    1.1359   -1.7645   H         1 RES1   0.0000
    59 H27      -1.0736    3.4227   -1.0269   H         1 RES1   0.0000
    60 H28      -2.0069    2.7067   -2.3753   H         1 RES1   0.0000
    61 H29       2.2115    1.4332   -3.5529   H         1 RES1   0.0000
    62 H30       1.9663    2.5821   -4.8820   H         1 RES1   0.0000
    63 H31      -0.0396    1.2722   -5.6224   H         1 RES1   0.0000
    64 H32       0.3052    0.0847   -4.3556   H         1 RES1   0.0000
    65 H33       2.1458    0.8416   -6.6859   H         1 RES1   0.0000
    66 H34       1.2245   -0.6459   -6.5643   H         1 RES1   0.0000
    67 H35       2.5504   -0.3343   -5.4395   H         1 RES1   0.0000
    68 H36      -0.7933    4.2783   -3.4057   H         1 RES1   0.0000
    69 H37      -0.0528    3.8825   -4.9626   H         1 RES1   0.0000
    70 H38       1.0914    5.8203   -4.2159   H         1 RES1   0.0000
    71 H39       2.2096    4.5063   -3.9339   H         1 RES1   0.0000
    72 H40       1.2512    4.4587   -1.5083   H         1 RES1   0.0000
    73 H41       0.5362    6.0216   -1.9058   H         1 RES1   0.0000
    74 H42       2.5539    6.6431   -0.9204   H         1 RES1   0.0000
    75 H43       2.9144    6.7439   -2.6334   H         1 RES1   0.0000
    76 H44       4.7739    5.7148   -1.5551   H         1 RES1   0.0000
    77 H45       3.9872    4.4787   -2.5261   H         1 RES1   0.0000
    78 H46       4.5783    3.4572   -0.4810   H         1 RES1   0.0000
    79 H47       2.8195    3.6770   -0.4103   H         1 RES1   0.0000
    80 H48       3.2171    5.7591    0.9755   H         1 RES1   0.0000
    81 H49       4.9353    5.3846    0.9637   H         1 RES1   0.0000
    82 H50       2.7308    3.6040    2.1048   H         1 RES1   0.0000
    83 H51       3.8596    4.5829    3.0409   H         1 RES1   0.0000
    84 H52       4.4622    3.2165    2.1089   H         1 RES1   0.0000
    85 C27       5.2678   -6.2535    1.3746   C.3       1 RES1   0.0000
    86 C28       4.6681   -6.2432   -0.0260   C.3       1 RES1   0.0000
    87 C29       5.1475   -5.0380   -0.8342   C.3       1 RES1   0.0000
    88 C30       4.6568   -5.0458   -2.2857   C.3       1 RES1   0.0000
    89 C31       3.1503   -4.8421   -2.4614   C.3       1 RES1   0.0000
    90 C32       2.5930   -3.5056   -1.9649   C.3       1 RES1   0.0000
    91 C33       3.0953   -2.2958   -2.7690   C.3       1 RES1   0.0000
    92 C34       4.3573   -1.6642   -2.1894   C.3       1 RES1   0.0000
    93 N3        4.1879   -0.6242   -1.1618   N.am      1 RES1   0.0000
    94 C35       5.4235    0.1329   -0.9676   C.3       1 RES1   0.0000
    95 C36       6.4937   -0.6535   -0.1992   C.3       1 RES1   0.0000
    96 C37       6.1064   -0.9678    1.2407   C.3       1 RES1   0.0000
    97 C38       3.1050   -0.4350   -0.4307   C.2       1 RES1   0.0000
    98 O4        2.0626   -1.1267   -0.5037   O.2       1 RES1   0.0000
    99 C39       3.0933    0.7361    0.5715   C.3       1 RES1   0.0000
   100 O5        1.7795    0.9317    1.1119   O.3       1 RES1   0.0000
   101 C40       1.6653    0.8882    2.5339   C.3       1 RES1   0.0000
   102 C41       0.8058   -0.3174    2.9304   C.2       1 RES1   0.0000
   103 O6        0.4749   -1.1178    2.0207   O.2       1 RES1   0.0000
   104 N4        0.3916   -0.4397    4.1794   N.am      1 RES1   0.0000
   105 C42      -0.4838   -1.5676    4.5060   C.3       1 RES1   0.0000
   106 C43       0.1943   -2.9354    4.4153   C.3       1 RES1   0.0000
   107 C44      -0.7993   -4.0171    4.8191   C.3       1 RES1   0.0000
   108 C45       0.6690    0.4834    5.2798   C.3       1 RES1   0.0000
   109 C46      -0.5617    1.3194    5.6701   C.3       1 RES1   0.0000
   110 C47      -0.7555    2.5783    4.8263   C.3       1 RES1   0.0000
   111 C48      -2.0538    3.3206    5.1703   C.3       1 RES1   0.0000
   112 C49      -3.3042    2.7746    4.4762   C.3       1 RES1   0.0000
   113 C50      -3.3438    3.0571    2.9719   C.3       1 RES1   0.0000
   114 C51      -3.7336    4.4792    2.5787   C.3       1 RES1   0.0000
   115 C52      -3.6647    4.6488    1.0645   C.3       1 RES1   0.0000
   116 H53       4.9199   -7.1184    1.9321   H         1 RES1   0.0000
   117 H54       4.9884   -5.3553    1.9237   H         1 RES1   0.0000
   118 H55       6.3521   -6.3007    1.3239   H         1 RES1   0.0000
   119 H56       3.5788   -6.2348    0.0506   H         1 RES1   0.0000
   120 H57       4.9572   -7.1566   -0.5456   H         1 RES1   0.0000
   121 H58       6.2407   -5.0434   -0.8428   H         1 RES1   0.0000
   122 H59       4.8326   -4.1254   -0.3168   H         1 RES1   0.0000
   123 H60       4.9089   -6.0141   -2.7221   H         1 RES1   0.0000
   124 H61       5.2044   -4.2953   -2.8610   H         1 RES1   0.0000
   125 H62       2.6300   -5.6415   -1.9345   H         1 RES1   0.0000
   126 H63       2.9188   -4.9483   -3.5224   H         1 RES1   0.0000
   127 H64       2.8368   -3.3842   -0.9089   H         1 RES1   0.0000
   128 H65       1.5028   -3.5636   -2.0336   H         1 RES1   0.0000
   129 H66       2.3321   -1.5186   -2.8626   H         1 RES1   0.0000
   130 H67       3.3445   -2.6234   -3.7809   H         1 RES1   0.0000
   131 H68       4.9100   -1.1802   -2.9985   H         1 RES1   0.0000
   132 H69       4.9995   -2.4425   -1.7730   H         1 RES1   0.0000
   133 H70       5.2220    1.0729   -0.4589   H         1 RES1   0.0000
   134 H71       5.8218    0.3781   -1.9542   H         1 RES1   0.0000
   135 H72       7.4007   -0.0489   -0.2094   H         1 RES1   0.0000
   136 H73       6.7267   -1.5822   -0.7201   H         1 RES1   0.0000
   137 H74       5.9731   -0.0513    1.8145   H         1 RES1   0.0000
   138 H75       6.9020   -1.5401    1.7110   H         1 RES1   0.0000
   139 H76       5.1945   -1.5642    1.2815   H         1 RES1   0.0000
   140 H77       3.3533    1.6638    0.0520   H         1 RES1   0.0000
   141 H78       3.8187    0.5478    1.3654   H         1 RES1   0.0000
   142 H79       1.1796    1.8176    2.8505   H         1 RES1   0.0000
   143 H80       2.6398    0.8322    3.0252   H         1 RES1   0.0000
   144 H81      -1.3355   -1.5643    3.8138   H         1 RES1   0.0000
   145 H82      -0.8552   -1.4222    5.5204   H         1 RES1   0.0000
   146 H83       1.0601   -2.9627    5.0765   H         1 RES1   0.0000
   147 H84       0.5350   -3.1085    3.3941   H         1 RES1   0.0000
   148 H85      -1.1308   -3.8710    5.8432   H         1 RES1   0.0000
   149 H86      -0.3387   -4.9965    4.7497   H         1 RES1   0.0000
   150 H87      -1.6734   -4.0023    4.1716   H         1 RES1   0.0000
   151 H88       1.5027    1.1370    5.0292   H         1 RES1   0.0000
   152 H89       0.9730   -0.1179    6.1397   H         1 RES1   0.0000
   153 H90      -0.4430    1.6272    6.7082   H         1 RES1   0.0000
   154 H91      -1.4551    0.6964    5.6275   H         1 RES1   0.0000
   155 H92      -0.7448    2.3209    3.7651   H         1 RES1   0.0000
   156 H93       0.0800    3.2531    5.0136   H         1 RES1   0.0000
   157 H94      -1.9414    4.3709    4.9041   H         1 RES1   0.0000
   158 H95      -2.2116    3.2778    6.2484   H         1 RES1   0.0000
   159 H96      -4.1808    3.2262    4.9406   H         1 RES1   0.0000
   160 H97      -3.3756    1.6959    4.6424   H         1 RES1   0.0000
   161 H98      -4.0430    2.3609    2.4993   H         1 RES1   0.0000
   162 H99      -2.3433    2.8986    2.5516   H         1 RES1   0.0000
   163 H100     -3.0492    5.1842    3.0471   H         1 RES1   0.0000
   164 H101     -4.7390    4.7029    2.9299   H         1 RES1   0.0000
   165 H102     -2.6749    4.3753    0.6938   H         1 RES1   0.0000
   166 H103     -3.8464    5.6820    0.7880   H         1 RES1   0.0000
   167 H104     -4.4131    4.0285    0.5714   H         1 RES1   0.0000
   168 O7       -1.3916    0.6449    1.8718   O.3       1 RES1   0.0000
   169 H105     -1.8729    1.4828    2.0016   H         1 RES1   0.0000
   170 H106     -1.7241    0.0348    2.5463   H         1 RES1   0.0000
   171 O8       -0.3095   -1.5540   -2.3756   O.3       1 RES1   0.0000
   172 H107     -1.1653   -1.7971   -2.7654   H         1 RES1   0.0000
   173 H108      0.3531   -2.1146   -2.8183   H         1 RES1   0.0000
@<TRIPOS>BOND
     1     1    15    1
     2     1    17    1
     3     1    20    1
     4     1    98    1
     5     1   100    1
     6     1   103    1
     7     1   168    1
     8     1   171    1
     9     2     3    1
    10     2    33    1
    11     2    34    1
    12     2    35    1
    13     3     4    1
    14     3    36    1
    15     3    37    1
    16     4     5    1
    17     4    38    1
    18     4    39    1
    19     5     6    1
    20     5    40    1
    21     5    41    1
    22     6     7    1
    23     6    42    1
    24     6    43    1
    25     7     8    1
    26     7    44    1
    27     7    45    1
    28     8     9    1
    29     8    46    1
    30     8    47    1
    31     9    10    1
    32     9    48    1
    33     9    49    1
    34    10    11    1
    35    10    14    1
    36    11    12    1
    37    11    50    1
    38    11    51    1
    39    12    13    1
    40    12    52    1
    41    12    53    1
    42    13    54    1
    43    13    55    1
    44    13    56    1
    45    14    15    2
    46    14    16    1
    47    16    17    1
    48    16    57    1
    49    16    58    1
    50    17    18    1
    51    18    19    1
    52    18    59    1
    53    18    60    1
    54    19    20    2
    55    19    21    1
    56    21    22    1
    57    21    25    1
    58    22    23    1
    59    22    61    1
    60    22    62    1
    61    23    24    1
    62    23    63    1
    63    23    64    1
    64    24    65    1
    65    24    66    1
    66    24    67    1
    67    25    26    1
    68    25    68    1
    69    25    69    1
    70    26    27    1
    71    26    70    1
    72    26    71    1
    73    27    28    1
    74    27    72    1
    75    27    73    1
    76    28    29    1
    77    28    74    1
    78    28    75    1
    79    29    30    1
    80    29    76    1
    81    29    77    1
    82    30    31    1
    83    30    78    1
    84    30    79    1
    85    31    32    1
    86    31    80    1
    87    31    81    1
    88    32    82    1
    89    32    83    1
    90    32    84    1
    91    85    86    1
    92    85   116    1
    93    85   117    1
    94    85   118    1
    95    86    87    1
    96    86   119    1
    97    86   120    1
    98    87    88    1
    99    87   121    1
   100    87   122    1
   101    88    89    1
   102    88   123    1
   103    88   124    1
   104    89    90    1
   105    89   125    1
   106    89   126    1
   107    90    91    1
   108    90   127    1
   109    90   128    1
   110    91    92    1
   111    91   129    1
   112    91   130    1
   113    92    93    1
   114    92   131    1
   115    92   132    1
   116    93    94    1
   117    93    97    1
   118    94    95    1
   119    94   133    1
   120    94   134    1
   121    95    96    1
   122    95   135    1
   123    95   136    1
   124    96   137    1
   125    96   138    1
   126    96   139    1
   127    97    98    2
   128    97    99    1
   129    99   100    1
   130    99   140    1
   131    99   141    1
   132   100   101    1
   133   101   102    1
   134   101   142    1
   135   101   143    1
   136   102   103    2
   137   102   104    1
   138   104   105    1
   139   104   108    1
   140   105   106    1
   141   105   144    1
   142   105   145    1
   143   106   107    1
   144   106   146    1
   145   106   147    1
   146   107   148    1
   147   107   149    1
   148   107   150    1
   149   108   109    1
   150   108   151    1
   151   108   152    1
   152   109   110    1
   153   109   153    1
   154   109   154    1
   155   110   111    1
   156   110   155    1
   157   110   156    1
   158   111   112    1
   159   111   157    1
   160   111   158    1
   161   112   113    1
   162   112   159    1
   163   112   160    1
   164   113   114    1
   165   113   161    1
   166   113   162    1
   167   114   115    1
   168   114   163    1
   169   114   164    1
   170   115   165    1
   171   115   166    1
   172   115   167    1
   173   168   169    1
   174   168   170    1
   175   171   172    1
   176   171   173    1
@<TRIPOS>SUBSTRUCTURE
     1 RES1      173 GROUP             0 ****  ****    0  
