@<TRIPOS>MOLECULE
dodecahedral_0_nunpairedes_0_charge_3 Charge: 3 Unpaired_Electrons: 6 XTB_Unpaired_Electrons: 0 XTB_Charge: 3
   437   440     1     0     0
SMALL
NoCharges
****
Generated from Architector

@<TRIPOS>ATOM
     1 Tb1       0.1040   -0.0100    0.1720   Tb        1 RES1   0.0000
     2 C1       -5.1490    7.4658   -1.4101   C.3       1 RES1   0.0000
     3 C2       -6.1904    6.6006   -0.7069   C.3       1 RES1   0.0000
     4 C3       -5.6010    5.4960    0.1747   C.3       1 RES1   0.0000
     5 C4       -4.8867    6.0429    1.4198   C.3       1 RES1   0.0000
     6 C5       -3.3717    5.8546    1.4483   C.3       1 RES1   0.0000
     7 C6       -2.8241    6.4331    2.7531   C.3       1 RES1   0.0000
     8 C7       -1.3488    6.1312    2.9914   C.3       1 RES1   0.0000
     9 C8       -1.0839    4.6360    3.2574   C.3       1 RES1   0.0000
    10 N1       -0.4358    3.8743    2.1864   N.am      1 RES1   0.0000
    11 C9        0.1706    4.5870    1.0748   C.3       1 RES1   0.0000
    12 C10       1.3542    5.4463    1.5289   C.3       1 RES1   0.0000
    13 C11       1.7098    6.4643    0.4415   C.3       1 RES1   0.0000
    14 C12       3.2143    6.7296    0.4647   C.3       1 RES1   0.0000
    15 C13       4.0582    5.5157    0.0670   C.3       1 RES1   0.0000
    16 C14       3.8775    5.1385   -1.4052   C.3       1 RES1   0.0000
    17 C15       3.9564    3.6365   -1.6749   C.3       1 RES1   0.0000
    18 C16       2.6984    2.8988   -1.2138   C.3       1 RES1   0.0000
    19 C17      -0.3082    2.5417    2.2096   C.2       1 RES1   0.0000
    20 O1        0.1464    1.9306    1.2228   O.2       1 RES1   0.0000
    21 C18      -0.7277    1.8078    3.4799   C.3       1 RES1   0.0000
    22 C19      -0.1086    0.4102    3.6061   C.2       1 RES1   0.0000
    23 O2        0.3558   -0.1891    2.6200   O.2       1 RES1   0.0000
    24 N2       -0.0816   -0.0892    4.8451   N.am      1 RES1   0.0000
    25 C20      -1.0070    0.2752    5.9097   C.3       1 RES1   0.0000
    26 C21      -2.2889   -0.5877    5.8701   C.3       1 RES1   0.0000
    27 C22      -2.5120   -1.5213    7.0618   C.3       1 RES1   0.0000
    28 C23      -3.9774   -1.9690    7.1186   C.3       1 RES1   0.0000
    29 C24      -4.2315   -3.1082    8.1171   C.3       1 RES1   0.0000
    30 C25      -4.2747   -4.4980    7.4741   C.3       1 RES1   0.0000
    31 C26      -5.6601   -4.8395    6.9252   C.3       1 RES1   0.0000
    32 C27      -5.6988   -6.2252    6.2887   C.3       1 RES1   0.0000
    33 C28       0.7584   -1.2371    5.1621   C.3       1 RES1   0.0000
    34 C29       2.1330   -0.7841    5.6804   C.3       1 RES1   0.0000
    35 C30       2.7251   -1.7197    6.7426   C.3       1 RES1   0.0000
    36 C31       2.7734   -3.2066    6.3737   C.3       1 RES1   0.0000
    37 C32       3.7952   -3.5947    5.2940   C.3       1 RES1   0.0000
    38 C33       5.1747   -3.9279    5.8669   C.3       1 RES1   0.0000
    39 C34       6.2347   -4.1938    4.7950   C.3       1 RES1   0.0000
    40 C35       5.9901   -5.4614    3.9785   C.3       1 RES1   0.0000
    41 H1       -5.6395    8.2277   -2.0129   H         1 RES1   0.0000
    42 H2       -4.5293    6.8676   -2.0788   H         1 RES1   0.0000
    43 H3       -4.5049    7.9722   -0.6942   H         1 RES1   0.0000
    44 H4       -6.8353    6.1507   -1.4662   H         1 RES1   0.0000
    45 H5       -6.8213    7.2337   -0.0810   H         1 RES1   0.0000
    46 H6       -4.9257    4.8725   -0.4167   H         1 RES1   0.0000
    47 H7       -6.4311    4.8590    0.4858   H         1 RES1   0.0000
    48 H8       -5.3038    5.5753    2.3141   H         1 RES1   0.0000
    49 H9       -5.0831    7.1116    1.5014   H         1 RES1   0.0000
    50 H10      -2.9206    6.3763    0.6018   H         1 RES1   0.0000
    51 H11      -3.1134    4.7951    1.3593   H         1 RES1   0.0000
    52 H12      -2.9538    7.5159    2.7353   H         1 RES1   0.0000
    53 H13      -3.3962    6.0513    3.6009   H         1 RES1   0.0000
    54 H14      -1.0183    6.7012    3.8619   H         1 RES1   0.0000
    55 H15      -0.7912    6.4995    2.1406   H         1 RES1   0.0000
    56 H16      -2.0537    4.1643    3.4435   H         1 RES1   0.0000
    57 H17      -0.4792    4.5559    4.1687   H         1 RES1   0.0000
    58 H18      -0.5906    5.1733    0.5549   H         1 RES1   0.0000
    59 H19       0.5359    3.8284    0.3795   H         1 RES1   0.0000
    60 H20       2.2048    4.7886    1.7121   H         1 RES1   0.0000
    61 H21       1.1637    5.9675    2.4678   H         1 RES1   0.0000
    62 H22       1.1624    7.3960    0.6173   H         1 RES1   0.0000
    63 H23       1.4002    6.0837   -0.5371   H         1 RES1   0.0000
    64 H24       3.4760    7.0293    1.4805   H         1 RES1   0.0000
    65 H25       3.4618    7.5480   -0.2101   H         1 RES1   0.0000
    66 H26       3.8213    4.6563    0.6946   H         1 RES1   0.0000
    67 H27       5.1044    5.7539    0.2578   H         1 RES1   0.0000
    68 H28       4.6351    5.6477   -2.0004   H         1 RES1   0.0000
    69 H29       2.9101    5.4948   -1.7612   H         1 RES1   0.0000
    70 H30       4.8486    3.2375   -1.1979   H         1 RES1   0.0000
    71 H31       4.0795    3.5057   -2.7503   H         1 RES1   0.0000
    72 H32       2.7328    2.5918   -0.1716   H         1 RES1   0.0000
    73 H33       2.5099    2.0088   -1.8151   H         1 RES1   0.0000
    74 H34       1.8489    3.5681   -1.3172   H         1 RES1   0.0000
    75 H35      -1.8200    1.7191    3.4892   H         1 RES1   0.0000
    76 H36      -0.4287    2.3982    4.3533   H         1 RES1   0.0000
    77 H37      -1.2820    1.3246    5.8590   H         1 RES1   0.0000
    78 H38      -0.4835    0.1246    6.8505   H         1 RES1   0.0000
    79 H39      -2.2818   -1.1817    4.9587   H         1 RES1   0.0000
    80 H40      -3.1532    0.0717    5.8078   H         1 RES1   0.0000
    81 H41      -2.2588   -1.0097    7.9910   H         1 RES1   0.0000
    82 H42      -1.8742   -2.4019    6.9815   H         1 RES1   0.0000
    83 H43      -4.2924   -2.2897    6.1228   H         1 RES1   0.0000
    84 H44      -4.5956   -1.1123    7.3949   H         1 RES1   0.0000
    85 H45      -5.1859   -2.9412    8.6177   H         1 RES1   0.0000
    86 H46      -3.4608   -3.0909    8.8872   H         1 RES1   0.0000
    87 H47      -4.0054   -5.2502    8.2172   H         1 RES1   0.0000
    88 H48      -3.5381   -4.5575    6.6691   H         1 RES1   0.0000
    89 H49      -5.9612   -4.0931    6.1874   H         1 RES1   0.0000
    90 H50      -6.3855   -4.8045    7.7401   H         1 RES1   0.0000
    91 H51      -4.9214   -6.3205    5.5299   H         1 RES1   0.0000
    92 H52      -6.6634   -6.4068    5.8162   H         1 RES1   0.0000
    93 H53      -5.5352   -6.9951    7.0410   H         1 RES1   0.0000
    94 H54       0.8750   -1.8414    4.2656   H         1 RES1   0.0000
    95 H55       0.2553   -1.8298    5.9244   H         1 RES1   0.0000
    96 H56       2.0435    0.1988    6.1502   H         1 RES1   0.0000
    97 H57       2.8167   -0.6849    4.8380   H         1 RES1   0.0000
    98 H58       2.1179   -1.6303    7.6465   H         1 RES1   0.0000
    99 H59       3.7266   -1.3648    6.9953   H         1 RES1   0.0000
   100 H60       1.7721   -3.5150    6.0615   H         1 RES1   0.0000
   101 H61       3.0040   -3.7662    7.2833   H         1 RES1   0.0000
   102 H62       3.8907   -2.7882    4.5627   H         1 RES1   0.0000
   103 H63       3.4204   -4.4761    4.7689   H         1 RES1   0.0000
   104 H64       5.0912   -4.8107    6.5021   H         1 RES1   0.0000
   105 H65       5.5222   -3.1079    6.4979   H         1 RES1   0.0000
   106 H66       7.2022   -4.2915    5.2902   H         1 RES1   0.0000
   107 H67       6.2960   -3.3328    4.1224   H         1 RES1   0.0000
   108 H68       5.8305   -6.3160    4.6331   H         1 RES1   0.0000
   109 H69       6.8594   -5.6762    3.3594   H         1 RES1   0.0000
   110 H70       5.1235   -5.3569    3.3265   H         1 RES1   0.0000
   111 C36      -1.2264   -7.7740   -4.8284   C.3       1 RES1   0.0000
   112 C37      -0.5870   -6.8621   -5.8703   C.3       1 RES1   0.0000
   113 C38       0.2065   -5.6912   -5.2843   C.3       1 RES1   0.0000
   114 C39       1.4813   -6.1207   -4.5451   C.3       1 RES1   0.0000
   115 C40       1.4936   -5.8691   -3.0373   C.3       1 RES1   0.0000
   116 C41       2.8167   -6.4001   -2.4873   C.3       1 RES1   0.0000
   117 C42       3.1136   -6.0799   -1.0264   C.3       1 RES1   0.0000
   118 C43       3.3375   -4.5779   -0.7672   C.3       1 RES1   0.0000
   119 N3        2.2062   -3.8211   -0.2305   N.am      1 RES1   0.0000
   120 C44       1.1081   -4.5609    0.3733   C.3       1 RES1   0.0000
   121 C45       1.5723   -5.3091    1.6294   C.3       1 RES1   0.0000
   122 C46       0.5973   -6.4384    1.9766   C.3       1 RES1   0.0000
   123 C47       0.5285   -6.6966    3.4794   C.3       1 RES1   0.0000
   124 C48      -0.0052   -5.5026    4.2673   C.3       1 RES1   0.0000
   125 C49      -1.4707   -5.1750    3.9712   C.3       1 RES1   0.0000
   126 C50      -1.7610   -3.6803    4.0934   C.3       1 RES1   0.0000
   127 C51      -1.2745   -2.8895    2.8830   C.3       1 RES1   0.0000
   128 C52       2.1960   -2.4890   -0.1257   C.2       1 RES1   0.0000
   129 O3        1.1761   -1.9070    0.2907   O.2       1 RES1   0.0000
   130 C53       3.4656   -1.7239   -0.5002   C.3       1 RES1   0.0000
   131 C54       3.5428   -0.3192    0.1127   C.2       1 RES1   0.0000
   132 O4        2.5252    0.2510    0.5463   O.2       1 RES1   0.0000
   133 N4        4.7608    0.2288    0.1679   N.am      1 RES1   0.0000
   134 C55       5.8959   -0.1287   -0.6719   C.3       1 RES1   0.0000
   135 C56       5.8843    0.6508   -2.0084   C.3       1 RES1   0.0000
   136 C57       7.0685    1.5956   -2.2495   C.3       1 RES1   0.0000
   137 C58       7.1924    1.9472   -3.7384   C.3       1 RES1   0.0000
   138 C59       8.1841    3.0848   -4.0346   C.3       1 RES1   0.0000
   139 C60       7.5197    4.4559   -4.1982   C.3       1 RES1   0.0000
   140 C61       6.9488    4.6752   -5.5996   C.3       1 RES1   0.0000
   141 C62       6.2957    6.0466   -5.7324   C.3       1 RES1   0.0000
   142 C63       5.0211    1.4026    0.9911   C.3       1 RES1   0.0000
   143 C64       5.6419    1.0176    2.3422   C.3       1 RES1   0.0000
   144 C65       6.7122    2.0088    2.8223   C.3       1 RES1   0.0000
   145 C66       6.3438    3.4955    2.8057   C.3       1 RES1   0.0000
   146 C67       5.1867    3.9195    3.7136   C.3       1 RES1   0.0000
   147 C68       5.5457    3.8403    5.1979   C.3       1 RES1   0.0000
   148 C69       4.3811    4.2144    6.1177   C.3       1 RES1   0.0000
   149 C70       3.9643    5.6789    6.0085   C.3       1 RES1   0.0000
   150 H71      -1.7607   -8.5862   -5.3176   H         1 RES1   0.0000
   151 H72      -1.9459   -7.2258   -4.2197   H         1 RES1   0.0000
   152 H73      -0.4775   -8.2152   -4.1743   H         1 RES1   0.0000
   153 H74      -1.3779   -6.4655   -6.5118   H         1 RES1   0.0000
   154 H75       0.0808   -7.4474   -6.5040   H         1 RES1   0.0000
   155 H76      -0.4380   -5.1089   -4.6226   H         1 RES1   0.0000
   156 H77       0.4800   -5.0447   -6.1194   H         1 RES1   0.0000
   157 H78       2.3436   -5.6085   -4.9786   H         1 RES1   0.0000
   158 H79       1.6434   -7.1869   -4.7000   H         1 RES1   0.0000
   159 H80       0.6587   -6.3935   -2.5669   H         1 RES1   0.0000
   160 H81       1.3828   -4.8016   -2.8228   H         1 RES1   0.0000
   161 H82       3.6401   -6.0102   -3.0893   H         1 RES1   0.0000
   162 H83       2.8264   -7.4841   -2.6042   H         1 RES1   0.0000
   163 H84       4.0411   -6.5950   -0.7680   H         1 RES1   0.0000
   164 H85       2.3376   -6.5009   -0.3967   H         1 RES1   0.0000
   165 H86       3.6089   -4.1231   -1.7240   H         1 RES1   0.0000
   166 H87       4.1865   -4.4749   -0.0791   H         1 RES1   0.0000
   167 H88       0.6846   -5.2445   -0.3627   H         1 RES1   0.0000
   168 H89       0.3381   -3.8327    0.6402   H         1 RES1   0.0000
   169 H90       1.6447   -4.5852    2.4396   H         1 RES1   0.0000
   170 H91       2.5740   -5.7235    1.5098   H         1 RES1   0.0000
   171 H92       0.9164   -7.3541    1.4742   H         1 RES1   0.0000
   172 H93      -0.4001   -6.1902    1.6064   H         1 RES1   0.0000
   173 H94       1.5268   -6.9411    3.8429   H         1 RES1   0.0000
   174 H95      -0.1091   -7.5593    3.6649   H         1 RES1   0.0000
   175 H96       0.6051   -4.6276    4.0473   H         1 RES1   0.0000
   176 H97       0.1168   -5.7053    5.3321   H         1 RES1   0.0000
   177 H98      -2.1034   -5.7296    4.6624   H         1 RES1   0.0000
   178 H99      -1.7463   -5.5022    2.9684   H         1 RES1   0.0000
   179 H100     -1.2900   -3.3139    5.0027   H         1 RES1   0.0000
   180 H101     -2.8358   -3.5371    4.2043   H         1 RES1   0.0000
   181 H102     -0.1938   -2.8007    2.8428   H         1 RES1   0.0000
   182 H103     -1.7019   -1.8881    2.8626   H         1 RES1   0.0000
   183 H104     -1.5794   -3.3948    1.9750   H         1 RES1   0.0000
   184 H105      3.5157   -1.6198   -1.5888   H         1 RES1   0.0000
   185 H106      4.3351   -2.3074   -0.1806   H         1 RES1   0.0000
   186 H107      5.9290   -1.1957   -0.8719   H         1 RES1   0.0000
   187 H108      6.7906    0.1154   -0.1042   H         1 RES1   0.0000
   188 H109      4.9587    1.2219   -2.0619   H         1 RES1   0.0000
   189 H110      5.8635   -0.0645   -2.8287   H         1 RES1   0.0000
   190 H111      7.9931    1.1185   -1.9236   H         1 RES1   0.0000
   191 H112      6.9453    2.5138   -1.6721   H         1 RES1   0.0000
   192 H113      6.2081    2.2276   -4.1184   H         1 RES1   0.0000
   193 H114      7.5106    1.0567   -4.2850   H         1 RES1   0.0000
   194 H115      8.7219    2.8554   -4.9551   H         1 RES1   0.0000
   195 H116      8.9319    3.1393   -3.2427   H         1 RES1   0.0000
   196 H117      8.2526    5.2407   -4.0012   H         1 RES1   0.0000
   197 H118      6.7228    4.5634   -3.4580   H         1 RES1   0.0000
   198 H119      6.2148    3.9000   -5.8282   H         1 RES1   0.0000
   199 H120      7.7543    4.5897   -6.3315   H         1 RES1   0.0000
   200 H121      5.5440    6.1913   -4.9568   H         1 RES1   0.0000
   201 H122      5.8150    6.1544   -6.7024   H         1 RES1   0.0000
   202 H123      7.0394    6.8338   -5.6319   H         1 RES1   0.0000
   203 H124      4.0930    1.9455    1.1453   H         1 RES1   0.0000
   204 H125      5.7158    2.0440    0.4536   H         1 RES1   0.0000
   205 H126      6.1373    0.0469    2.2590   H         1 RES1   0.0000
   206 H127      4.8541    0.9134    3.0869   H         1 RES1   0.0000
   207 H128      7.5916    1.8970    2.1837   H         1 RES1   0.0000
   208 H129      7.0155    1.7208    3.8305   H         1 RES1   0.0000
   209 H130      6.1226    3.8014    1.7810   H         1 RES1   0.0000
   210 H131      7.2350    4.0499    3.1091   H         1 RES1   0.0000
   211 H132      4.2958    3.3148    3.5120   H         1 RES1   0.0000
   212 H133      4.9413    4.9572    3.4745   H         1 RES1   0.0000
   213 H134      6.3820    4.5147    5.3924   H         1 RES1   0.0000
   214 H135      5.8760    2.8281    5.4447   H         1 RES1   0.0000
   215 H136      4.6817    4.0148    7.1479   H         1 RES1   0.0000
   216 H137      3.5247    3.5689    5.8936   H         1 RES1   0.0000
   217 H138      4.8196    6.3321    6.1647   H         1 RES1   0.0000
   218 H139      3.2226    5.9138    6.7686   H         1 RES1   0.0000
   219 H140      3.5368    5.8957    5.0315   H         1 RES1   0.0000
   220 C71      -8.8943   -8.2798   -0.1278   C.3       1 RES1   0.0000
   221 C72      -9.0650   -7.0068   -0.9553   C.3       1 RES1   0.0000
   222 C73      -8.2943   -5.8550   -0.3157   C.3       1 RES1   0.0000
   223 C74      -8.3441   -4.5227   -1.0708   C.3       1 RES1   0.0000
   224 C75      -7.6387   -3.4745   -0.2094   C.3       1 RES1   0.0000
   225 C76      -7.4351   -2.0645   -0.7694   C.3       1 RES1   0.0000
   226 C77      -6.6016   -1.2538    0.2383   C.3       1 RES1   0.0000
   227 C78      -6.0827    0.1054   -0.2701   C.3       1 RES1   0.0000
   228 N5       -4.8746    0.5749    0.4347   N.am      1 RES1   0.0000
   229 C79      -5.3094    1.4119    1.5793   C.3       1 RES1   0.0000
   230 C80      -4.3305    2.2309    2.4380   C.3       1 RES1   0.0000
   231 C81      -4.4130    1.9423    3.9592   C.3       1 RES1   0.0000
   232 C82      -4.5338    3.1987    4.8496   C.3       1 RES1   0.0000
   233 C83      -3.9516    3.0111    6.2689   C.3       1 RES1   0.0000
   234 C84      -2.6497    3.7935    6.4997   C.3       1 RES1   0.0000
   235 C85      -1.8786    3.3578    7.7582   C.3       1 RES1   0.0000
   236 C86      -0.3657    3.5555    7.6171   C.3       1 RES1   0.0000
   237 C87      -3.6494    0.1646    0.0837   C.2       1 RES1   0.0000
   238 O5       -2.5804    0.5405    0.5961   O.2       1 RES1   0.0000
   239 C88      -3.6129   -0.8303   -1.1001   C.3       1 RES1   0.0000
   240 C89      -2.6586   -1.9944   -0.8616   C.2       1 RES1   0.0000
   241 O6       -1.5349   -1.7813   -0.3691   O.2       1 RES1   0.0000
   242 N6       -3.0864   -3.2231   -1.1772   N.am      1 RES1   0.0000
   243 C90      -2.2909   -4.3630   -0.7217   C.3       1 RES1   0.0000
   244 C91      -3.0167   -5.6872   -0.4496   C.3       1 RES1   0.0000
   245 C92      -4.1313   -5.7006    0.6216   C.3       1 RES1   0.0000
   246 C93      -4.2685   -4.4162    1.4352   C.3       1 RES1   0.0000
   247 C94      -5.3574   -4.5043    2.5059   C.3       1 RES1   0.0000
   248 C95      -5.5458   -3.1792    3.2636   C.3       1 RES1   0.0000
   249 C96      -7.0031   -2.9208    3.6487   C.3       1 RES1   0.0000
   250 C97      -7.1912   -1.5331    4.2492   C.3       1 RES1   0.0000
   251 C98      -4.2014   -3.5587   -2.0477   C.3       1 RES1   0.0000
   252 C99      -3.7648   -4.1640   -3.3880   C.3       1 RES1   0.0000
   253 C100     -3.2349   -3.1641   -4.4197   C.3       1 RES1   0.0000
   254 C101     -3.4817   -3.7099   -5.8263   C.3       1 RES1   0.0000
   255 C102     -3.0310   -2.7697   -6.9490   C.3       1 RES1   0.0000
   256 C103     -1.6404   -3.1128   -7.4730   C.3       1 RES1   0.0000
   257 C104     -1.2215   -2.2001   -8.6229   C.3       1 RES1   0.0000
   258 C105      0.1753   -2.5302   -9.1389   C.3       1 RES1   0.0000
   259 H141     -9.4775   -9.0970   -0.5468   H         1 RES1   0.0000
   260 H142     -9.2243   -8.1064    0.8957   H         1 RES1   0.0000
   261 H143     -7.8476   -8.5845   -0.1036   H         1 RES1   0.0000
   262 H144    -10.1234   -6.7493   -1.0157   H         1 RES1   0.0000
   263 H145     -8.7062   -7.1819   -1.9718   H         1 RES1   0.0000
   264 H146     -7.2508   -6.1633   -0.2066   H         1 RES1   0.0000
   265 H147     -8.6851   -5.6998    0.6927   H         1 RES1   0.0000
   266 H148     -9.3829   -4.2459   -1.2459   H         1 RES1   0.0000
   267 H149     -7.8606   -4.6313   -2.0442   H         1 RES1   0.0000
   268 H150     -6.6554   -3.8727    0.0428   H         1 RES1   0.0000
   269 H151     -8.2074   -3.3908    0.7186   H         1 RES1   0.0000
   270 H152     -8.4003   -1.5867   -0.9331   H         1 RES1   0.0000
   271 H153     -6.9252   -2.1015   -1.7356   H         1 RES1   0.0000
   272 H154     -5.7451   -1.8535    0.5576   H         1 RES1   0.0000
   273 H155     -7.2123   -1.0824    1.1259   H         1 RES1   0.0000
   274 H156     -6.8526    0.8513   -0.1046   H         1 RES1   0.0000
   275 H157     -5.9124    0.1063   -1.3480   H         1 RES1   0.0000
   276 H158     -5.8818    0.7283    2.2175   H         1 RES1   0.0000
   277 H159     -6.0338    2.1182    1.1523   H         1 RES1   0.0000
   278 H160     -4.6018    3.2753    2.2958   H         1 RES1   0.0000
   279 H161     -3.3189    2.0883    2.0519   H         1 RES1   0.0000
   280 H162     -3.5271    1.3915    4.2708   H         1 RES1   0.0000
   281 H163     -5.2576    1.2881    4.1771   H         1 RES1   0.0000
   282 H164     -5.5785    3.5036    4.9309   H         1 RES1   0.0000
   283 H165     -4.0010    4.0208    4.3737   H         1 RES1   0.0000
   284 H166     -3.7732    1.9501    6.4471   H         1 RES1   0.0000
   285 H167     -4.6723    3.3238    7.0244   H         1 RES1   0.0000
   286 H168     -2.8889    4.8564    6.5800   H         1 RES1   0.0000
   287 H169     -1.9941    3.6783    5.6335   H         1 RES1   0.0000
   288 H170     -2.0946    2.3090    7.9783   H         1 RES1   0.0000
   289 H171     -2.2191    3.9386    8.6165   H         1 RES1   0.0000
   290 H172     -0.1367    4.5865    7.3533   H         1 RES1   0.0000
   291 H173      0.0642    2.9114    6.8465   H         1 RES1   0.0000
   292 H174      0.1397    3.3285    8.5548   H         1 RES1   0.0000
   293 H175     -3.2746   -0.2784   -1.9793   H         1 RES1   0.0000
   294 H176     -4.6009   -1.2086   -1.3056   H         1 RES1   0.0000
   295 H177     -1.8185   -4.0391    0.2023   H         1 RES1   0.0000
   296 H178     -1.4918   -4.5677   -1.4407   H         1 RES1   0.0000
   297 H179     -2.2165   -6.3681   -0.1488   H         1 RES1   0.0000
   298 H180     -3.4271   -6.1128   -1.3622   H         1 RES1   0.0000
   299 H181     -3.9544   -6.5247    1.3160   H         1 RES1   0.0000
   300 H182     -5.0923   -5.9089    0.1457   H         1 RES1   0.0000
   301 H183     -4.4985   -3.5779    0.7720   H         1 RES1   0.0000
   302 H184     -3.3296   -4.1980    1.9284   H         1 RES1   0.0000
   303 H185     -5.1169   -5.3020    3.2100   H         1 RES1   0.0000
   304 H186     -6.2963   -4.7764    2.0265   H         1 RES1   0.0000
   305 H187     -5.1869   -2.3447    2.6489   H         1 RES1   0.0000
   306 H188     -4.9407   -3.1873    4.1721   H         1 RES1   0.0000
   307 H189     -7.3319   -3.6785    4.3614   H         1 RES1   0.0000
   308 H190     -7.6300   -3.0139    2.7613   H         1 RES1   0.0000
   309 H191     -6.7189   -1.4647    5.2245   H         1 RES1   0.0000
   310 H192     -8.2457   -1.3041    4.3696   H         1 RES1   0.0000
   311 H193     -6.7462   -0.7740    3.6047   H         1 RES1   0.0000
   312 H194     -4.8079   -2.6803   -2.2547   H         1 RES1   0.0000
   313 H195     -4.8312   -4.2784   -1.5213   H         1 RES1   0.0000
   314 H196     -4.6518   -4.6580   -3.7904   H         1 RES1   0.0000
   315 H197     -3.0109   -4.9344   -3.2325   H         1 RES1   0.0000
   316 H198     -2.1644   -3.0036   -4.2698   H         1 RES1   0.0000
   317 H199     -3.7362   -2.1972   -4.3107   H         1 RES1   0.0000
   318 H200     -4.5485   -3.9057   -5.9367   H         1 RES1   0.0000
   319 H201     -2.9615   -4.6643   -5.9221   H         1 RES1   0.0000
   320 H202     -3.0484   -1.7340   -6.5950   H         1 RES1   0.0000
   321 H203     -3.7369   -2.8361   -7.7775   H         1 RES1   0.0000
   322 H204     -1.6469   -4.1436   -7.8300   H         1 RES1   0.0000
   323 H205     -0.9222   -3.0531   -6.6502   H         1 RES1   0.0000
   324 H206     -1.2715   -1.1553   -8.3064   H         1 RES1   0.0000
   325 H207     -1.9370   -2.3179   -9.4364   H         1 RES1   0.0000
   326 H208      0.9240   -2.4550   -8.3481   H         1 RES1   0.0000
   327 H209      0.4543   -1.8515   -9.9420   H         1 RES1   0.0000
   328 H210      0.1999   -3.5480   -9.5213   H         1 RES1   0.0000
   329 C106     -0.2561    7.9263   -8.8323   C.3       1 RES1   0.0000
   330 C107     -1.0004    6.6136   -9.0733   C.3       1 RES1   0.0000
   331 C108     -0.3657    5.4912   -8.2561   C.3       1 RES1   0.0000
   332 C109     -1.0363    4.1163   -8.3611   C.3       1 RES1   0.0000
   333 C110     -0.1302    3.1141   -7.6444   C.3       1 RES1   0.0000
   334 C111     -0.6303    1.6913   -7.3824   C.3       1 RES1   0.0000
   335 C112      0.4313    0.9563   -6.5432   C.3       1 RES1   0.0000
   336 C113      0.0005   -0.4051   -5.9631   C.3       1 RES1   0.0000
   337 N7        0.7038   -0.7774   -4.7202   N.am      1 RES1   0.0000
   338 C114      1.8014   -1.6991   -5.0907   C.3       1 RES1   0.0000
   339 C115      2.6862   -2.3971   -4.0525   C.3       1 RES1   0.0000
   340 C116      4.1838   -2.0119   -4.0780   C.3       1 RES1   0.0000
   341 C117      5.1261   -3.2311   -4.1722   C.3       1 RES1   0.0000
   342 C118      6.5175   -3.0202   -3.5347   C.3       1 RES1   0.0000
   343 C119      6.6556   -3.6946   -2.1619   C.3       1 RES1   0.0000
   344 C120      7.8931   -3.2880   -1.3400   C.3       1 RES1   0.0000
   345 C121      7.6131   -3.4203    0.1606   C.3       1 RES1   0.0000
   346 C122      0.2958   -0.3458   -3.5218   C.2       1 RES1   0.0000
   347 O7        0.7811   -0.6637   -2.4227   O.2       1 RES1   0.0000
   348 C123     -0.9301    0.5946   -3.5717   C.3       1 RES1   0.0000
   349 C124     -0.8275    1.7962   -2.6464   C.2       1 RES1   0.0000
   350 O8       -0.3479    1.6656   -1.5037   O.2       1 RES1   0.0000
   351 N8       -1.2365    2.9774   -3.1251   N.am      1 RES1   0.0000
   352 C125     -0.8526    4.1841   -2.3966   C.3       1 RES1   0.0000
   353 C126     -0.5930    5.4498   -3.2249   C.3       1 RES1   0.0000
   354 C127      0.6770    5.5005   -4.1074   C.3       1 RES1   0.0000
   355 C128      1.3838    4.1666   -4.3431   C.3       1 RES1   0.0000
   356 C129      2.5361    4.2855   -5.3483   C.3       1 RES1   0.0000
   357 C130      3.3703    2.9919   -5.4465   C.3       1 RES1   0.0000
   358 C131      3.7558    2.6264   -6.8822   C.3       1 RES1   0.0000
   359 C132      4.4064    1.2489   -6.9701   C.3       1 RES1   0.0000
   360 C133     -2.1292    3.1808   -4.2554   C.3       1 RES1   0.0000
   361 C134     -3.4695    3.8376   -3.8828   C.3       1 RES1   0.0000
   362 C135     -4.5276    2.8905   -3.3123   C.3       1 RES1   0.0000
   363 C136     -5.9221    3.4863   -3.5138   C.3       1 RES1   0.0000
   364 C137     -7.0534    2.5343   -3.1045   C.3       1 RES1   0.0000
   365 C138     -7.6605    2.8928   -1.7523   C.3       1 RES1   0.0000
   366 C139     -8.8018    1.9544   -1.3652   C.3       1 RES1   0.0000
   367 C140     -9.2961    2.2124    0.0551   C.3       1 RES1   0.0000
   368 H211     -0.6673    8.7236   -9.4469   H         1 RES1   0.0000
   369 H212      0.7989    7.8095   -9.0765   H         1 RES1   0.0000
   370 H213     -0.3351    8.2267   -7.7873   H         1 RES1   0.0000
   371 H214     -0.9589    6.3596  -10.1334   H         1 RES1   0.0000
   372 H215     -2.0506    6.7330   -8.7987   H         1 RES1   0.0000
   373 H216     -0.3565    5.7975   -7.2062   H         1 RES1   0.0000
   374 H217      0.6770    5.3932   -8.5679   H         1 RES1   0.0000
   375 H218     -1.1579    3.8526   -9.4104   H         1 RES1   0.0000
   376 H219     -2.0307    4.1538   -7.9109   H         1 RES1   0.0000
   377 H220      0.1190    3.5533   -6.6790   H         1 RES1   0.0000
   378 H221      0.7930    3.0456   -8.2224   H         1 RES1   0.0000
   379 H222     -0.7890    1.1722   -8.3272   H         1 RES1   0.0000
   380 H223     -1.5893    1.7056   -6.8576   H         1 RES1   0.0000
   381 H224      0.7544    1.6008   -5.7220   H         1 RES1   0.0000
   382 H225      1.3061    0.7968   -7.1752   H         1 RES1   0.0000
   383 H226      0.2364   -1.1695   -6.6954   H         1 RES1   0.0000
   384 H227     -1.0773   -0.4761   -5.8113   H         1 RES1   0.0000
   385 H228      2.4228   -1.1276   -5.7882   H         1 RES1   0.0000
   386 H229      1.3137   -2.4889   -5.6771   H         1 RES1   0.0000
   387 H230      2.6360   -3.4533   -4.3043   H         1 RES1   0.0000
   388 H231      2.2342   -2.2689   -3.0689   H         1 RES1   0.0000
   389 H232      4.4463   -1.4451   -3.1871   H         1 RES1   0.0000
   390 H233      4.3834   -1.3508   -4.9215   H         1 RES1   0.0000
   391 H234      5.2563   -3.5099   -5.2178   H         1 RES1   0.0000
   392 H235      4.6486   -4.0774   -3.6810   H         1 RES1   0.0000
   393 H236      6.7126   -1.9509   -3.4475   H         1 RES1   0.0000
   394 H237      7.2930   -3.4272   -4.1840   H         1 RES1   0.0000
   395 H238      6.6839   -4.7756   -2.3118   H         1 RES1   0.0000
   396 H239      5.7660   -3.4765   -1.5663   H         1 RES1   0.0000
   397 H240      8.1961   -2.2643   -1.5762   H         1 RES1   0.0000
   398 H241      8.7355   -3.9371   -1.5880   H         1 RES1   0.0000
   399 H242      7.3264   -4.4442    0.3935   H         1 RES1   0.0000
   400 H243      6.8028   -2.7624    0.4843   H         1 RES1   0.0000
   401 H244      8.4913   -3.1764    0.7547   H         1 RES1   0.0000
   402 H245     -1.7901   -0.0053   -3.2690   H         1 RES1   0.0000
   403 H246     -1.0864    0.9393   -4.5804   H         1 RES1   0.0000
   404 H247      0.0556    3.9287   -1.8572   H         1 RES1   0.0000
   405 H248     -1.6181    4.4206   -1.6513   H         1 RES1   0.0000
   406 H249     -0.5226    6.2462   -2.4817   H         1 RES1   0.0000
   407 H250     -1.4501    5.7032   -3.8436   H         1 RES1   0.0000
   408 H251      1.4026    6.1857   -3.6646   H         1 RES1   0.0000
   409 H252      0.4110    5.9204   -5.0804   H         1 RES1   0.0000
   410 H253      0.6705    3.4249   -4.7117   H         1 RES1   0.0000
   411 H254      1.7823    3.7904   -3.4069   H         1 RES1   0.0000
   412 H255      3.1795    5.1232   -5.0715   H         1 RES1   0.0000
   413 H256      2.1158    4.5222   -6.3259   H         1 RES1   0.0000
   414 H257      2.8161    2.1547   -5.0039   H         1 RES1   0.0000
   415 H258      4.2875    3.1075   -4.8658   H         1 RES1   0.0000
   416 H259      4.4428    3.3754   -7.2784   H         1 RES1   0.0000
   417 H260      2.8636    2.6397   -7.5092   H         1 RES1   0.0000
   418 H261      5.3859    1.2460   -6.4974   H         1 RES1   0.0000
   419 H262      4.5317    0.9507   -8.0082   H         1 RES1   0.0000
   420 H263      3.7856    0.5038   -6.4699   H         1 RES1   0.0000
   421 H264     -2.3534    2.2328   -4.7401   H         1 RES1   0.0000
   422 H265     -1.6128    3.8169   -4.9791   H         1 RES1   0.0000
   423 H266     -3.8515    4.2725   -4.8100   H         1 RES1   0.0000
   424 H267     -3.3170    4.6554   -3.1805   H         1 RES1   0.0000
   425 H268     -4.3524    2.7210   -2.2469   H         1 RES1   0.0000
   426 H269     -4.4748    1.9211   -3.8170   H         1 RES1   0.0000
   427 H270     -6.0397    3.7490   -4.5655   H         1 RES1   0.0000
   428 H271     -5.9945    4.4112   -2.9401   H         1 RES1   0.0000
   429 H272     -6.6755    1.5079   -3.0741   H         1 RES1   0.0000
   430 H273     -7.8410    2.5592   -3.8575   H         1 RES1   0.0000
   431 H274     -8.0507    3.9098   -1.7981   H         1 RES1   0.0000
   432 H275     -6.8730    2.8781   -0.9936   H         1 RES1   0.0000
   433 H276     -8.4869    0.9130   -1.4720   H         1 RES1   0.0000
   434 H277     -9.6268    2.1045   -2.0609   H         1 RES1   0.0000
   435 H278     -8.4975    2.0813    0.7883   H         1 RES1   0.0000
   436 H279    -10.1053    1.5304    0.3089   H         1 RES1   0.0000
   437 H280     -9.6608    3.2337    0.1425   H         1 RES1   0.0000
@<TRIPOS>BOND
     1     1    20    1
     2     1    23    1
     3     1   129    1
     4     1   132    1
     5     1   238    1
     6     1   241    1
     7     1   347    1
     8     1   350    1
     9     2     3    1
    10     2    41    1
    11     2    42    1
    12     2    43    1
    13     3     4    1
    14     3    44    1
    15     3    45    1
    16     4     5    1
    17     4    46    1
    18     4    47    1
    19     5     6    1
    20     5    48    1
    21     5    49    1
    22     6     7    1
    23     6    50    1
    24     6    51    1
    25     7     8    1
    26     7    52    1
    27     7    53    1
    28     8     9    1
    29     8    54    1
    30     8    55    1
    31     9    10    1
    32     9    56    1
    33     9    57    1
    34    10    11    1
    35    10    19    1
    36    11    12    1
    37    11    58    1
    38    11    59    1
    39    12    13    1
    40    12    60    1
    41    12    61    1
    42    13    14    1
    43    13    62    1
    44    13    63    1
    45    14    15    1
    46    14    64    1
    47    14    65    1
    48    15    16    1
    49    15    66    1
    50    15    67    1
    51    16    17    1
    52    16    68    1
    53    16    69    1
    54    17    18    1
    55    17    70    1
    56    17    71    1
    57    18    72    1
    58    18    73    1
    59    18    74    1
    60    19    20    2
    61    19    21    1
    62    21    22    1
    63    21    75    1
    64    21    76    1
    65    22    23    2
    66    22    24    1
    67    24    25    1
    68    24    33    1
    69    25    26    1
    70    25    77    1
    71    25    78    1
    72    26    27    1
    73    26    79    1
    74    26    80    1
    75    27    28    1
    76    27    81    1
    77    27    82    1
    78    28    29    1
    79    28    83    1
    80    28    84    1
    81    29    30    1
    82    29    85    1
    83    29    86    1
    84    30    31    1
    85    30    87    1
    86    30    88    1
    87    31    32    1
    88    31    89    1
    89    31    90    1
    90    32    91    1
    91    32    92    1
    92    32    93    1
    93    33    34    1
    94    33    94    1
    95    33    95    1
    96    34    35    1
    97    34    96    1
    98    34    97    1
    99    35    36    1
   100    35    98    1
   101    35    99    1
   102    36    37    1
   103    36   100    1
   104    36   101    1
   105    37    38    1
   106    37   102    1
   107    37   103    1
   108    38    39    1
   109    38   104    1
   110    38   105    1
   111    39    40    1
   112    39   106    1
   113    39   107    1
   114    40   108    1
   115    40   109    1
   116    40   110    1
   117   111   112    1
   118   111   150    1
   119   111   151    1
   120   111   152    1
   121   112   113    1
   122   112   153    1
   123   112   154    1
   124   113   114    1
   125   113   155    1
   126   113   156    1
   127   114   115    1
   128   114   157    1
   129   114   158    1
   130   115   116    1
   131   115   159    1
   132   115   160    1
   133   116   117    1
   134   116   161    1
   135   116   162    1
   136   117   118    1
   137   117   163    1
   138   117   164    1
   139   118   119    1
   140   118   165    1
   141   118   166    1
   142   119   120    1
   143   119   128    1
   144   120   121    1
   145   120   167    1
   146   120   168    1
   147   121   122    1
   148   121   169    1
   149   121   170    1
   150   122   123    1
   151   122   171    1
   152   122   172    1
   153   123   124    1
   154   123   173    1
   155   123   174    1
   156   124   125    1
   157   124   175    1
   158   124   176    1
   159   125   126    1
   160   125   177    1
   161   125   178    1
   162   126   127    1
   163   126   179    1
   164   126   180    1
   165   127   181    1
   166   127   182    1
   167   127   183    1
   168   128   129    2
   169   128   130    1
   170   130   131    1
   171   130   184    1
   172   130   185    1
   173   131   132    2
   174   131   133    1
   175   133   134    1
   176   133   142    1
   177   134   135    1
   178   134   186    1
   179   134   187    1
   180   135   136    1
   181   135   188    1
   182   135   189    1
   183   136   137    1
   184   136   190    1
   185   136   191    1
   186   137   138    1
   187   137   192    1
   188   137   193    1
   189   138   139    1
   190   138   194    1
   191   138   195    1
   192   139   140    1
   193   139   196    1
   194   139   197    1
   195   140   141    1
   196   140   198    1
   197   140   199    1
   198   141   200    1
   199   141   201    1
   200   141   202    1
   201   142   143    1
   202   142   203    1
   203   142   204    1
   204   143   144    1
   205   143   205    1
   206   143   206    1
   207   144   145    1
   208   144   207    1
   209   144   208    1
   210   145   146    1
   211   145   209    1
   212   145   210    1
   213   146   147    1
   214   146   211    1
   215   146   212    1
   216   147   148    1
   217   147   213    1
   218   147   214    1
   219   148   149    1
   220   148   215    1
   221   148   216    1
   222   149   217    1
   223   149   218    1
   224   149   219    1
   225   220   221    1
   226   220   259    1
   227   220   260    1
   228   220   261    1
   229   221   222    1
   230   221   262    1
   231   221   263    1
   232   222   223    1
   233   222   264    1
   234   222   265    1
   235   223   224    1
   236   223   266    1
   237   223   267    1
   238   224   225    1
   239   224   268    1
   240   224   269    1
   241   225   226    1
   242   225   270    1
   243   225   271    1
   244   226   227    1
   245   226   272    1
   246   226   273    1
   247   227   228    1
   248   227   274    1
   249   227   275    1
   250   228   229    1
   251   228   237    1
   252   229   230    1
   253   229   276    1
   254   229   277    1
   255   230   231    1
   256   230   278    1
   257   230   279    1
   258   231   232    1
   259   231   280    1
   260   231   281    1
   261   232   233    1
   262   232   282    1
   263   232   283    1
   264   233   234    1
   265   233   284    1
   266   233   285    1
   267   234   235    1
   268   234   286    1
   269   234   287    1
   270   235   236    1
   271   235   288    1
   272   235   289    1
   273   236   290    1
   274   236   291    1
   275   236   292    1
   276   237   238    2
   277   237   239    1
   278   239   240    1
   279   239   293    1
   280   239   294    1
   281   240   241    2
   282   240   242    1
   283   242   243    1
   284   242   251    1
   285   243   244    1
   286   243   295    1
   287   243   296    1
   288   244   245    1
   289   244   297    1
   290   244   298    1
   291   245   246    1
   292   245   299    1
   293   245   300    1
   294   246   247    1
   295   246   301    1
   296   246   302    1
   297   247   248    1
   298   247   303    1
   299   247   304    1
   300   248   249    1
   301   248   305    1
   302   248   306    1
   303   249   250    1
   304   249   307    1
   305   249   308    1
   306   250   309    1
   307   250   310    1
   308   250   311    1
   309   251   252    1
   310   251   312    1
   311   251   313    1
   312   252   253    1
   313   252   314    1
   314   252   315    1
   315   253   254    1
   316   253   316    1
   317   253   317    1
   318   254   255    1
   319   254   318    1
   320   254   319    1
   321   255   256    1
   322   255   320    1
   323   255   321    1
   324   256   257    1
   325   256   322    1
   326   256   323    1
   327   257   258    1
   328   257   324    1
   329   257   325    1
   330   258   326    1
   331   258   327    1
   332   258   328    1
   333   329   330    1
   334   329   368    1
   335   329   369    1
   336   329   370    1
   337   330   331    1
   338   330   371    1
   339   330   372    1
   340   331   332    1
   341   331   373    1
   342   331   374    1
   343   332   333    1
   344   332   375    1
   345   332   376    1
   346   333   334    1
   347   333   377    1
   348   333   378    1
   349   334   335    1
   350   334   379    1
   351   334   380    1
   352   335   336    1
   353   335   381    1
   354   335   382    1
   355   336   337    1
   356   336   383    1
   357   336   384    1
   358   337   338    1
   359   337   346    1
   360   338   339    1
   361   338   385    1
   362   338   386    1
   363   339   340    1
   364   339   387    1
   365   339   388    1
   366   340   341    1
   367   340   389    1
   368   340   390    1
   369   341   342    1
   370   341   391    1
   371   341   392    1
   372   342   343    1
   373   342   393    1
   374   342   394    1
   375   343   344    1
   376   343   395    1
   377   343   396    1
   378   344   345    1
   379   344   397    1
   380   344   398    1
   381   345   399    1
   382   345   400    1
   383   345   401    1
   384   346   347    2
   385   346   348    1
   386   348   349    1
   387   348   402    1
   388   348   403    1
   389   349   350    2
   390   349   351    1
   391   351   352    1
   392   351   360    1
   393   352   353    1
   394   352   404    1
   395   352   405    1
   396   353   354    1
   397   353   406    1
   398   353   407    1
   399   354   355    1
   400   354   408    1
   401   354   409    1
   402   355   356    1
   403   355   410    1
   404   355   411    1
   405   356   357    1
   406   356   412    1
   407   356   413    1
   408   357   358    1
   409   357   414    1
   410   357   415    1
   411   358   359    1
   412   358   416    1
   413   358   417    1
   414   359   418    1
   415   359   419    1
   416   359   420    1
   417   360   361    1
   418   360   421    1
   419   360   422    1
   420   361   362    1
   421   361   423    1
   422   361   424    1
   423   362   363    1
   424   362   425    1
   425   362   426    1
   426   363   364    1
   427   363   427    1
   428   363   428    1
   429   364   365    1
   430   364   429    1
   431   364   430    1
   432   365   366    1
   433   365   431    1
   434   365   432    1
   435   366   367    1
   436   366   433    1
   437   366   434    1
   438   367   435    1
   439   367   436    1
   440   367   437    1
@<TRIPOS>SUBSTRUCTURE
     1 RES1      437 GROUP             0 ****  ****    0  
