@<TRIPOS>MOLECULE
square_prismatic_0_nunpairedes_0_charge_3 Charge: 3 Unpaired_Electrons: 6 XTB_Unpaired_Electrons: 0 XTB_Charge: 3
   145   158     1     0     0
SMALL
NoCharges
****
Generated from Architector

@<TRIPOS>ATOM
     1 Tb1      -0.2327   -0.1154    0.1982   Tb        1 RES1   0.0000
     2 C1        1.0987    3.3076    4.9402   C.3       1 RES1   0.0000
     3 C2       -0.2326    2.5941    5.1617   C.3       1 RES1   0.0000
     4 N1       -0.8337    2.1699    3.8998   N.am      1 RES1   0.0000
     5 C3       -0.3423    1.2745    3.0408   C.2       1 RES1   0.0000
     6 O1       -0.7739    1.2375    1.8619   O.2       1 RES1   0.0000
     7 C4        0.6845    0.2094    3.3758   C.ar      1 RES1   0.0000
     8 C5        1.5169    0.1259    4.4876   C.ar      1 RES1   0.0000
     9 C6        2.4613   -0.8902    4.5319   C.ar      1 RES1   0.0000
    10 C7        2.5589   -1.7962    3.4922   C.ar      1 RES1   0.0000
    11 C8        1.6618   -1.6877    2.4252   C.ar      1 RES1   0.0000
    12 C9        1.7066   -2.5603    1.2184   C.ar      1 RES1   0.0000
    13 C10       2.6985   -3.5238    1.0299   C.ar      1 RES1   0.0000
    14 C11       2.7086   -4.2588   -0.1433   C.ar      1 RES1   0.0000
    15 C12       1.7172   -4.0511   -1.0929   C.ar      1 RES1   0.0000
    16 C13       0.7481   -3.0814   -0.8503   C.ar      1 RES1   0.0000
    17 C14      -0.4490   -2.6874   -1.7125   C.2       1 RES1   0.0000
    18 O2       -0.8853   -1.5321   -1.4999   O.2       1 RES1   0.0000
    19 N2       -1.1017   -3.5170   -2.5414   N.am      1 RES1   0.0000
    20 C15      -0.4647   -4.3941   -3.5188   C.3       1 RES1   0.0000
    21 C16       0.4911   -3.5787   -4.3825   C.3       1 RES1   0.0000
    22 C17      -2.5311   -3.3931   -2.6818   C.ar      1 RES1   0.0000
    23 C18      -3.1249   -3.0122   -3.8791   C.ar      1 RES1   0.0000
    24 C19      -4.5016   -3.0593   -4.0236   C.ar      1 RES1   0.0000
    25 C20      -5.3085   -3.5546   -3.0062   C.ar      1 RES1   0.0000
    26 C21      -6.7941   -3.6664   -3.1493   C.3       1 RES1   0.0000
    27 C22      -4.6908   -3.9756   -1.8312   C.ar      1 RES1   0.0000
    28 C23      -3.3214   -3.8661   -1.6260   C.ar      1 RES1   0.0000
    29 C24      -2.7089   -4.2662   -0.3152   C.3       1 RES1   0.0000
    30 N3        0.7683   -2.3510    0.2821   N.ar      1 RES1   0.0000
    31 N4        0.7427   -0.7137    2.4030   N.ar      1 RES1   0.0000
    32 C25      -2.1275    2.7527    3.6414   C.ar      1 RES1   0.0000
    33 C26      -3.0681    2.4970    4.6433   C.ar      1 RES1   0.0000
    34 C27      -4.3635    2.9478    4.5407   C.ar      1 RES1   0.0000
    35 C28      -4.7680    3.7100    3.4455   C.ar      1 RES1   0.0000
    36 C29      -6.1497    4.2880    3.3919   C.3       1 RES1   0.0000
    37 C30      -3.8239    3.9434    2.4509   C.ar      1 RES1   0.0000
    38 C31      -2.5035    3.4896    2.5196   C.ar      1 RES1   0.0000
    39 C32      -1.5748    3.8559    1.3958   C.3       1 RES1   0.0000
    40 H1        1.5572    3.5199    5.9026   H         1 RES1   0.0000
    41 H2        0.9402    4.2598    4.4437   H         1 RES1   0.0000
    42 H3        1.7799    2.7175    4.3322   H         1 RES1   0.0000
    43 H4       -0.9199    3.3111    5.6103   H         1 RES1   0.0000
    44 H5       -0.1339    1.7539    5.8525   H         1 RES1   0.0000
    45 H6        1.5045    0.8413    5.2858   H         1 RES1   0.0000
    46 H7        3.1392   -0.9301    5.3700   H         1 RES1   0.0000
    47 H8        3.3122   -2.5642    3.5302   H         1 RES1   0.0000
    48 H9        3.4451   -3.7056    1.7866   H         1 RES1   0.0000
    49 H10       3.4933   -4.9772   -0.3253   H         1 RES1   0.0000
    50 H11       1.7174   -4.6500   -1.9823   H         1 RES1   0.0000
    51 H12      -1.2620   -4.8062   -4.1422   H         1 RES1   0.0000
    52 H13       0.0450   -5.2341   -3.0433   H         1 RES1   0.0000
    53 H14      -0.0179   -2.7177   -4.8113   H         1 RES1   0.0000
    54 H15       0.8789   -4.1933   -5.1872   H         1 RES1   0.0000
    55 H16       1.3316   -3.2090   -3.8003   H         1 RES1   0.0000
    56 H17      -2.5194   -2.6818   -4.7095   H         1 RES1   0.0000
    57 H18      -4.9503   -2.7345   -4.9501   H         1 RES1   0.0000
    58 H19      -7.1245   -3.3264   -4.1252   H         1 RES1   0.0000
    59 H20      -7.3006   -3.0739   -2.3877   H         1 RES1   0.0000
    60 H21      -7.1020   -4.7030   -3.0242   H         1 RES1   0.0000
    61 H22      -5.3031   -4.4401   -1.0699   H         1 RES1   0.0000
    62 H23      -3.4614   -4.7150    0.3286   H         1 RES1   0.0000
    63 H24      -2.3072   -3.3856    0.1985   H         1 RES1   0.0000
    64 H25      -1.9064   -4.9901   -0.4622   H         1 RES1   0.0000
    65 H26      -2.7736    1.9222    5.5093   H         1 RES1   0.0000
    66 H27      -5.0584    2.7046    5.3283   H         1 RES1   0.0000
    67 H28      -6.6859    4.0509    4.3081   H         1 RES1   0.0000
    68 H29      -6.7277    3.9153    2.5449   H         1 RES1   0.0000
    69 H30      -6.0921    5.3730    3.3011   H         1 RES1   0.0000
    70 H31      -4.1160    4.5224    1.5836   H         1 RES1   0.0000
    71 H32      -1.7712    4.8791    1.0782   H         1 RES1   0.0000
    72 H33      -1.7544    3.2021    0.5351   H         1 RES1   0.0000
    73 H34      -0.5279    3.7737    1.6805   H         1 RES1   0.0000
    74 C33      -5.9062    1.5613    0.7193   C.3       1 RES1   0.0000
    75 C34      -5.7693    0.1121    0.2704   C.3       1 RES1   0.0000
    76 N5       -4.4722   -0.4665    0.5998   N.am      1 RES1   0.0000
    77 C35      -3.2731   -0.1490    0.1087   C.2       1 RES1   0.0000
    78 O3       -2.2608   -0.7456    0.5481   O.2       1 RES1   0.0000
    79 C36      -3.0278    0.8220   -1.0399   C.ar      1 RES1   0.0000
    80 C37      -3.9877    1.3366   -1.9087   C.ar      1 RES1   0.0000
    81 C38      -3.5804    2.0301   -3.0387   C.ar      1 RES1   0.0000
    82 C39      -2.2348    2.2006   -3.3002   C.ar      1 RES1   0.0000
    83 C40      -1.3170    1.7072   -2.3701   C.ar      1 RES1   0.0000
    84 C41       0.1560    1.8267   -2.5594   C.ar      1 RES1   0.0000
    85 C42       0.7341    2.4288   -3.6807   C.ar      1 RES1   0.0000
    86 C43       2.1153    2.5391   -3.7612   C.ar      1 RES1   0.0000
    87 C44       2.8977    2.0234   -2.7376   C.ar      1 RES1   0.0000
    88 C45       2.2608    1.3706   -1.6900   C.ar      1 RES1   0.0000
    89 C46       2.9366    0.7637   -0.5004   C.2       1 RES1   0.0000
    90 O4        2.1739    0.2408    0.3562   O.2       1 RES1   0.0000
    91 N6        4.2412    0.8898   -0.2611   N.am      1 RES1   0.0000
    92 C47       4.7037    0.6545    1.1074   C.3       1 RES1   0.0000
    93 C48       5.5451   -0.6058    1.2388   C.3       1 RES1   0.0000
    94 C49       5.3300    0.9841   -1.1785   C.ar      1 RES1   0.0000
    95 C50       6.3394    1.9154   -0.9307   C.ar      1 RES1   0.0000
    96 C51       7.5495    1.8330   -1.5869   C.ar      1 RES1   0.0000
    97 C52       7.7923    0.8097   -2.4995   C.ar      1 RES1   0.0000
    98 C53       9.1277    0.6455   -3.1389   C.3       1 RES1   0.0000
    99 C54       6.7521   -0.0697   -2.7889   C.ar      1 RES1   0.0000
   100 C55       5.5237   -0.0118   -2.1490   C.ar      1 RES1   0.0000
   101 C56       4.4698   -1.0257   -2.4860   C.3       1 RES1   0.0000
   102 N7        0.9207    1.2877   -1.5996   N.ar      1 RES1   0.0000
   103 N8       -1.7238    1.0627   -1.2661   N.ar      1 RES1   0.0000
   104 C57      -4.5579   -1.5355    1.5607   C.ar      1 RES1   0.0000
   105 C58      -5.3561   -2.6201    1.2151   C.ar      1 RES1   0.0000
   106 C59      -5.5891   -3.6411    2.1105   C.ar      1 RES1   0.0000
   107 C60      -5.0455   -3.5986    3.3916   C.ar      1 RES1   0.0000
   108 C61      -5.3449   -4.6460    4.4115   C.3       1 RES1   0.0000
   109 C62      -4.2325   -2.5177    3.7123   C.ar      1 RES1   0.0000
   110 C63      -3.9814   -1.4783    2.8273   C.ar      1 RES1   0.0000
   111 C64      -3.1184   -0.3337    3.2454   C.3       1 RES1   0.0000
   112 H35      -6.8347    1.9723    0.3301   H         1 RES1   0.0000
   113 H36      -5.0771    2.1723    0.3736   H         1 RES1   0.0000
   114 H37      -5.9425    1.6076    1.8029   H         1 RES1   0.0000
   115 H38      -5.9772    0.0013   -0.7938   H         1 RES1   0.0000
   116 H39      -6.5122   -0.4824    0.8010   H         1 RES1   0.0000
   117 H40      -5.0412    1.2216   -1.7552   H         1 RES1   0.0000
   118 H41      -4.3216    2.4122   -3.7209   H         1 RES1   0.0000
   119 H42      -1.9202    2.7071   -4.1981   H         1 RES1   0.0000
   120 H43       0.1297    2.8159   -4.4836   H         1 RES1   0.0000
   121 H44       2.5849    3.0055   -4.6128   H         1 RES1   0.0000
   122 H45       3.9733    2.1132   -2.7457   H         1 RES1   0.0000
   123 H46       3.8301    0.6034    1.7565   H         1 RES1   0.0000
   124 H47       5.3106    1.5168    1.3867   H         1 RES1   0.0000
   125 H48       5.0125   -1.4736    0.8557   H         1 RES1   0.0000
   126 H49       5.7718   -0.7670    2.2894   H         1 RES1   0.0000
   127 H50       6.4770   -0.4970    0.6889   H         1 RES1   0.0000
   128 H51       6.1887    2.7021   -0.2058   H         1 RES1   0.0000
   129 H52       8.3261    2.5474   -1.3627   H         1 RES1   0.0000
   130 H53       9.8507    1.3128   -2.6752   H         1 RES1   0.0000
   131 H54       9.0569    0.8728   -4.2041   H         1 RES1   0.0000
   132 H55       9.4693   -0.3850   -3.0318   H         1 RES1   0.0000
   133 H56       6.9250   -0.8496   -3.5178   H         1 RES1   0.0000
   134 H57       4.8963   -1.7922   -3.1283   H         1 RES1   0.0000
   135 H58       3.6507   -0.5505   -3.0254   H         1 RES1   0.0000
   136 H59       4.0586   -1.5014   -1.5942   H         1 RES1   0.0000
   137 H60      -5.7873   -2.6573    0.2281   H         1 RES1   0.0000
   138 H61      -6.2227   -4.4637    1.8170   H         1 RES1   0.0000
   139 H62      -6.0314   -5.3866    4.0119   H         1 RES1   0.0000
   140 H63      -5.8019   -4.1813    5.2856   H         1 RES1   0.0000
   141 H64      -4.4309   -5.1453    4.7349   H         1 RES1   0.0000
   142 H65      -3.8039   -2.4637    4.7034   H         1 RES1   0.0000
   143 H66      -3.1003   -0.2467    4.3292   H         1 RES1   0.0000
   144 H67      -3.4686    0.6066    2.8200   H         1 RES1   0.0000
   145 H68      -2.0992   -0.5219    2.8914   H         1 RES1   0.0000
@<TRIPOS>BOND
     1     1     6    1
     2     1    18    1
     3     1    30    1
     4     1    31    1
     5     1    78    1
     6     1    90    1
     7     1   102    1
     8     1   103    1
     9     2     3    1
    10     2    40    1
    11     2    41    1
    12     2    42    1
    13     3     4    1
    14     3    43    1
    15     3    44    1
    16     4     5    1
    17     4    32    1
    18     5     6    2
    19     5     7    1
    20     7     8    1
    21     7    31    2
    22     8     9    2
    23     8    45    1
    24     9    10    1
    25     9    46    1
    26    10    11    2
    27    10    47    1
    28    11    12    1
    29    11    31    1
    30    12    13    1
    31    12    30    2
    32    13    14    2
    33    13    48    1
    34    14    15    1
    35    14    49    1
    36    15    16    2
    37    15    50    1
    38    16    17    1
    39    16    30    1
    40    17    18    2
    41    17    19    1
    42    19    20    1
    43    19    22    1
    44    20    21    1
    45    20    51    1
    46    20    52    1
    47    21    53    1
    48    21    54    1
    49    21    55    1
    50    22    23    1
    51    22    28    2
    52    23    24    2
    53    23    56    1
    54    24    25    1
    55    24    57    1
    56    25    26    1
    57    25    27    2
    58    26    58    1
    59    26    59    1
    60    26    60    1
    61    27    28    1
    62    27    61    1
    63    28    29    1
    64    29    62    1
    65    29    63    1
    66    29    64    1
    67    32    33    1
    68    32    38    2
    69    33    34    2
    70    33    65    1
    71    34    35    1
    72    34    66    1
    73    35    36    1
    74    35    37    2
    75    36    67    1
    76    36    68    1
    77    36    69    1
    78    37    38    1
    79    37    70    1
    80    38    39    1
    81    39    71    1
    82    39    72    1
    83    39    73    1
    84    74    75    1
    85    74   112    1
    86    74   113    1
    87    74   114    1
    88    75    76    1
    89    75   115    1
    90    75   116    1
    91    76    77    1
    92    76   104    1
    93    77    78    2
    94    77    79    1
    95    79    80    1
    96    79   103    2
    97    80    81    2
    98    80   117    1
    99    81    82    1
   100    81   118    1
   101    82    83    2
   102    82   119    1
   103    83    84    1
   104    83   103    1
   105    84    85    1
   106    84   102    2
   107    85    86    2
   108    85   120    1
   109    86    87    1
   110    86   121    1
   111    87    88    2
   112    87   122    1
   113    88    89    1
   114    88   102    1
   115    89    90    2
   116    89    91    1
   117    91    92    1
   118    91    94    1
   119    92    93    1
   120    92   123    1
   121    92   124    1
   122    93   125    1
   123    93   126    1
   124    93   127    1
   125    94    95    1
   126    94   100    2
   127    95    96    2
   128    95   128    1
   129    96    97    1
   130    96   129    1
   131    97    98    1
   132    97    99    2
   133    98   130    1
   134    98   131    1
   135    98   132    1
   136    99   100    1
   137    99   133    1
   138   100   101    1
   139   101   134    1
   140   101   135    1
   141   101   136    1
   142   104   105    1
   143   104   110    2
   144   105   106    2
   145   105   137    1
   146   106   107    1
   147   106   138    1
   148   107   108    1
   149   107   109    2
   150   108   139    1
   151   108   140    1
   152   108   141    1
   153   109   110    1
   154   109   142    1
   155   110   111    1
   156   111   143    1
   157   111   144    1
   158   111   145    1
@<TRIPOS>SUBSTRUCTURE
     1 RES1      145 GROUP             0 ****  ****    0  
