@<TRIPOS>MOLECULE
ICIGOT_geomtry_0_nunpairedes_0_charge_3 Charge: 3 Unpaired_Electrons: 6 XTB_Unpaired_Electrons: 0 XTB_Charge: 3
   241   246     1     0     0
SMALL
NoCharges
****
Generated from Architector

@<TRIPOS>ATOM
     1 Tb1      -0.5618   -0.2765    0.0991   Tb        1 RES1   0.0000
     2 C1       -4.4520   -7.5622   -2.9397   C.3       1 RES1   0.0000
     3 C2       -3.2785   -8.0017   -3.8104   C.3       1 RES1   0.0000
     4 C3       -2.0405   -8.4415   -3.0179   C.3       1 RES1   0.0000
     5 C4       -1.1723   -7.2485   -2.6064   C.3       1 RES1   0.0000
     6 C5        0.2165   -7.6357   -2.1000   C.3       1 RES1   0.0000
     7 C6        1.2199   -6.4726   -2.0430   C.3       1 RES1   0.0000
     8 C7        1.0733   -5.5229   -0.8428   C.3       1 RES1   0.0000
     9 C8        2.3433   -4.6765   -0.6992   C.3       1 RES1   0.0000
    10 N1        2.4618   -3.9387    0.5557   N.am      1 RES1   0.0000
    11 C9        3.4781   -4.3176    1.5559   C.3       1 RES1   0.0000
    12 C10       4.1858   -5.6743    1.4754   C.3       1 RES1   0.0000
    13 C11       3.3517   -6.9293    1.7473   C.3       1 RES1   0.0000
    14 C12       2.7087   -6.9847    3.1342   C.3       1 RES1   0.0000
    15 C13       1.6808   -8.1123    3.2650   C.3       1 RES1   0.0000
    16 C14       0.4819   -7.9183    2.3385   C.3       1 RES1   0.0000
    17 C15      -0.6646   -8.8966    2.5938   C.3       1 RES1   0.0000
    18 C16      -1.6420   -8.9068    1.4201   C.3       1 RES1   0.0000
    19 C17       1.7923   -2.8093    0.7356   C.2       1 RES1   0.0000
    20 O1        0.8581   -2.3931    0.0101   O.2       1 RES1   0.0000
    21 C18       2.2248   -1.9230    1.9011   C.3       1 RES1   0.0000
    22 O2        1.5540   -0.6803    1.7458   O.3       1 RES1   0.0000
    23 C19       1.7460    0.1800    2.8668   C.3       1 RES1   0.0000
    24 C20       1.1625    1.5209    2.4390   C.3       1 RES1   0.0000
    25 O3       -0.1996    1.3729    2.0528   O.3       1 RES1   0.0000
    26 C21      -1.1321    1.2073    3.1274   C.3       1 RES1   0.0000
    27 C22      -1.8331   -0.1603    2.9849   C.2       1 RES1   0.0000
    28 O4       -1.5004   -0.8670    1.9969   O.2       1 RES1   0.0000
    29 N2       -2.8131   -0.4795    3.8108   N.am      1 RES1   0.0000
    30 C23      -2.9723    0.1792    5.1029   C.3       1 RES1   0.0000
    31 C24      -1.7163    0.2116    6.0086   C.3       1 RES1   0.0000
    32 C25      -1.3618    1.6574    6.4171   C.3       1 RES1   0.0000
    33 C26       0.1258    1.9979    6.5718   C.3       1 RES1   0.0000
    34 C27       0.3121    3.5084    6.4260   C.3       1 RES1   0.0000
    35 C28       1.7053    3.9813    6.8295   C.3       1 RES1   0.0000
    36 C29       1.8258    5.5052    6.7633   C.3       1 RES1   0.0000
    37 C30       1.8833    6.0207    5.3284   C.3       1 RES1   0.0000
    38 C31      -3.8515   -1.4658    3.4655   C.3       1 RES1   0.0000
    39 C32      -4.2411   -1.4526    1.9785   C.3       1 RES1   0.0000
    40 C33      -5.7293   -1.2182    1.7057   C.3       1 RES1   0.0000
    41 C34      -6.0710   -1.2305    0.2084   C.3       1 RES1   0.0000
    42 C35      -5.1652   -0.2788   -0.5764   C.3       1 RES1   0.0000
    43 C36      -5.5958    0.0190   -2.0153   C.3       1 RES1   0.0000
    44 C37      -4.4727    0.7953   -2.7058   C.3       1 RES1   0.0000
    45 C38      -4.7252    1.0497   -4.1874   C.3       1 RES1   0.0000
    46 H1       -5.1973   -7.0530   -3.5456   H         1 RES1   0.0000
    47 H2       -4.1332   -6.8970   -2.1395   H         1 RES1   0.0000
    48 H3       -4.9323   -8.4214   -2.4810   H         1 RES1   0.0000
    49 H4       -2.9896   -7.1898   -4.4837   H         1 RES1   0.0000
    50 H5       -3.6132   -8.8261   -4.4382   H         1 RES1   0.0000
    51 H6       -1.4413   -9.1020   -3.6471   H         1 RES1   0.0000
    52 H7       -2.3460   -9.0063   -2.1366   H         1 RES1   0.0000
    53 H8       -1.6923   -6.6694   -1.8402   H         1 RES1   0.0000
    54 H9       -1.0398   -6.6294   -3.4977   H         1 RES1   0.0000
    55 H10       0.6267   -8.3790   -2.7850   H         1 RES1   0.0000
    56 H11       0.1410   -8.1011   -1.1172   H         1 RES1   0.0000
    57 H12       1.1603   -5.8983   -2.9730   H         1 RES1   0.0000
    58 H13       2.2211   -6.9084   -2.0049   H         1 RES1   0.0000
    59 H14       0.9198   -6.1010    0.0687   H         1 RES1   0.0000
    60 H15       0.2153   -4.8588   -0.9630   H         1 RES1   0.0000
    61 H16       2.3957   -3.9582   -1.5248   H         1 RES1   0.0000
    62 H17       3.2105   -5.3302   -0.7603   H         1 RES1   0.0000
    63 H18       2.9856   -4.2639    2.5277   H         1 RES1   0.0000
    64 H19       4.2703   -3.5583    1.5320   H         1 RES1   0.0000
    65 H20       4.9624   -5.6084    2.2413   H         1 RES1   0.0000
    66 H21       4.7071   -5.7730    0.5220   H         1 RES1   0.0000
    67 H22       4.0242   -7.7806    1.6461   H         1 RES1   0.0000
    68 H23       2.5887   -7.0373    0.9828   H         1 RES1   0.0000
    69 H24       2.2051   -6.0416    3.3551   H         1 RES1   0.0000
    70 H25       3.4877   -7.1266    3.8834   H         1 RES1   0.0000
    71 H26       1.3279   -8.1484    4.2970   H         1 RES1   0.0000
    72 H27       2.1561   -9.0687    3.0480   H         1 RES1   0.0000
    73 H28       0.8025   -8.0524    1.3044   H         1 RES1   0.0000
    74 H29       0.1065   -6.8955    2.4489   H         1 RES1   0.0000
    75 H30      -1.1871   -8.6226    3.5121   H         1 RES1   0.0000
    76 H31      -0.2666   -9.9018    2.7332   H         1 RES1   0.0000
    77 H32      -1.8570   -7.8887    1.0966   H         1 RES1   0.0000
    78 H33      -2.5759   -9.3904    1.6935   H         1 RES1   0.0000
    79 H34      -1.2171   -9.4465    0.5759   H         1 RES1   0.0000
    80 H35       3.3144   -1.7638    1.8828   H         1 RES1   0.0000
    81 H36       1.9638   -2.3890    2.8618   H         1 RES1   0.0000
    82 H37       2.8133    0.2943    3.1007   H         1 RES1   0.0000
    83 H38       1.2145   -0.2352    3.7379   H         1 RES1   0.0000
    84 H39       1.6832    1.8408    1.5286   H         1 RES1   0.0000
    85 H40       1.2860    2.2872    3.2081   H         1 RES1   0.0000
    86 H41      -1.9129    1.9716    3.0004   H         1 RES1   0.0000
    87 H42      -0.6410    1.3700    4.0857   H         1 RES1   0.0000
    88 H43      -3.7624   -0.3600    5.6157   H         1 RES1   0.0000
    89 H44      -3.3344    1.1984    4.9315   H         1 RES1   0.0000
    90 H45      -0.8877   -0.2963    5.5079   H         1 RES1   0.0000
    91 H46      -1.9087   -0.3718    6.9108   H         1 RES1   0.0000
    92 H47      -1.8627    1.8823    7.3598   H         1 RES1   0.0000
    93 H48      -1.7786    2.3463    5.6778   H         1 RES1   0.0000
    94 H49       0.7418    1.4732    5.8299   H         1 RES1   0.0000
    95 H50       0.4851    1.6923    7.5506   H         1 RES1   0.0000
    96 H51      -0.4237    4.0148    7.0542   H         1 RES1   0.0000
    97 H52       0.1077    3.7926    5.3896   H         1 RES1   0.0000
    98 H53       2.4568    3.5298    6.1742   H         1 RES1   0.0000
    99 H54       1.9043    3.6444    7.8482   H         1 RES1   0.0000
   100 H55       2.7284    5.8149    7.2913   H         1 RES1   0.0000
   101 H56       0.9739    5.9546    7.2780   H         1 RES1   0.0000
   102 H57       2.7046    5.5458    4.7919   H         1 RES1   0.0000
   103 H58       2.0433    7.0960    5.3186   H         1 RES1   0.0000
   104 H59       0.9528    5.8106    4.8010   H         1 RES1   0.0000
   105 H60      -4.7358   -1.2178    4.0529   H         1 RES1   0.0000
   106 H61      -3.5093   -2.4554    3.7733   H         1 RES1   0.0000
   107 H62      -3.9664   -2.4000    1.5346   H         1 RES1   0.0000
   108 H63      -3.6669   -0.6773    1.4715   H         1 RES1   0.0000
   109 H64      -6.0137   -0.2422    2.0918   H         1 RES1   0.0000
   110 H65      -6.3209   -1.9763    2.2204   H         1 RES1   0.0000
   111 H66      -7.1130   -0.9356    0.0973   H         1 RES1   0.0000
   112 H67      -5.9930   -2.2353   -0.2088   H         1 RES1   0.0000
   113 H68      -4.1520   -0.6943   -0.6116   H         1 RES1   0.0000
   114 H69      -5.0973    0.6714   -0.0428   H         1 RES1   0.0000
   115 H70      -6.5087    0.6194   -2.0263   H         1 RES1   0.0000
   116 H71      -5.8057   -0.8991   -2.5668   H         1 RES1   0.0000
   117 H72      -3.5358    0.2334   -2.5806   H         1 RES1   0.0000
   118 H73      -4.3653    1.7457   -2.1703   H         1 RES1   0.0000
   119 H74      -4.8960    0.1177   -4.7218   H         1 RES1   0.0000
   120 H75      -3.8730    1.5449   -4.6525   H         1 RES1   0.0000
   121 H76      -5.6021    1.6773   -4.3147   H         1 RES1   0.0000
   122 C39      -5.4436    1.4002    7.6690   C.3       1 RES1   0.0000
   123 C40      -5.3392    2.9217    7.7383   C.3       1 RES1   0.0000
   124 C41      -5.5825    3.6054    6.3854   C.3       1 RES1   0.0000
   125 C42      -4.3103    3.9383    5.6096   C.3       1 RES1   0.0000
   126 C43      -4.6258    4.5464    4.2424   C.3       1 RES1   0.0000
   127 C44      -3.3962    4.6234    3.3232   C.3       1 RES1   0.0000
   128 C45      -3.6771    4.0466    1.9328   C.3       1 RES1   0.0000
   129 C46      -2.5533    4.4102    0.9690   C.3       1 RES1   0.0000
   130 N3       -2.6737    3.9129   -0.3995   N.am      1 RES1   0.0000
   131 C47      -3.0257    4.8578   -1.4659   C.3       1 RES1   0.0000
   132 C48      -4.0436    5.9705   -1.1709   C.3       1 RES1   0.0000
   133 C49      -5.4795    5.5974   -0.7821   C.3       1 RES1   0.0000
   134 C50      -6.1544    4.4889   -1.5895   C.3       1 RES1   0.0000
   135 C51      -7.4109    3.9929   -0.8607   C.3       1 RES1   0.0000
   136 C52      -7.0553    2.9904    0.2373   C.3       1 RES1   0.0000
   137 C53      -8.1390    2.7882    1.2978   C.3       1 RES1   0.0000
   138 C54      -7.5395    2.2378    2.5910   C.3       1 RES1   0.0000
   139 C55      -2.1114    2.7488   -0.6986   C.2       1 RES1   0.0000
   140 O5       -1.8887    1.8408    0.1376   O.2       1 RES1   0.0000
   141 C56      -1.5802    2.5474   -2.1131   C.3       1 RES1   0.0000
   142 O6       -0.7295    1.4075   -2.0645   O.3       1 RES1   0.0000
   143 C57      -0.3075    1.0211   -3.3702   C.3       1 RES1   0.0000
   144 C58       0.7259   -0.0864   -3.1805   C.3       1 RES1   0.0000
   145 O7        0.2699   -1.0384   -2.2269   O.3       1 RES1   0.0000
   146 C59      -0.5246   -2.0938   -2.7648   C.3       1 RES1   0.0000
   147 C60      -1.7480   -2.2839   -1.8757   C.2       1 RES1   0.0000
   148 O8       -1.9611   -1.4481   -0.9549   O.2       1 RES1   0.0000
   149 N4       -2.5398   -3.3230   -2.0428   N.am      1 RES1   0.0000
   150 C61      -2.4567   -4.2270   -3.1750   C.3       1 RES1   0.0000
   151 C62      -2.6018   -3.5802   -4.5664   C.3       1 RES1   0.0000
   152 C63      -1.5107   -4.1384   -5.4959   C.3       1 RES1   0.0000
   153 C64      -0.9647   -3.2221   -6.5949   C.3       1 RES1   0.0000
   154 C65       0.3717   -3.8132   -7.0611   C.3       1 RES1   0.0000
   155 C66       1.0878   -3.0718   -8.1892   C.3       1 RES1   0.0000
   156 C67       2.4640   -3.6889   -8.4738   C.3       1 RES1   0.0000
   157 C68       3.4767   -3.4406   -7.3581   C.3       1 RES1   0.0000
   158 C69      -3.3664   -3.6887   -0.8934   C.3       1 RES1   0.0000
   159 C70      -2.4518   -4.1575    0.2557   C.3       1 RES1   0.0000
   160 C71      -3.2179   -4.9348    1.3347   C.3       1 RES1   0.0000
   161 C72      -2.6385   -4.9076    2.7720   C.3       1 RES1   0.0000
   162 C73      -1.3057   -4.1986    3.0299   C.3       1 RES1   0.0000
   163 C74      -0.8903   -4.4182    4.4883   C.3       1 RES1   0.0000
   164 C75       0.4195   -3.7317    4.8617   C.3       1 RES1   0.0000
   165 C76       0.8313   -4.0378    6.2964   C.3       1 RES1   0.0000
   166 H77      -5.6890    0.9912    8.6421   H         1 RES1   0.0000
   167 H78      -4.5171    0.9420    7.3326   H         1 RES1   0.0000
   168 H79      -6.2434    1.1105    6.9929   H         1 RES1   0.0000
   169 H80      -4.3607    3.2073    8.1218   H         1 RES1   0.0000
   170 H81      -6.0784    3.2804    8.4525   H         1 RES1   0.0000
   171 H82      -6.1341    4.5320    6.5444   H         1 RES1   0.0000
   172 H83      -6.2083    2.9555    5.7687   H         1 RES1   0.0000
   173 H84      -3.7306    3.0268    5.4746   H         1 RES1   0.0000
   174 H85      -3.6906    4.6308    6.1777   H         1 RES1   0.0000
   175 H86      -5.0473    5.5435    4.3752   H         1 RES1   0.0000
   176 H87      -5.3923    3.9398    3.7580   H         1 RES1   0.0000
   177 H88      -2.5636    4.0861    3.7832   H         1 RES1   0.0000
   178 H89      -3.0751    5.6596    3.2115   H         1 RES1   0.0000
   179 H90      -4.6001    4.4849    1.5658   H         1 RES1   0.0000
   180 H91      -3.8012    2.9604    1.9682   H         1 RES1   0.0000
   181 H92      -1.6055    4.0286    1.3616   H         1 RES1   0.0000
   182 H93      -2.4837    5.4956    0.8958   H         1 RES1   0.0000
   183 H94      -3.4056    4.2737   -2.3031   H         1 RES1   0.0000
   184 H95      -2.1028    5.3568   -1.7900   H         1 RES1   0.0000
   185 H96      -4.0767    6.5371   -2.1042   H         1 RES1   0.0000
   186 H97      -3.6484    6.6490   -0.4136   H         1 RES1   0.0000
   187 H98      -6.0698    6.5085   -0.8858   H         1 RES1   0.0000
   188 H99      -5.5197    5.3340    0.2714   H         1 RES1   0.0000
   189 H100     -5.4747    3.6444   -1.7236   H         1 RES1   0.0000
   190 H101     -6.4175    4.8698   -2.5758   H         1 RES1   0.0000
   191 H102     -8.0968    3.5265   -1.5663   H         1 RES1   0.0000
   192 H103     -7.9277    4.8501   -0.4283   H         1 RES1   0.0000
   193 H104     -6.1519    3.3301    0.7435   H         1 RES1   0.0000
   194 H105     -6.8264    2.0280   -0.2224   H         1 RES1   0.0000
   195 H106     -8.9010    2.1056    0.9232   H         1 RES1   0.0000
   196 H107     -8.6301    3.7370    1.5123   H         1 RES1   0.0000
   197 H108     -6.7596    1.5132    2.3642   H         1 RES1   0.0000
   198 H109     -8.2926    1.7524    3.2054   H         1 RES1   0.0000
   199 H110     -7.0937    3.0384    3.1771   H         1 RES1   0.0000
   200 H111     -1.0025    3.4360   -2.4127   H         1 RES1   0.0000
   201 H112     -2.3803    2.3916   -2.8454   H         1 RES1   0.0000
   202 H113      0.1463    1.8668   -3.9020   H         1 RES1   0.0000
   203 H114     -1.1766    0.6628   -3.9389   H         1 RES1   0.0000
   204 H115      1.6448    0.3274   -2.7558   H         1 RES1   0.0000
   205 H116      0.9549   -0.5610   -4.1379   H         1 RES1   0.0000
   206 H117      0.0656   -3.0192   -2.7431   H         1 RES1   0.0000
   207 H118     -0.8028   -1.8960   -3.7995   H         1 RES1   0.0000
   208 H119     -3.2316   -4.9808   -3.0529   H         1 RES1   0.0000
   209 H120     -1.4948   -4.7402   -3.1194   H         1 RES1   0.0000
   210 H121     -2.5615   -2.4919   -4.4971   H         1 RES1   0.0000
   211 H122     -3.5870   -3.8199   -4.9654   H         1 RES1   0.0000
   212 H123     -1.8899   -5.0470   -5.9633   H         1 RES1   0.0000
   213 H124     -0.6488   -4.4334   -4.8878   H         1 RES1   0.0000
   214 H125     -0.8104   -2.2057   -6.2148   H         1 RES1   0.0000
   215 H126     -1.6623   -3.1600   -7.4290   H         1 RES1   0.0000
   216 H127      0.1945   -4.8405   -7.3862   H         1 RES1   0.0000
   217 H128      1.0398   -3.8525   -6.1956   H         1 RES1   0.0000
   218 H129      1.2183   -2.0166   -7.9305   H         1 RES1   0.0000
   219 H130      0.4826   -3.1205   -9.0958   H         1 RES1   0.0000
   220 H131      2.8556   -3.2614   -9.3979   H         1 RES1   0.0000
   221 H132      2.3575   -4.7646   -8.6316   H         1 RES1   0.0000
   222 H133      3.5543   -2.3750   -7.1444   H         1 RES1   0.0000
   223 H134      4.4577   -3.8003   -7.6573   H         1 RES1   0.0000
   224 H135      3.1996   -3.9621   -6.4430   H         1 RES1   0.0000
   225 H136     -4.0653   -4.4658   -1.1958   H         1 RES1   0.0000
   226 H137     -3.9302   -2.8081   -0.5907   H         1 RES1   0.0000
   227 H138     -1.9401   -3.2822    0.6765   H         1 RES1   0.0000
   228 H139     -1.6831   -4.8059   -0.1644   H         1 RES1   0.0000
   229 H140     -3.2835   -5.9739    1.0057   H         1 RES1   0.0000
   230 H141     -4.2392   -4.5579    1.3801   H         1 RES1   0.0000
   231 H142     -2.5136   -5.9376    3.1014   H         1 RES1   0.0000
   232 H143     -3.3871   -4.4661    3.4339   H         1 RES1   0.0000
   233 H144     -1.3816   -3.1267    2.8263   H         1 RES1   0.0000
   234 H145     -0.5285   -4.5952    2.3734   H         1 RES1   0.0000
   235 H146     -0.7825   -5.4883    4.6699   H         1 RES1   0.0000
   236 H147     -1.6784   -4.0574    5.1521   H         1 RES1   0.0000
   237 H148      0.3112   -2.6495    4.7263   H         1 RES1   0.0000
   238 H149      1.2083   -4.0762    4.1887   H         1 RES1   0.0000
   239 H150      0.0517   -3.7356    6.9892   H         1 RES1   0.0000
   240 H151      1.7496   -3.5199    6.5582   H         1 RES1   0.0000
   241 H152      1.0005   -5.1025    6.4301   H         1 RES1   0.0000
@<TRIPOS>BOND
     1     1    20    1
     2     1    22    1
     3     1    25    1
     4     1    28    1
     5     1   140    1
     6     1   142    1
     7     1   145    1
     8     1   148    1
     9     2     3    1
    10     2    46    1
    11     2    47    1
    12     2    48    1
    13     3     4    1
    14     3    49    1
    15     3    50    1
    16     4     5    1
    17     4    51    1
    18     4    52    1
    19     5     6    1
    20     5    53    1
    21     5    54    1
    22     6     7    1
    23     6    55    1
    24     6    56    1
    25     7     8    1
    26     7    57    1
    27     7    58    1
    28     8     9    1
    29     8    59    1
    30     8    60    1
    31     9    10    1
    32     9    61    1
    33     9    62    1
    34    10    11    1
    35    10    19    1
    36    11    12    1
    37    11    63    1
    38    11    64    1
    39    12    13    1
    40    12    65    1
    41    12    66    1
    42    13    14    1
    43    13    67    1
    44    13    68    1
    45    14    15    1
    46    14    69    1
    47    14    70    1
    48    15    16    1
    49    15    71    1
    50    15    72    1
    51    16    17    1
    52    16    73    1
    53    16    74    1
    54    17    18    1
    55    17    75    1
    56    17    76    1
    57    18    77    1
    58    18    78    1
    59    18    79    1
    60    19    20    2
    61    19    21    1
    62    21    22    1
    63    21    80    1
    64    21    81    1
    65    22    23    1
    66    23    24    1
    67    23    82    1
    68    23    83    1
    69    24    25    1
    70    24    84    1
    71    24    85    1
    72    25    26    1
    73    26    27    1
    74    26    86    1
    75    26    87    1
    76    27    28    2
    77    27    29    1
    78    29    30    1
    79    29    38    1
    80    30    31    1
    81    30    88    1
    82    30    89    1
    83    31    32    1
    84    31    90    1
    85    31    91    1
    86    32    33    1
    87    32    92    1
    88    32    93    1
    89    33    34    1
    90    33    94    1
    91    33    95    1
    92    34    35    1
    93    34    96    1
    94    34    97    1
    95    35    36    1
    96    35    98    1
    97    35    99    1
    98    36    37    1
    99    36   100    1
   100    36   101    1
   101    37   102    1
   102    37   103    1
   103    37   104    1
   104    38    39    1
   105    38   105    1
   106    38   106    1
   107    39    40    1
   108    39   107    1
   109    39   108    1
   110    40    41    1
   111    40   109    1
   112    40   110    1
   113    41    42    1
   114    41   111    1
   115    41   112    1
   116    42    43    1
   117    42   113    1
   118    42   114    1
   119    43    44    1
   120    43   115    1
   121    43   116    1
   122    44    45    1
   123    44   117    1
   124    44   118    1
   125    45   119    1
   126    45   120    1
   127    45   121    1
   128   122   123    1
   129   122   166    1
   130   122   167    1
   131   122   168    1
   132   123   124    1
   133   123   169    1
   134   123   170    1
   135   124   125    1
   136   124   171    1
   137   124   172    1
   138   125   126    1
   139   125   173    1
   140   125   174    1
   141   126   127    1
   142   126   175    1
   143   126   176    1
   144   127   128    1
   145   127   177    1
   146   127   178    1
   147   128   129    1
   148   128   179    1
   149   128   180    1
   150   129   130    1
   151   129   181    1
   152   129   182    1
   153   130   131    1
   154   130   139    1
   155   131   132    1
   156   131   183    1
   157   131   184    1
   158   132   133    1
   159   132   185    1
   160   132   186    1
   161   133   134    1
   162   133   187    1
   163   133   188    1
   164   134   135    1
   165   134   189    1
   166   134   190    1
   167   135   136    1
   168   135   191    1
   169   135   192    1
   170   136   137    1
   171   136   193    1
   172   136   194    1
   173   137   138    1
   174   137   195    1
   175   137   196    1
   176   138   197    1
   177   138   198    1
   178   138   199    1
   179   139   140    2
   180   139   141    1
   181   141   142    1
   182   141   200    1
   183   141   201    1
   184   142   143    1
   185   143   144    1
   186   143   202    1
   187   143   203    1
   188   144   145    1
   189   144   204    1
   190   144   205    1
   191   145   146    1
   192   146   147    1
   193   146   206    1
   194   146   207    1
   195   147   148    2
   196   147   149    1
   197   149   150    1
   198   149   158    1
   199   150   151    1
   200   150   208    1
   201   150   209    1
   202   151   152    1
   203   151   210    1
   204   151   211    1
   205   152   153    1
   206   152   212    1
   207   152   213    1
   208   153   154    1
   209   153   214    1
   210   153   215    1
   211   154   155    1
   212   154   216    1
   213   154   217    1
   214   155   156    1
   215   155   218    1
   216   155   219    1
   217   156   157    1
   218   156   220    1
   219   156   221    1
   220   157   222    1
   221   157   223    1
   222   157   224    1
   223   158   159    1
   224   158   225    1
   225   158   226    1
   226   159   160    1
   227   159   227    1
   228   159   228    1
   229   160   161    1
   230   160   229    1
   231   160   230    1
   232   161   162    1
   233   161   231    1
   234   161   232    1
   235   162   163    1
   236   162   233    1
   237   162   234    1
   238   163   164    1
   239   163   235    1
   240   163   236    1
   241   164   165    1
   242   164   237    1
   243   164   238    1
   244   165   239    1
   245   165   240    1
   246   165   241    1
@<TRIPOS>SUBSTRUCTURE
     1 RES1      241 GROUP             0 ****  ****    0  
