@<TRIPOS>MOLECULE
ICIGOT_geomtry_0_nunpairedes_0_charge_3 Charge: 3 Unpaired_Electrons: 6 XTB_Unpaired_Electrons: 0 XTB_Charge: 3
   197   200     1     0     0
SMALL
NoCharges
****
Generated from Architector

@<TRIPOS>ATOM
     1 Tb1       0.1685    0.0532   -0.1179   Tb        1 RES1   0.0000
     2 C1       -2.7568    2.2017   -1.2542   C.3       1 RES1   0.0000
     3 C2       -3.4744    2.1736   -2.6108   C.3       1 RES1   0.0000
     4 C3       -2.4859    2.3643   -3.7573   C.3       1 RES1   0.0000
     5 C4       -4.3485    0.9232   -2.7769   C.3       1 RES1   0.0000
     6 C5       -3.7197   -0.4011   -2.3442   C.3       1 RES1   0.0000
     7 C6       -4.7854   -1.5021   -2.4313   C.3       1 RES1   0.0000
     8 C7       -4.5346   -2.8186   -1.6726   C.3       1 RES1   0.0000
     9 C8       -3.5556   -3.7299   -2.4188   C.3       1 RES1   0.0000
    10 C9       -4.1584   -2.6339   -0.1932   C.3       1 RES1   0.0000
    11 C10      -5.3019   -2.0335    0.6235   C.3       1 RES1   0.0000
    12 C11      -5.0242   -1.9897    2.1274   C.3       1 RES1   0.0000
    13 C12      -3.9854   -0.9375    2.5498   C.3       1 RES1   0.0000
    14 N1       -2.7031   -1.4994    2.9642   N.am      1 RES1   0.0000
    15 C13      -2.7036   -2.1737    4.2497   C.3       1 RES1   0.0000
    16 C14      -1.6082   -1.3040    2.2567   C.2       1 RES1   0.0000
    17 O1       -1.6038   -0.8254    1.0947   O.2       1 RES1   0.0000
    18 C15      -0.2753   -1.6669    2.9102   C.3       1 RES1   0.0000
    19 O2        0.7449   -0.8320    2.3509   O.3       1 RES1   0.0000
    20 C16       2.0325   -1.4447    2.3539   C.3       1 RES1   0.0000
    21 C17       2.1906   -2.2227    1.0445   C.2       1 RES1   0.0000
    22 O3        1.2801   -2.0434    0.1922   O.2       1 RES1   0.0000
    23 N2        3.2118   -3.0317    0.8538   N.am      1 RES1   0.0000
    24 C18       3.3341   -3.7694   -0.3887   C.3       1 RES1   0.0000
    25 C19       4.2333   -3.3110    1.8533   C.3       1 RES1   0.0000
    26 C20       5.2694   -2.1905    2.0204   C.3       1 RES1   0.0000
    27 C21       6.1658   -2.4135    3.2482   C.3       1 RES1   0.0000
    28 C22       5.3310   -2.6642    4.5022   C.3       1 RES1   0.0000
    29 C23       6.0645   -2.6936    5.8469   C.3       1 RES1   0.0000
    30 C24       7.1639   -3.7552    5.8618   C.3       1 RES1   0.0000
    31 C25       5.0306   -2.9151    6.9750   C.3       1 RES1   0.0000
    32 C26       4.1224   -4.1487    6.8156   C.3       1 RES1   0.0000
    33 C27       2.7497   -3.8281    6.2170   C.3       1 RES1   0.0000
    34 C28       1.8790   -5.0568    5.9158   C.3       1 RES1   0.0000
    35 C29       2.5450   -6.0476    4.9620   C.3       1 RES1   0.0000
    36 C30       0.5471   -4.6024    5.3106   C.3       1 RES1   0.0000
    37 H1       -2.3635    3.2052   -1.0851   H         1 RES1   0.0000
    38 H2       -1.9068    1.4799   -1.2261   H         1 RES1   0.0000
    39 H3       -3.4587    1.9622   -0.4570   H         1 RES1   0.0000
    40 H4       -4.1590    3.0266   -2.6411   H         1 RES1   0.0000
    41 H5       -1.7494    1.5710   -3.7570   H         1 RES1   0.0000
    42 H6       -1.9835    3.3218   -3.6593   H         1 RES1   0.0000
    43 H7       -3.0029    2.3493   -4.7155   H         1 RES1   0.0000
    44 H8       -4.6699    0.8547   -3.8164   H         1 RES1   0.0000
    45 H9       -5.2503    1.0731   -2.1829   H         1 RES1   0.0000
    46 H10      -3.3756   -0.3040   -1.3082   H         1 RES1   0.0000
    47 H11      -2.8622   -0.6197   -2.9861   H         1 RES1   0.0000
    48 H12      -4.9560   -1.7466   -3.4819   H         1 RES1   0.0000
    49 H13      -5.7143   -1.0760   -2.0515   H         1 RES1   0.0000
    50 H14      -5.4953   -3.3457   -1.6776   H         1 RES1   0.0000
    51 H15      -2.5913   -3.2613   -2.6201   H         1 RES1   0.0000
    52 H16      -3.9813   -4.0162   -3.3776   H         1 RES1   0.0000
    53 H17      -3.3848   -4.6459   -1.8589   H         1 RES1   0.0000
    54 H18      -3.2600   -2.0197   -0.0797   H         1 RES1   0.0000
    55 H19      -3.9353   -3.6194    0.2201   H         1 RES1   0.0000
    56 H20      -6.1877   -2.6501    0.4703   H         1 RES1   0.0000
    57 H21      -5.5435   -1.0334    0.2635   H         1 RES1   0.0000
    58 H22      -4.6987   -2.9777    2.4559   H         1 RES1   0.0000
    59 H23      -5.9638   -1.7727    2.6339   H         1 RES1   0.0000
    60 H24      -4.3623   -0.3819    3.4137   H         1 RES1   0.0000
    61 H25      -3.7904   -0.2424    1.7317   H         1 RES1   0.0000
    62 H26      -3.7287   -2.4287    4.5037   H         1 RES1   0.0000
    63 H27      -2.3139   -1.5327    5.0444   H         1 RES1   0.0000
    64 H28      -2.1298   -3.0978    4.2198   H         1 RES1   0.0000
    65 H29      -0.0602   -2.7265    2.7191   H         1 RES1   0.0000
    66 H30      -0.3149   -1.4989    3.9936   H         1 RES1   0.0000
    67 H31       2.1671   -2.0808    3.2386   H         1 RES1   0.0000
    68 H32       2.7582   -0.6224    2.3903   H         1 RES1   0.0000
    69 H33       2.6330   -3.3643   -1.1142   H         1 RES1   0.0000
    70 H34       3.1062   -4.8197   -0.2086   H         1 RES1   0.0000
    71 H35       4.3544   -3.6924   -0.7616   H         1 RES1   0.0000
    72 H36       4.7482   -4.2221    1.5480   H         1 RES1   0.0000
    73 H37       3.7413   -3.5067    2.8071   H         1 RES1   0.0000
    74 H38       4.7595   -1.2320    2.1205   H         1 RES1   0.0000
    75 H39       5.8944   -2.1359    1.1283   H         1 RES1   0.0000
    76 H40       6.7936   -1.5317    3.3847   H         1 RES1   0.0000
    77 H41       6.8207   -3.2635    3.0664   H         1 RES1   0.0000
    78 H42       4.8608   -3.6410    4.4053   H         1 RES1   0.0000
    79 H43       4.5566   -1.8914    4.5611   H         1 RES1   0.0000
    80 H44       6.5398   -1.7217    6.0226   H         1 RES1   0.0000
    81 H45       6.7769   -4.7321    5.5812   H         1 RES1   0.0000
    82 H46       7.6015   -3.8369    6.8535   H         1 RES1   0.0000
    83 H47       7.9597   -3.4930    5.1680   H         1 RES1   0.0000
    84 H48       4.4023   -2.0230    7.0565   H         1 RES1   0.0000
    85 H49       5.5846   -2.9935    7.9109   H         1 RES1   0.0000
    86 H50       3.9565   -4.5988    7.7930   H         1 RES1   0.0000
    87 H51       4.6301   -4.8939    6.2080   H         1 RES1   0.0000
    88 H52       2.8635   -3.2524    5.2937   H         1 RES1   0.0000
    89 H53       2.2087   -3.1936    6.9239   H         1 RES1   0.0000
    90 H54       1.6712   -5.5746    6.8549   H         1 RES1   0.0000
    91 H55       2.8799   -5.5509    4.0496   H         1 RES1   0.0000
    92 H56       1.8375   -6.8258    4.6837   H         1 RES1   0.0000
    93 H57       3.3975   -6.5336    5.4246   H         1 RES1   0.0000
    94 H58       0.7104   -4.2048    4.3052   H         1 RES1   0.0000
    95 H59       0.0856   -3.8301    5.9233   H         1 RES1   0.0000
    96 H60      -0.1443   -5.4381    5.2332   H         1 RES1   0.0000
    97 C31       0.4968    1.9656    5.4940   C.3       1 RES1   0.0000
    98 C32       1.8112    1.4223    6.0539   C.3       1 RES1   0.0000
    99 C33       1.9232   -0.0733    5.7703   C.3       1 RES1   0.0000
   100 C34       3.0270    2.1989    5.5320   C.3       1 RES1   0.0000
   101 C35       3.2723    2.1161    4.0237   C.3       1 RES1   0.0000
   102 C36       4.4197    3.0488    3.6324   C.3       1 RES1   0.0000
   103 C37       4.6600    3.2328    2.1262   C.3       1 RES1   0.0000
   104 C38       5.1140    1.9352    1.4511   C.3       1 RES1   0.0000
   105 C39       3.4530    3.7914    1.3554   C.3       1 RES1   0.0000
   106 C40       2.8054    5.0093    2.0080   C.3       1 RES1   0.0000
   107 C41       1.8589    5.7635    1.0741   C.3       1 RES1   0.0000
   108 C42       0.7511    4.9031    0.4486   C.3       1 RES1   0.0000
   109 N3        1.0604    4.3136   -0.8579   N.am      1 RES1   0.0000
   110 C43       1.2972    5.2745   -1.9141   C.3       1 RES1   0.0000
   111 C44       1.0101    3.0131   -1.0434   C.2       1 RES1   0.0000
   112 O4        0.8937    2.1799   -0.1053   O.2       1 RES1   0.0000
   113 C45       1.0794    2.4269   -2.4513   C.3       1 RES1   0.0000
   114 O5        0.2665    1.2450   -2.4290   O.3       1 RES1   0.0000
   115 C46       0.5794    0.3586   -3.4991   C.3       1 RES1   0.0000
   116 C47       1.7600   -0.5065   -3.0478   C.2       1 RES1   0.0000
   117 O6        2.0143   -0.4725   -1.8178   O.2       1 RES1   0.0000
   118 N4        2.4327   -1.2159   -3.9353   N.am      1 RES1   0.0000
   119 C48       3.5928   -1.9841   -3.5275   C.3       1 RES1   0.0000
   120 C49       2.0511   -1.3108   -5.3403   C.3       1 RES1   0.0000
   121 C50       0.7898   -2.1596   -5.5768   C.3       1 RES1   0.0000
   122 C51       0.0862   -1.8197   -6.8962   C.3       1 RES1   0.0000
   123 C52      -0.4502   -0.3889   -6.9791   C.3       1 RES1   0.0000
   124 C53      -1.4840   -0.1992   -8.0997   C.3       1 RES1   0.0000
   125 C54      -0.9025   -0.5498   -9.4696   C.3       1 RES1   0.0000
   126 C55      -2.0920    1.2189   -8.0765   C.3       1 RES1   0.0000
   127 C56      -1.1204    2.3812   -8.3406   C.3       1 RES1   0.0000
   128 C57      -0.6669    3.1012   -7.0705   C.3       1 RES1   0.0000
   129 C58       0.3300    4.2392   -7.3289   C.3       1 RES1   0.0000
   130 C59       1.5943    3.7545   -8.0352   C.3       1 RES1   0.0000
   131 C60       0.7107    4.9082   -6.0062   C.3       1 RES1   0.0000
   132 H61      -0.3474    1.5432    6.0337   H         1 RES1   0.0000
   133 H62       0.3948    1.7045    4.4364   H         1 RES1   0.0000
   134 H63       0.4550    3.0468    5.5962   H         1 RES1   0.0000
   135 H64       1.7944    1.5623    7.1377   H         1 RES1   0.0000
   136 H65       1.7396   -0.2663    4.7158   H         1 RES1   0.0000
   137 H66       1.1989   -0.6320    6.3586   H         1 RES1   0.0000
   138 H67       2.9149   -0.4360    6.0255   H         1 RES1   0.0000
   139 H68       3.9188    1.8365    6.0472   H         1 RES1   0.0000
   140 H69       2.9044    3.2480    5.8092   H         1 RES1   0.0000
   141 H70       2.3672    2.3978    3.4810   H         1 RES1   0.0000
   142 H71       3.5310    1.0909    3.7495   H         1 RES1   0.0000
   143 H72       5.3426    2.6697    4.0771   H         1 RES1   0.0000
   144 H73       4.2416    4.0297    4.0754   H         1 RES1   0.0000
   145 H74       5.4765    3.9577    2.0373   H         1 RES1   0.0000
   146 H75       4.2730    1.2441    1.3367   H         1 RES1   0.0000
   147 H76       5.8969    1.4499    2.0302   H         1 RES1   0.0000
   148 H77       5.5106    2.1476    0.4592   H         1 RES1   0.0000
   149 H78       2.7104    2.9946    1.2337   H         1 RES1   0.0000
   150 H79       3.8044    4.0690    0.3576   H         1 RES1   0.0000
   151 H80       3.5866    5.7058    2.3153   H         1 RES1   0.0000
   152 H81       2.2649    4.7048    2.9047   H         1 RES1   0.0000
   153 H82       2.4429    6.2546    0.2988   H         1 RES1   0.0000
   154 H83       1.3829    6.5583    1.6489   H         1 RES1   0.0000
   155 H84      -0.1309    5.5331    0.2915   H         1 RES1   0.0000
   156 H85       0.4880    4.0889    1.1264   H         1 RES1   0.0000
   157 H86       2.0741    5.9641   -1.5923   H         1 RES1   0.0000
   158 H87       0.3996    5.8588   -2.1177   H         1 RES1   0.0000
   159 H88       1.6372    4.8085   -2.8296   H         1 RES1   0.0000
   160 H89       0.6820    3.0932   -3.2246   H         1 RES1   0.0000
   161 H90       2.1299    2.1804   -2.6683   H         1 RES1   0.0000
   162 H91       0.7828    0.9157   -4.4185   H         1 RES1   0.0000
   163 H92      -0.2991   -0.2771   -3.6558   H         1 RES1   0.0000
   164 H93       3.7618   -1.8116   -2.4686   H         1 RES1   0.0000
   165 H94       4.4670   -1.6540   -4.0890   H         1 RES1   0.0000
   166 H95       3.4328   -3.0435   -3.7240   H         1 RES1   0.0000
   167 H96       2.8891   -1.7540   -5.8778   H         1 RES1   0.0000
   168 H97       1.8923   -0.3093   -5.7432   H         1 RES1   0.0000
   169 H98       0.0923   -2.0233   -4.7477   H         1 RES1   0.0000
   170 H99       1.0622   -3.2151   -5.5977   H         1 RES1   0.0000
   171 H100     -0.7488   -2.5108   -7.0183   H         1 RES1   0.0000
   172 H101      0.7729   -1.9925   -7.7223   H         1 RES1   0.0000
   173 H102      0.3700    0.3065   -7.1580   H         1 RES1   0.0000
   174 H103     -0.9361   -0.1246   -6.0350   H         1 RES1   0.0000
   175 H104     -2.3129   -0.8911   -7.9066   H         1 RES1   0.0000
   176 H105      0.0575   -0.0680   -9.6361   H         1 RES1   0.0000
   177 H106     -1.5796   -0.2361  -10.2593   H         1 RES1   0.0000
   178 H107     -0.7613   -1.6233   -9.5639   H         1 RES1   0.0000
   179 H108     -2.5825    1.3733   -7.1101   H         1 RES1   0.0000
   180 H109     -2.8779    1.2372   -8.8334   H         1 RES1   0.0000
   181 H110     -1.6066    3.1150   -8.9827   H         1 RES1   0.0000
   182 H111     -0.2547    2.0098   -8.8819   H         1 RES1   0.0000
   183 H112     -0.2121    2.3832   -6.3796   H         1 RES1   0.0000
   184 H113     -1.5458    3.5197   -6.5720   H         1 RES1   0.0000
   185 H114     -0.1529    4.9872   -7.9627   H         1 RES1   0.0000
   186 H115      2.0418    2.9164   -7.4997   H         1 RES1   0.0000
   187 H116      2.3267    4.5564   -8.0848   H         1 RES1   0.0000
   188 H117      1.3841    3.4425   -9.0531   H         1 RES1   0.0000
   189 H118      1.2511    4.2021   -5.3702   H         1 RES1   0.0000
   190 H119     -0.1741    5.2567   -5.4766   H         1 RES1   0.0000
   191 H120      1.3589    5.7622   -6.1853   H         1 RES1   0.0000
   192 O7       -0.8567   -1.6217   -1.5829   O.3       1 RES1   0.0000
   193 H121     -1.7870   -1.9355   -1.6531   H         1 RES1   0.0000
   194 H122     -0.3189   -2.4019   -1.3648   H         1 RES1   0.0000
   195 O8       -0.8437    1.5950    1.8181   O.3       1 RES1   0.0000
   196 H123     -1.6645    2.1000    1.7661   H         1 RES1   0.0000
   197 H124     -0.4157    1.8579    2.6482   H         1 RES1   0.0000
@<TRIPOS>BOND
     1     1    17    1
     2     1    19    1
     3     1    22    1
     4     1   112    1
     5     1   114    1
     6     1   117    1
     7     1   192    1
     8     1   195    1
     9     2     3    1
    10     2    37    1
    11     2    38    1
    12     2    39    1
    13     3     4    1
    14     3     5    1
    15     3    40    1
    16     4    41    1
    17     4    42    1
    18     4    43    1
    19     5     6    1
    20     5    44    1
    21     5    45    1
    22     6     7    1
    23     6    46    1
    24     6    47    1
    25     7     8    1
    26     7    48    1
    27     7    49    1
    28     8     9    1
    29     8    10    1
    30     8    50    1
    31     9    51    1
    32     9    52    1
    33     9    53    1
    34    10    11    1
    35    10    54    1
    36    10    55    1
    37    11    12    1
    38    11    56    1
    39    11    57    1
    40    12    13    1
    41    12    58    1
    42    12    59    1
    43    13    14    1
    44    13    60    1
    45    13    61    1
    46    14    15    1
    47    14    16    1
    48    15    62    1
    49    15    63    1
    50    15    64    1
    51    16    17    2
    52    16    18    1
    53    18    19    1
    54    18    65    1
    55    18    66    1
    56    19    20    1
    57    20    21    1
    58    20    67    1
    59    20    68    1
    60    21    22    2
    61    21    23    1
    62    23    24    1
    63    23    25    1
    64    24    69    1
    65    24    70    1
    66    24    71    1
    67    25    26    1
    68    25    72    1
    69    25    73    1
    70    26    27    1
    71    26    74    1
    72    26    75    1
    73    27    28    1
    74    27    76    1
    75    27    77    1
    76    28    29    1
    77    28    78    1
    78    28    79    1
    79    29    30    1
    80    29    31    1
    81    29    80    1
    82    30    81    1
    83    30    82    1
    84    30    83    1
    85    31    32    1
    86    31    84    1
    87    31    85    1
    88    32    33    1
    89    32    86    1
    90    32    87    1
    91    33    34    1
    92    33    88    1
    93    33    89    1
    94    34    35    1
    95    34    36    1
    96    34    90    1
    97    35    91    1
    98    35    92    1
    99    35    93    1
   100    36    94    1
   101    36    95    1
   102    36    96    1
   103    97    98    1
   104    97   132    1
   105    97   133    1
   106    97   134    1
   107    98    99    1
   108    98   100    1
   109    98   135    1
   110    99   136    1
   111    99   137    1
   112    99   138    1
   113   100   101    1
   114   100   139    1
   115   100   140    1
   116   101   102    1
   117   101   141    1
   118   101   142    1
   119   102   103    1
   120   102   143    1
   121   102   144    1
   122   103   104    1
   123   103   105    1
   124   103   145    1
   125   104   146    1
   126   104   147    1
   127   104   148    1
   128   105   106    1
   129   105   149    1
   130   105   150    1
   131   106   107    1
   132   106   151    1
   133   106   152    1
   134   107   108    1
   135   107   153    1
   136   107   154    1
   137   108   109    1
   138   108   155    1
   139   108   156    1
   140   109   110    1
   141   109   111    1
   142   110   157    1
   143   110   158    1
   144   110   159    1
   145   111   112    2
   146   111   113    1
   147   113   114    1
   148   113   160    1
   149   113   161    1
   150   114   115    1
   151   115   116    1
   152   115   162    1
   153   115   163    1
   154   116   117    2
   155   116   118    1
   156   118   119    1
   157   118   120    1
   158   119   164    1
   159   119   165    1
   160   119   166    1
   161   120   121    1
   162   120   167    1
   163   120   168    1
   164   121   122    1
   165   121   169    1
   166   121   170    1
   167   122   123    1
   168   122   171    1
   169   122   172    1
   170   123   124    1
   171   123   173    1
   172   123   174    1
   173   124   125    1
   174   124   126    1
   175   124   175    1
   176   125   176    1
   177   125   177    1
   178   125   178    1
   179   126   127    1
   180   126   179    1
   181   126   180    1
   182   127   128    1
   183   127   181    1
   184   127   182    1
   185   128   129    1
   186   128   183    1
   187   128   184    1
   188   129   130    1
   189   129   131    1
   190   129   185    1
   191   130   186    1
   192   130   187    1
   193   130   188    1
   194   131   189    1
   195   131   190    1
   196   131   191    1
   197   192   193    1
   198   192   194    1
   199   195   196    1
   200   195   197    1
@<TRIPOS>SUBSTRUCTURE
     1 RES1      197 GROUP             0 ****  ****    0  
