@<TRIPOS>MOLECULE
ICIGOT_geomtry_0_nunpairedes_0_charge_3 Charge: 3 Unpaired_Electrons: 6 XTB_Unpaired_Electrons: 0 XTB_Charge: 3
   121   134     1     0     0
SMALL
NoCharges
****
Generated from Architector

@<TRIPOS>ATOM
     1 Tb1      -0.0322   -0.0247    0.0336   Tb        1 RES1   0.0000
     2 C1        5.0975   -3.2722    0.4912   C.3       1 RES1   0.0000
     3 C2        4.9743   -2.5311   -0.8358   C.3       1 RES1   0.0000
     4 N1        3.5859   -2.2166   -1.1675   N.am      1 RES1   0.0000
     5 C3        2.8169   -1.3260   -0.5429   C.2       1 RES1   0.0000
     6 O1        1.6547   -1.1040   -0.9599   O.2       1 RES1   0.0000
     7 C4        3.2038   -0.5230    0.6883   C.ar      1 RES1   0.0000
     8 C5        4.4742   -0.2272    1.1857   C.ar      1 RES1   0.0000
     9 C6        4.5741    0.6159    2.2861   C.ar      1 RES1   0.0000
    10 C7        3.4346    1.1524    2.8614   C.ar      1 RES1   0.0000
    11 C8        2.1883    0.8059    2.3265   C.ar      1 RES1   0.0000
    12 C9        0.8953    1.3237    2.8647   C.ar      1 RES1   0.0000
    13 C10       0.7898    2.1053    4.0183   C.ar      1 RES1   0.0000
    14 C11      -0.4739    2.4564    4.4807   C.ar      1 RES1   0.0000
    15 C12      -1.6008    2.1439    3.7326   C.ar      1 RES1   0.0000
    16 C13      -1.4029    1.4758    2.5232   C.ar      1 RES1   0.0000
    17 C14      -2.4656    1.1156    1.5257   C.2       1 RES1   0.0000
    18 O2       -2.1804    0.2703    0.6432   O.2       1 RES1   0.0000
    19 N2       -3.6916    1.6292    1.6040   N.am      1 RES1   0.0000
    20 C15      -4.7533    0.9357    0.8783   C.3       1 RES1   0.0000
    21 C16      -5.1119   -0.3684    1.5790   C.3       1 RES1   0.0000
    22 C17      -3.9618    2.9198    2.1047   C.ar      1 RES1   0.0000
    23 C18      -5.1483    3.1915    2.7667   C.ar      1 RES1   0.0000
    24 C19      -5.4158    4.4814    3.1863   C.ar      1 RES1   0.0000
    25 C20      -4.4968    5.4918    2.9579   C.ar      1 RES1   0.0000
    26 C21      -3.3223    5.2282    2.2711   C.ar      1 RES1   0.0000
    27 C22      -3.0669    3.9483    1.8239   C.ar      1 RES1   0.0000
    28 N3       -0.2004    1.0128    2.1621   N.ar      1 RES1   0.0000
    29 N4        2.1028   -0.0112    1.2678   N.ar      1 RES1   0.0000
    30 C23       3.0615   -2.9357   -2.2963   C.ar      1 RES1   0.0000
    31 C24       2.3856   -2.2793   -3.3155   C.ar      1 RES1   0.0000
    32 C25       2.0077   -2.9737   -4.4500   C.ar      1 RES1   0.0000
    33 C26       2.2975   -4.3188   -4.5803   C.ar      1 RES1   0.0000
    34 C27       2.9425   -4.9838   -3.5530   C.ar      1 RES1   0.0000
    35 C28       3.3132   -4.2993   -2.4112   C.ar      1 RES1   0.0000
    36 H1        6.1461   -3.3967    0.7462   H         1 RES1   0.0000
    37 H2        4.6524   -4.2624    0.4418   H         1 RES1   0.0000
    38 H3        4.5998   -2.7272    1.2889   H         1 RES1   0.0000
    39 H4        5.3780   -3.1415   -1.6445   H         1 RES1   0.0000
    40 H5        5.5766   -1.6193   -0.8457   H         1 RES1   0.0000
    41 H6        5.3932   -0.6030    0.7689   H         1 RES1   0.0000
    42 H7        5.5473    0.8594    2.6880   H         1 RES1   0.0000
    43 H8        3.5422    1.8387    3.6865   H         1 RES1   0.0000
    44 H9        1.6673    2.4327    4.5541   H         1 RES1   0.0000
    45 H10      -0.5783    2.9836    5.4183   H         1 RES1   0.0000
    46 H11      -2.5821    2.4354    4.0802   H         1 RES1   0.0000
    47 H12      -4.3960    0.7214   -0.1315   H         1 RES1   0.0000
    48 H13      -5.6185    1.5922    0.8099   H         1 RES1   0.0000
    49 H14      -4.2584   -1.0428    1.5795   H         1 RES1   0.0000
    50 H15      -5.9356   -0.8408    1.0509   H         1 RES1   0.0000
    51 H16      -5.4088   -0.1968    2.6109   H         1 RES1   0.0000
    52 H17      -5.8508    2.4000    2.9562   H         1 RES1   0.0000
    53 H18      -6.3413    4.6943    3.6955   H         1 RES1   0.0000
    54 H19      -4.7078    6.4900    3.2984   H         1 RES1   0.0000
    55 H20      -2.6187    6.0226    2.0739   H         1 RES1   0.0000
    56 H21      -2.1853    3.7254    1.2437   H         1 RES1   0.0000
    57 H22       2.1873   -1.2234   -3.2409   H         1 RES1   0.0000
    58 H23       1.5180   -2.4522   -5.2553   H         1 RES1   0.0000
    59 H24       2.0367   -4.8443   -5.4811   H         1 RES1   0.0000
    60 H25       3.1799   -6.0306   -3.6446   H         1 RES1   0.0000
    61 H26       3.8208   -4.8319   -1.6264   H         1 RES1   0.0000
    62 C29      -0.0949   -5.8994   -0.7470   C.3       1 RES1   0.0000
    63 C30      -1.4008   -5.4530   -0.0889   C.3       1 RES1   0.0000
    64 N5       -1.2379   -4.1841    0.6138   N.am      1 RES1   0.0000
    65 C31      -0.9684   -3.0068    0.0314   C.2       1 RES1   0.0000
    66 O3       -0.5730   -2.0399    0.7299   O.2       1 RES1   0.0000
    67 C32      -1.0992   -2.7172   -1.4677   C.ar      1 RES1   0.0000
    68 C33      -1.4222   -3.5905   -2.5099   C.ar      1 RES1   0.0000
    69 C34      -1.4029   -3.1277   -3.8196   C.ar      1 RES1   0.0000
    70 C35      -1.0284   -1.8251   -4.0904   C.ar      1 RES1   0.0000
    71 C36      -0.7663   -0.9797   -3.0081   C.ar      1 RES1   0.0000
    72 C37      -0.3447    0.4377   -3.2120   C.ar      1 RES1   0.0000
    73 C38      -0.0328    0.9506   -4.4757   C.ar      1 RES1   0.0000
    74 C39       0.4472    2.2470   -4.5908   C.ar      1 RES1   0.0000
    75 C40       0.6117    3.0203   -3.4523   C.ar      1 RES1   0.0000
    76 C41       0.2329    2.4630   -2.2358   C.ar      1 RES1   0.0000
    77 C42       0.4222    3.1019   -0.8967   C.2       1 RES1   0.0000
    78 O4        0.6399    2.2961    0.0428   O.2       1 RES1   0.0000
    79 N6        0.3941    4.4122   -0.6664   N.am      1 RES1   0.0000
    80 C43       0.6728    4.8263    0.7106   C.3       1 RES1   0.0000
    81 C44       2.1363    4.6558    1.0981   C.3       1 RES1   0.0000
    82 C45      -0.0713    5.4156   -1.5549   C.ar      1 RES1   0.0000
    83 C46       0.4673    6.6969   -1.5119   C.ar      1 RES1   0.0000
    84 C47      -0.0414    7.6894   -2.3317   C.ar      1 RES1   0.0000
    85 C48      -1.0648    7.4045   -3.2197   C.ar      1 RES1   0.0000
    86 C49      -1.6114    6.1326   -3.2581   C.ar      1 RES1   0.0000
    87 C50      -1.1385    5.1532   -2.4062   C.ar      1 RES1   0.0000
    88 N7       -0.2168    1.2020   -2.1173   N.ar      1 RES1   0.0000
    89 N8       -0.8402   -1.4248   -1.7473   N.ar      1 RES1   0.0000
    90 C51      -1.2976   -4.2883    2.0469   C.ar      1 RES1   0.0000
    91 C52      -1.8968   -3.2864    2.8012   C.ar      1 RES1   0.0000
    92 C53      -2.0508   -3.4357    4.1669   C.ar      1 RES1   0.0000
    93 C54      -1.6276   -4.5917    4.7988   C.ar      1 RES1   0.0000
    94 C55      -1.0289   -5.5937    4.0581   C.ar      1 RES1   0.0000
    95 C56      -0.8522   -5.4393    2.6956   C.ar      1 RES1   0.0000
    96 H27      -0.2654   -6.8119   -1.3114   H         1 RES1   0.0000
    97 H28       0.6739   -6.1070   -0.0066   H         1 RES1   0.0000
    98 H29       0.3039   -5.1406   -1.4175   H         1 RES1   0.0000
    99 H30      -1.7178   -6.1984    0.6403   H         1 RES1   0.0000
   100 H31      -2.2230   -5.4000   -0.8029   H         1 RES1   0.0000
   101 H32      -1.6865   -4.6219   -2.3749   H         1 RES1   0.0000
   102 H33      -1.6581   -3.7943   -4.6311   H         1 RES1   0.0000
   103 H34      -0.9672   -1.4929   -5.1144   H         1 RES1   0.0000
   104 H35      -0.1293    0.3483   -5.3645   H         1 RES1   0.0000
   105 H36       0.7167    2.6454   -5.5571   H         1 RES1   0.0000
   106 H37       1.0170    4.0182   -3.5184   H         1 RES1   0.0000
   107 H38       0.0630    4.2007    1.3694   H         1 RES1   0.0000
   108 H39       0.3620    5.8628    0.8351   H         1 RES1   0.0000
   109 H40       2.4240    3.6099    1.0165   H         1 RES1   0.0000
   110 H41       2.2631    4.9780    2.1291   H         1 RES1   0.0000
   111 H42       2.7945    5.2456    0.4650   H         1 RES1   0.0000
   112 H43       1.2806    6.9330   -0.8485   H         1 RES1   0.0000
   113 H44       0.3641    8.6880   -2.2809   H         1 RES1   0.0000
   114 H45      -1.4431    8.1741   -3.8707   H         1 RES1   0.0000
   115 H46      -2.4148    5.9048   -3.9411   H         1 RES1   0.0000
   116 H47      -1.6018    4.1814   -2.3877   H         1 RES1   0.0000
   117 H48      -2.2587   -2.3914    2.3227   H         1 RES1   0.0000
   118 H49      -2.5197   -2.6504    4.7384   H         1 RES1   0.0000
   119 H50      -1.7608   -4.7096    5.8597   H         1 RES1   0.0000
   120 H51      -0.6979   -6.5019    4.5375   H         1 RES1   0.0000
   121 H52      -0.3638   -6.2383    2.1667   H         1 RES1   0.0000
@<TRIPOS>BOND
     1     1     6    1
     2     1    18    1
     3     1    28    1
     4     1    29    1
     5     1    66    1
     6     1    78    1
     7     1    88    1
     8     1    89    1
     9     2     3    1
    10     2    36    1
    11     2    37    1
    12     2    38    1
    13     3     4    1
    14     3    39    1
    15     3    40    1
    16     4     5    1
    17     4    30    1
    18     5     6    2
    19     5     7    1
    20     7     8    1
    21     7    29    2
    22     8     9    2
    23     8    41    1
    24     9    10    1
    25     9    42    1
    26    10    11    2
    27    10    43    1
    28    11    12    1
    29    11    29    1
    30    12    13    1
    31    12    28    2
    32    13    14    2
    33    13    44    1
    34    14    15    1
    35    14    45    1
    36    15    16    2
    37    15    46    1
    38    16    17    1
    39    16    28    1
    40    17    18    2
    41    17    19    1
    42    19    20    1
    43    19    22    1
    44    20    21    1
    45    20    47    1
    46    20    48    1
    47    21    49    1
    48    21    50    1
    49    21    51    1
    50    22    23    1
    51    22    27    2
    52    23    24    2
    53    23    52    1
    54    24    25    1
    55    24    53    1
    56    25    26    2
    57    25    54    1
    58    26    27    1
    59    26    55    1
    60    27    56    1
    61    30    31    1
    62    30    35    2
    63    31    32    2
    64    31    57    1
    65    32    33    1
    66    32    58    1
    67    33    34    2
    68    33    59    1
    69    34    35    1
    70    34    60    1
    71    35    61    1
    72    62    63    1
    73    62    96    1
    74    62    97    1
    75    62    98    1
    76    63    64    1
    77    63    99    1
    78    63   100    1
    79    64    65    1
    80    64    90    1
    81    65    66    2
    82    65    67    1
    83    67    68    1
    84    67    89    2
    85    68    69    2
    86    68   101    1
    87    69    70    1
    88    69   102    1
    89    70    71    2
    90    70   103    1
    91    71    72    1
    92    71    89    1
    93    72    73    1
    94    72    88    2
    95    73    74    2
    96    73   104    1
    97    74    75    1
    98    74   105    1
    99    75    76    2
   100    75   106    1
   101    76    77    1
   102    76    88    1
   103    77    78    2
   104    77    79    1
   105    79    80    1
   106    79    82    1
   107    80    81    1
   108    80   107    1
   109    80   108    1
   110    81   109    1
   111    81   110    1
   112    81   111    1
   113    82    83    1
   114    82    87    2
   115    83    84    2
   116    83   112    1
   117    84    85    1
   118    84   113    1
   119    85    86    2
   120    85   114    1
   121    86    87    1
   122    86   115    1
   123    87   116    1
   124    90    91    1
   125    90    95    2
   126    91    92    2
   127    91   117    1
   128    92    93    1
   129    92   118    1
   130    93    94    2
   131    93   119    1
   132    94    95    1
   133    94   120    1
   134    95   121    1
@<TRIPOS>SUBSTRUCTURE
     1 RES1      121 GROUP             0 ****  ****    0  
