@<TRIPOS>MOLECULE
ICIGOT_geomtry_0_nunpairedes_0_charge_3 Charge: 3 Unpaired_Electrons: 6 XTB_Unpaired_Electrons: 0 XTB_Charge: 3
   149   152     1     0     0
SMALL
NoCharges
****
Generated from Architector

@<TRIPOS>ATOM
     1 Tb1      -0.5168   -0.4971   -0.2876   Tb        1 RES1   0.0000
     2 C1        3.6792    1.8716   -9.2406   C.3       1 RES1   0.0000
     3 C2        2.9450    3.1227   -8.7720   C.3       1 RES1   0.0000
     4 C3        3.0890    3.3325   -7.2641   C.3       1 RES1   0.0000
     5 C4        2.4785    4.6465   -6.7650   C.3       1 RES1   0.0000
     6 C5        0.9798    4.8122   -7.0339   C.3       1 RES1   0.0000
     7 C6        0.0405    3.7712   -6.4102   C.3       1 RES1   0.0000
     8 C7       -0.4881    4.1292   -5.0184   C.3       1 RES1   0.0000
     9 C8        0.4550    3.8327   -3.8479   C.3       1 RES1   0.0000
    10 N1        0.6177    2.4236   -3.4889   N.am      1 RES1   0.0000
    11 C9        1.8714    1.7592   -3.8123   C.3       1 RES1   0.0000
    12 C10      -0.2693    1.7102   -2.8170   C.2       1 RES1   0.0000
    13 O1       -0.0177    0.5547   -2.3929   O.2       1 RES1   0.0000
    14 C11      -1.6783    2.2572   -2.5606   C.3       1 RES1   0.0000
    15 O2       -2.1770    1.4989   -1.4692   O.3       1 RES1   0.0000
    16 C12      -3.5676    1.2084   -1.4547   C.3       1 RES1   0.0000
    17 C13      -3.6972   -0.0361   -0.5680   C.2       1 RES1   0.0000
    18 O3       -2.7059   -0.8000   -0.4981   O.2       1 RES1   0.0000
    19 N2       -4.8218   -0.2373    0.0892   N.am      1 RES1   0.0000
    20 C14      -5.9447    0.6711   -0.0129   C.3       1 RES1   0.0000
    21 C15      -4.9807   -1.3872    0.9802   C.3       1 RES1   0.0000
    22 C16      -3.8635   -1.5769    2.0125   C.3       1 RES1   0.0000
    23 C17      -3.4607   -0.3079    2.7702   C.3       1 RES1   0.0000
    24 C18      -2.0072   -0.4281    3.2245   C.3       1 RES1   0.0000
    25 C19      -1.4195    0.8325    3.8802   C.3       1 RES1   0.0000
    26 C20       0.0618    1.0466    3.4917   C.3       1 RES1   0.0000
    27 C21       1.0286    0.6566    4.6110   C.3       1 RES1   0.0000
    28 C22       2.4168    0.3619    4.0618   C.3       1 RES1   0.0000
    29 H1        3.5556    1.7414  -10.3119   H         1 RES1   0.0000
    30 H2        3.2902    0.9842   -8.7440   H         1 RES1   0.0000
    31 H3        4.7430    1.9443   -9.0286   H         1 RES1   0.0000
    32 H4        1.8902    3.0296   -9.0368   H         1 RES1   0.0000
    33 H5        3.3480    3.9930   -9.2916   H         1 RES1   0.0000
    34 H6        4.1551    3.3425   -7.0187   H         1 RES1   0.0000
    35 H7        2.6442    2.4766   -6.7453   H         1 RES1   0.0000
    36 H8        2.9891    5.4673   -7.2734   H         1 RES1   0.0000
    37 H9        2.6960    4.7598   -5.6971   H         1 RES1   0.0000
    38 H10       0.8358    4.7943   -8.1139   H         1 RES1   0.0000
    39 H11       0.6824    5.8048   -6.6933   H         1 RES1   0.0000
    40 H12       0.5119    2.7906   -6.3986   H         1 RES1   0.0000
    41 H13      -0.8287    3.6909   -7.0617   H         1 RES1   0.0000
    42 H14      -1.4379    3.6203   -4.8545   H         1 RES1   0.0000
    43 H15      -0.6878    5.2018   -4.9942   H         1 RES1   0.0000
    44 H16       0.0967    4.3664   -2.9621   H         1 RES1   0.0000
    45 H17       1.4427    4.2209   -4.0944   H         1 RES1   0.0000
    46 H18       2.6071    2.4936   -4.1215   H         1 RES1   0.0000
    47 H19       1.7140    1.0481   -4.6244   H         1 RES1   0.0000
    48 H20       2.2313    1.2139   -2.9370   H         1 RES1   0.0000
    49 H21      -2.2795    2.0948   -3.4655   H         1 RES1   0.0000
    50 H22      -1.6843    3.3285   -2.3233   H         1 RES1   0.0000
    51 H23      -3.9373    0.9746   -2.4623   H         1 RES1   0.0000
    52 H24      -4.1368    2.0619   -1.0704   H         1 RES1   0.0000
    53 H25      -6.1642    0.9459   -1.0405   H         1 RES1   0.0000
    54 H26      -5.7469    1.5735    0.5635   H         1 RES1   0.0000
    55 H27      -6.8298    0.1963    0.3972   H         1 RES1   0.0000
    56 H28      -5.0171   -2.2846    0.3576   H         1 RES1   0.0000
    57 H29      -5.9312   -1.2635    1.4974   H         1 RES1   0.0000
    58 H30      -2.9712   -1.9513    1.5002   H         1 RES1   0.0000
    59 H31      -4.2064   -2.3472    2.7058   H         1 RES1   0.0000
    60 H32      -4.1113   -0.1290    3.6228   H         1 RES1   0.0000
    61 H33      -3.5405    0.5467    2.0982   H         1 RES1   0.0000
    62 H34      -1.4101   -0.6829    2.3255   H         1 RES1   0.0000
    63 H35      -1.9234   -1.2678    3.9122   H         1 RES1   0.0000
    64 H36      -1.4830    0.7316    4.9633   H         1 RES1   0.0000
    65 H37      -2.0305    1.7115    3.6435   H         1 RES1   0.0000
    66 H38       0.2579    2.0881    3.2244   H         1 RES1   0.0000
    67 H39       0.3156    0.4194    2.6135   H         1 RES1   0.0000
    68 H40       0.6512   -0.2263    5.1221   H         1 RES1   0.0000
    69 H41       1.0815    1.4584    5.3427   H         1 RES1   0.0000
    70 H42       2.3323   -0.3791    3.2627   H         1 RES1   0.0000
    71 H43       3.0611   -0.0497    4.8357   H         1 RES1   0.0000
    72 H44       2.8615    1.2756    3.6729   H         1 RES1   0.0000
    73 C23       7.1800   -1.2520    4.8533   C.3       1 RES1   0.0000
    74 C24       7.3902   -2.0994    3.6033   C.3       1 RES1   0.0000
    75 C25       8.5019   -1.5743    2.6888   C.3       1 RES1   0.0000
    76 C26       8.3347   -0.1325    2.2041   C.3       1 RES1   0.0000
    77 C27       7.0979    0.0517    1.3279   C.3       1 RES1   0.0000
    78 C28       6.9354    1.4962    0.8619   C.3       1 RES1   0.0000
    79 C29       5.5777    1.7664    0.2051   C.3       1 RES1   0.0000
    80 C30       4.4964    1.7256    1.2883   C.3       1 RES1   0.0000
    81 N3        3.1205    1.7915    0.8211   N.am      1 RES1   0.0000
    82 C31       2.4608    3.0850    0.8914   C.3       1 RES1   0.0000
    83 C32       2.4003    0.7711    0.4011   C.2       1 RES1   0.0000
    84 O4        1.1697    0.9037    0.1626   O.2       1 RES1   0.0000
    85 C33       3.0111   -0.6101    0.1848   C.3       1 RES1   0.0000
    86 O5        1.9477   -1.5569    0.2229   O.3       1 RES1   0.0000
    87 C34       2.0963   -2.5771    1.2078   C.3       1 RES1   0.0000
    88 C35       0.7237   -2.8434    1.8306   C.2       1 RES1   0.0000
    89 O6       -0.2738   -2.3244    1.2600   O.2       1 RES1   0.0000
    90 N4        0.6623   -3.5715    2.9277   N.am      1 RES1   0.0000
    91 C36       1.8164   -4.1312    3.6092   C.3       1 RES1   0.0000
    92 C37      -0.6506   -3.9225    3.4843   C.3       1 RES1   0.0000
    93 C38      -0.6999   -4.1126    5.0023   C.3       1 RES1   0.0000
    94 C39      -0.1988   -2.9308    5.8587   C.3       1 RES1   0.0000
    95 C40      -1.2467   -2.2859    6.7749   C.3       1 RES1   0.0000
    96 C41      -0.6261   -1.3553    7.8191   C.3       1 RES1   0.0000
    97 C42      -1.6980   -0.5883    8.6057   C.3       1 RES1   0.0000
    98 C43      -2.1205    0.7200    7.9198   C.3       1 RES1   0.0000
    99 C44      -3.4837    0.6442    7.2387   C.3       1 RES1   0.0000
   100 H45       6.5399   -1.7737    5.5610   H         1 RES1   0.0000
   101 H46       8.1328   -1.0628    5.3381   H         1 RES1   0.0000
   102 H47       6.7200   -0.2938    4.6193   H         1 RES1   0.0000
   103 H48       7.6728   -3.1084    3.9087   H         1 RES1   0.0000
   104 H49       6.4469   -2.1848    3.0522   H         1 RES1   0.0000
   105 H50       9.4439   -1.6394    3.2351   H         1 RES1   0.0000
   106 H51       8.5748   -2.2318    1.8185   H         1 RES1   0.0000
   107 H52       8.2787    0.5394    3.0623   H         1 RES1   0.0000
   108 H53       9.2199    0.1446    1.6311   H         1 RES1   0.0000
   109 H54       7.1611   -0.6044    0.4570   H         1 RES1   0.0000
   110 H55       6.2307   -0.2561    1.9132   H         1 RES1   0.0000
   111 H56       7.0567    2.1725    1.7096   H         1 RES1   0.0000
   112 H57       7.7282    1.7213    0.1522   H         1 RES1   0.0000
   113 H58       5.5841    2.7554   -0.2525   H         1 RES1   0.0000
   114 H59       5.3880    1.0333   -0.5812   H         1 RES1   0.0000
   115 H60       4.6085    0.8219    1.8868   H         1 RES1   0.0000
   116 H61       4.6595    2.5740    1.9548   H         1 RES1   0.0000
   117 H62       3.1539    3.8808    0.6264   H         1 RES1   0.0000
   118 H63       1.6186    3.0850    0.1987   H         1 RES1   0.0000
   119 H64       2.0829    3.2686    1.8993   H         1 RES1   0.0000
   120 H65       3.4754   -0.6573   -0.8090   H         1 RES1   0.0000
   121 H66       3.7817   -0.8345    0.9251   H         1 RES1   0.0000
   122 H67       2.4618   -3.4950    0.7244   H         1 RES1   0.0000
   123 H68       2.8001   -2.2711    1.9872   H         1 RES1   0.0000
   124 H69       2.6973   -4.1491    2.9738   H         1 RES1   0.0000
   125 H70       2.0081   -3.5551    4.5173   H         1 RES1   0.0000
   126 H71       1.5842   -5.1524    3.9141   H         1 RES1   0.0000
   127 H72      -1.3470   -3.1529    3.1499   H         1 RES1   0.0000
   128 H73      -0.9481   -4.8717    3.0237   H         1 RES1   0.0000
   129 H74      -1.7386   -4.3415    5.2391   H         1 RES1   0.0000
   130 H75      -0.1496   -5.0175    5.2521   H         1 RES1   0.0000
   131 H76       0.6307   -3.2641    6.4859   H         1 RES1   0.0000
   132 H77       0.1953   -2.1670    5.1859   H         1 RES1   0.0000
   133 H78      -1.9491   -1.7040    6.1774   H         1 RES1   0.0000
   134 H79      -1.7991   -3.0646    7.2996   H         1 RES1   0.0000
   135 H80      -0.0288   -1.9393    8.5182   H         1 RES1   0.0000
   136 H81       0.0488   -0.6394    7.3408   H         1 RES1   0.0000
   137 H82      -2.5824   -1.2108    8.7462   H         1 RES1   0.0000
   138 H83      -1.3264   -0.3601    9.6040   H         1 RES1   0.0000
   139 H84      -2.1559    1.5284    8.6509   H         1 RES1   0.0000
   140 H85      -1.3647    0.9954    7.1754   H         1 RES1   0.0000
   141 H86      -4.2817    0.5827    7.9732   H         1 RES1   0.0000
   142 H87      -3.6414    1.5360    6.6357   H         1 RES1   0.0000
   143 H88      -3.5538   -0.2280    6.5927   H         1 RES1   0.0000
   144 O7       -1.3957    1.3888    0.9743   O.3       1 RES1   0.0000
   145 H89      -1.5531    2.2321    0.5280   H         1 RES1   0.0000
   146 H90      -1.3375    1.5746    1.9286   H         1 RES1   0.0000
   147 O8       -0.3768   -2.2638   -1.8869   O.3       1 RES1   0.0000
   148 H91      -0.6671   -3.1881   -1.9312   H         1 RES1   0.0000
   149 H92      -0.3297   -1.9709   -2.8106   H         1 RES1   0.0000
@<TRIPOS>BOND
     1     1    13    1
     2     1    15    1
     3     1    18    1
     4     1    84    1
     5     1    86    1
     6     1    89    1
     7     1   144    1
     8     1   147    1
     9     2     3    1
    10     2    29    1
    11     2    30    1
    12     2    31    1
    13     3     4    1
    14     3    32    1
    15     3    33    1
    16     4     5    1
    17     4    34    1
    18     4    35    1
    19     5     6    1
    20     5    36    1
    21     5    37    1
    22     6     7    1
    23     6    38    1
    24     6    39    1
    25     7     8    1
    26     7    40    1
    27     7    41    1
    28     8     9    1
    29     8    42    1
    30     8    43    1
    31     9    10    1
    32     9    44    1
    33     9    45    1
    34    10    11    1
    35    10    12    1
    36    11    46    1
    37    11    47    1
    38    11    48    1
    39    12    13    2
    40    12    14    1
    41    14    15    1
    42    14    49    1
    43    14    50    1
    44    15    16    1
    45    16    17    1
    46    16    51    1
    47    16    52    1
    48    17    18    2
    49    17    19    1
    50    19    20    1
    51    19    21    1
    52    20    53    1
    53    20    54    1
    54    20    55    1
    55    21    22    1
    56    21    56    1
    57    21    57    1
    58    22    23    1
    59    22    58    1
    60    22    59    1
    61    23    24    1
    62    23    60    1
    63    23    61    1
    64    24    25    1
    65    24    62    1
    66    24    63    1
    67    25    26    1
    68    25    64    1
    69    25    65    1
    70    26    27    1
    71    26    66    1
    72    26    67    1
    73    27    28    1
    74    27    68    1
    75    27    69    1
    76    28    70    1
    77    28    71    1
    78    28    72    1
    79    73    74    1
    80    73   100    1
    81    73   101    1
    82    73   102    1
    83    74    75    1
    84    74   103    1
    85    74   104    1
    86    75    76    1
    87    75   105    1
    88    75   106    1
    89    76    77    1
    90    76   107    1
    91    76   108    1
    92    77    78    1
    93    77   109    1
    94    77   110    1
    95    78    79    1
    96    78   111    1
    97    78   112    1
    98    79    80    1
    99    79   113    1
   100    79   114    1
   101    80    81    1
   102    80   115    1
   103    80   116    1
   104    81    82    1
   105    81    83    1
   106    82   117    1
   107    82   118    1
   108    82   119    1
   109    83    84    2
   110    83    85    1
   111    85    86    1
   112    85   120    1
   113    85   121    1
   114    86    87    1
   115    87    88    1
   116    87   122    1
   117    87   123    1
   118    88    89    2
   119    88    90    1
   120    90    91    1
   121    90    92    1
   122    91   124    1
   123    91   125    1
   124    91   126    1
   125    92    93    1
   126    92   127    1
   127    92   128    1
   128    93    94    1
   129    93   129    1
   130    93   130    1
   131    94    95    1
   132    94   131    1
   133    94   132    1
   134    95    96    1
   135    95   133    1
   136    95   134    1
   137    96    97    1
   138    96   135    1
   139    96   136    1
   140    97    98    1
   141    97   137    1
   142    97   138    1
   143    98    99    1
   144    98   139    1
   145    98   140    1
   146    99   141    1
   147    99   142    1
   148    99   143    1
   149   144   145    1
   150   144   146    1
   151   147   148    1
   152   147   149    1
@<TRIPOS>SUBSTRUCTURE
     1 RES1      149 GROUP             0 ****  ****    0  
