@<TRIPOS>MOLECULE
square_prismatic_0_nunpairedes_0_charge_3 Charge: 3 Unpaired_Electrons: 6 XTB_Unpaired_Electrons: 0 XTB_Charge: 3
   101   116     1     0     0
SMALL
NoCharges
****
Generated from Architector

@<TRIPOS>ATOM
     1 Tb1      -0.0531    0.0380    0.0306   Tb        1 RES1   0.0000
     2 O1        0.4984   -1.5348   -1.6197   O.2       1 RES1   0.0000
     3 C1       -0.3730   -2.2078   -2.2256   C.2       1 RES1   0.0000
     4 C2       -1.8184   -1.8827   -1.9203   C.ar      1 RES1   0.0000
     5 C3       -2.9562   -2.3906   -2.5502   C.ar      1 RES1   0.0000
     6 C4       -4.2080   -1.9562   -2.1348   C.ar      1 RES1   0.0000
     7 Cl1      -5.5909   -2.6002   -2.8823   Cl        1 RES1   0.0000
     8 C5       -4.3190   -0.9823   -1.1104   C.ar      1 RES1   0.0000
     9 C6       -5.5549   -0.4615   -0.6399   C.ar      1 RES1   0.0000
    10 C7       -5.5917    0.4963    0.3282   C.ar      1 RES1   0.0000
    11 C8       -4.4007    1.0152    0.9045   C.ar      1 RES1   0.0000
    12 C9       -4.3755    2.0293    1.8947   C.ar      1 RES1   0.0000
    13 Cl2      -5.8261    2.6973    2.4887   Cl        1 RES1   0.0000
    14 C10      -3.1567    2.4908    2.3818   C.ar      1 RES1   0.0000
    15 C11      -1.9731    1.9244    1.9033   C.ar      1 RES1   0.0000
    16 C12      -0.5457    2.2897    2.2682   C.2       1 RES1   0.0000
    17 O2        0.3504    1.6908    1.6176   O.2       1 RES1   0.0000
    18 N1       -0.1956    3.1871    3.1771   N.am      1 RES1   0.0000
    19 C13      -0.9776    3.9688    4.1281   C.3       1 RES1   0.0000
    20 C14       0.0626    4.5589    5.0842   C.3       1 RES1   0.0000
    21 C15       1.2600    4.7685    4.1690   C.3       1 RES1   0.0000
    22 C16       1.2284    3.4962    3.3318   C.3       1 RES1   0.0000
    23 N2       -1.9944    0.9642    0.9789   N.ar      1 RES1   0.0000
    24 C17      -3.1520    0.5150    0.4744   C.ar      1 RES1   0.0000
    25 C18      -3.1100   -0.5090   -0.5534   C.ar      1 RES1   0.0000
    26 N3       -1.9163   -0.9705   -0.9528   N.ar      1 RES1   0.0000
    27 N4        0.0094   -3.1302   -3.0935   N.am      1 RES1   0.0000
    28 C19       1.4344   -3.2949   -3.3827   C.3       1 RES1   0.0000
    29 C20       1.4618   -4.1185   -4.6647   C.3       1 RES1   0.0000
    30 C21       0.2607   -5.0319   -4.4640   C.3       1 RES1   0.0000
    31 C22      -0.7744   -4.0824   -3.8644   C.3       1 RES1   0.0000
    32 H1       -2.9165   -3.0980   -3.3549   H         1 RES1   0.0000
    33 H2       -6.4729   -0.8373   -1.0659   H         1 RES1   0.0000
    34 H3       -6.5388    0.8791    0.6705   H         1 RES1   0.0000
    35 H4       -3.1667    3.2784    3.1096   H         1 RES1   0.0000
    36 H5       -1.6978    3.3454    4.6564   H         1 RES1   0.0000
    37 H6       -1.4943    4.7723    3.5929   H         1 RES1   0.0000
    38 H7        0.3097    3.8456    5.8705   H         1 RES1   0.0000
    39 H8       -0.2899    5.4745    5.5483   H         1 RES1   0.0000
    40 H9        2.1929    4.8743    4.7146   H         1 RES1   0.0000
    41 H10       1.1149    5.6540    3.5487   H         1 RES1   0.0000
    42 H11       1.7160    2.6688    3.8569   H         1 RES1   0.0000
    43 H12       1.6953    3.6042    2.3530   H         1 RES1   0.0000
    44 H13       1.8991   -3.8445   -2.5580   H         1 RES1   0.0000
    45 H14       1.9164   -2.3199   -3.4632   H         1 RES1   0.0000
    46 H15       2.3913   -4.6680   -4.7764   H         1 RES1   0.0000
    47 H16       1.3157   -3.4878   -5.5425   H         1 RES1   0.0000
    48 H17       0.5017   -5.8296   -3.7617   H         1 RES1   0.0000
    49 H18      -0.1041   -5.4732   -5.3849   H         1 RES1   0.0000
    50 H19      -1.4813   -4.6140   -3.2276   H         1 RES1   0.0000
    51 H20      -1.2963   -3.5416   -4.6611   H         1 RES1   0.0000
    52 O3       -0.5428    1.5585   -1.5608   O.2       1 RES1   0.0000
    53 C23       0.3229    2.2112   -2.2073   C.2       1 RES1   0.0000
    54 C24       1.7657    1.8696   -1.9269   C.ar      1 RES1   0.0000
    55 C25       2.9144    2.3174   -2.5878   C.ar      1 RES1   0.0000
    56 C26       4.1518    1.8269   -2.1851   C.ar      1 RES1   0.0000
    57 Cl3       5.5686    2.3872   -2.9378   Cl        1 RES1   0.0000
    58 C27       4.2341    0.8496   -1.1589   C.ar      1 RES1   0.0000
    59 C28       5.4429    0.2482   -0.7108   C.ar      1 RES1   0.0000
    60 C29       5.4420   -0.7123    0.2513   C.ar      1 RES1   0.0000
    61 C30       4.2324   -1.1594    0.8518   C.ar      1 RES1   0.0000
    62 C31       4.1498   -2.1846    1.8302   C.ar      1 RES1   0.0000
    63 Cl4       5.5659   -2.9368    2.3929   Cl        1 RES1   0.0000
    64 C32       2.9120   -2.5861    2.3200   C.ar      1 RES1   0.0000
    65 C33       1.7640   -1.9274    1.8691   C.ar      1 RES1   0.0000
    66 C34       0.3212   -2.2062    2.2111   C.2       1 RES1   0.0000
    67 O4       -0.5412   -1.5583    1.5572   O.2       1 RES1   0.0000
    68 N5       -0.1018   -3.0794    3.1017   N.am      1 RES1   0.0000
    69 C35       0.6087   -3.9050    4.0628   C.3       1 RES1   0.0000
    70 C36      -0.4936   -4.3953    5.0029   C.3       1 RES1   0.0000
    71 C37      -1.6912   -4.5196    4.0690   C.3       1 RES1   0.0000
    72 C38      -1.5469   -3.2659    3.2214   C.3       1 RES1   0.0000
    73 N6        1.8400   -0.9382    0.9795   N.ar      1 RES1   0.0000
    74 C39       3.0145   -0.5652    0.4580   C.ar      1 RES1   0.0000
    75 C40       3.0156    0.4583   -0.5640   C.ar      1 RES1   0.0000
    76 N7        1.8426    0.9833   -0.9357   N.ar      1 RES1   0.0000
    77 N8       -0.0984    3.1012   -3.0812   N.am      1 RES1   0.0000
    78 C41       0.6126    4.0614   -3.9079   C.3       1 RES1   0.0000
    79 C42      -0.4893    5.0025   -4.3977   C.3       1 RES1   0.0000
    80 C43      -1.6878    4.0697   -4.5213   C.3       1 RES1   0.0000
    81 C44      -1.5435    3.2220   -3.2679   C.3       1 RES1   0.0000
    82 H21       2.8745    3.0226   -3.3977   H         1 RES1   0.0000
    83 H22       6.3700    0.5762   -1.1577   H         1 RES1   0.0000
    84 H23       6.3683   -1.1597    0.5811   H         1 RES1   0.0000
    85 H24       2.8707   -3.3944    3.0273   H         1 RES1   0.0000
    86 H25       1.3680   -3.3235    4.5851   H         1 RES1   0.0000
    87 H26       1.0738   -4.7464    3.5373   H         1 RES1   0.0000
    88 H27      -0.6945   -3.6487    5.7711   H         1 RES1   0.0000
    89 H28      -0.2225   -5.3299    5.4803   H         1 RES1   0.0000
    90 H29      -2.6407   -4.5432    4.5941   H         1 RES1   0.0000
    91 H30      -1.6032   -5.4161    3.4546   H         1 RES1   0.0000
    92 H31      -1.9700   -2.3870    3.7192   H         1 RES1   0.0000
    93 H32      -1.9897   -3.3394    2.2266   H         1 RES1   0.0000
    94 H33       1.0763    3.5350   -4.7494   H         1 RES1   0.0000
    95 H34       1.3730    4.5833   -3.3275   H         1 RES1   0.0000
    96 H35      -0.2185    5.4794   -5.3326   H         1 RES1   0.0000
    97 H36      -0.6892    5.7710   -3.6512   H         1 RES1   0.0000
    98 H37      -1.6008    3.4550   -5.4177   H         1 RES1   0.0000
    99 H38      -2.6369    4.5954   -4.5442   H         1 RES1   0.0000
   100 H39      -1.9867    2.2272   -3.3413   H         1 RES1   0.0000
   101 H40      -1.9657    3.7197   -2.3884   H         1 RES1   0.0000
@<TRIPOS>BOND
     1     1     2    1
     2     1    17    1
     3     1    23    1
     4     1    26    1
     5     1    52    1
     6     1    67    1
     7     1    73    1
     8     1    76    1
     9     2     3    2
    10     3     4    1
    11     3    27    1
    12     4     5    1
    13     4    26    2
    14     5     6    2
    15     5    32    1
    16     6     7    1
    17     6     8    1
    18     8     9    1
    19     8    25    2
    20     9    10    2
    21     9    33    1
    22    10    11    1
    23    10    34    1
    24    11    12    1
    25    11    24    2
    26    12    13    1
    27    12    14    2
    28    14    15    1
    29    14    35    1
    30    15    16    1
    31    15    23    2
    32    16    17    2
    33    16    18    1
    34    18    19    1
    35    18    22    1
    36    19    20    1
    37    19    36    1
    38    19    37    1
    39    20    21    1
    40    20    38    1
    41    20    39    1
    42    21    22    1
    43    21    40    1
    44    21    41    1
    45    22    42    1
    46    22    43    1
    47    23    24    1
    48    24    25    1
    49    25    26    1
    50    27    28    1
    51    27    31    1
    52    28    29    1
    53    28    44    1
    54    28    45    1
    55    29    30    1
    56    29    46    1
    57    29    47    1
    58    30    31    1
    59    30    48    1
    60    30    49    1
    61    31    50    1
    62    31    51    1
    63    52    53    2
    64    53    54    1
    65    53    77    1
    66    54    55    1
    67    54    76    2
    68    55    56    2
    69    55    82    1
    70    56    57    1
    71    56    58    1
    72    58    59    1
    73    58    75    2
    74    59    60    2
    75    59    83    1
    76    60    61    1
    77    60    84    1
    78    61    62    1
    79    61    74    2
    80    62    63    1
    81    62    64    2
    82    64    65    1
    83    64    85    1
    84    65    66    1
    85    65    73    2
    86    66    67    2
    87    66    68    1
    88    68    69    1
    89    68    72    1
    90    69    70    1
    91    69    86    1
    92    69    87    1
    93    70    71    1
    94    70    88    1
    95    70    89    1
    96    71    72    1
    97    71    90    1
    98    71    91    1
    99    72    92    1
   100    72    93    1
   101    73    74    1
   102    74    75    1
   103    75    76    1
   104    77    78    1
   105    77    81    1
   106    78    79    1
   107    78    94    1
   108    78    95    1
   109    79    80    1
   110    79    96    1
   111    79    97    1
   112    80    81    1
   113    80    98    1
   114    80    99    1
   115    81   100    1
   116    81   101    1
@<TRIPOS>SUBSTRUCTURE
     1 RES1      101 GROUP             0 ****  ****    0  
