@<TRIPOS>MOLECULE
ICIGOT_geomtry_0_nunpairedes_0_charge_2 Charge: 2 Unpaired_Electrons: 6 XTB_Unpaired_Electrons: 0 XTB_Charge: 2
   243   247     1     0     0
SMALL
NoCharges
****
Generated from Architector

@<TRIPOS>ATOM
     1 Tb1      -0.1570   -0.0711   -0.0335   Tb        1 RES1   0.0000
     2 C1       -5.8076    1.5442   -1.2785   C.3       1 RES1   0.0000
     3 C2       -5.5457    0.9772    0.1121   C.3       1 RES1   0.0000
     4 C3       -5.6869    2.0384    1.2064   C.3       1 RES1   0.0000
     5 C4       -4.5421    3.0515    1.2028   C.3       1 RES1   0.0000
     6 C5       -4.6815    4.0979    2.3102   C.3       1 RES1   0.0000
     7 C6       -4.3666    3.5589    3.7085   C.3       1 RES1   0.0000
     8 C7       -2.8604    3.3133    3.9074   C.3       1 RES1   0.0000
     9 C8       -2.5316    1.9535    4.5389   C.3       1 RES1   0.0000
    10 N1       -2.3800    0.8889    3.5562   N.am      1 RES1   0.0000
    11 C9       -3.4277   -0.1251    3.4970   C.3       1 RES1   0.0000
    12 C10      -3.3571   -1.0701    4.6990   C.3       1 RES1   0.0000
    13 C11      -2.1220   -1.9791    4.6798   C.3       1 RES1   0.0000
    14 C12      -2.3370   -3.3397    4.0133   C.3       1 RES1   0.0000
    15 C13      -2.5984   -3.2610    2.5079   C.3       1 RES1   0.0000
    16 C14      -2.3629   -4.5966    1.7815   C.3       1 RES1   0.0000
    17 C15      -3.6228   -5.1576    1.1230   C.3       1 RES1   0.0000
    18 C16      -4.6625   -5.6030    2.1427   C.3       1 RES1   0.0000
    19 C17      -1.3280    0.7805    2.7621   C.2       1 RES1   0.0000
    20 O1       -1.1642   -0.1695    1.9609   O.2       1 RES1   0.0000
    21 C18      -0.1200    1.7015    2.9447   C.3       1 RES1   0.0000
    22 C19       0.7045    0.9294    3.9924   C.3       1 RES1   0.0000
    23 O2        0.6198    1.7443    1.7107   O.3       1 RES1   0.0000
    24 C20       0.7379    2.9963    1.0220   C.3       1 RES1   0.0000
    25 C21       1.9710    2.8434    0.1267   C.3       1 RES1   0.0000
    26 C22      -0.4729    3.1816    0.0886   C.2       1 RES1   0.0000
    27 O3       -1.0591    2.1057   -0.1731   O.2       1 RES1   0.0000
    28 N2       -0.8012    4.3521   -0.4349   N.am      1 RES1   0.0000
    29 C23      -1.9687    4.4408   -1.3186   C.3       1 RES1   0.0000
    30 C24      -1.6657    4.5490   -2.8198   C.3       1 RES1   0.0000
    31 C25      -0.8713    3.3495   -3.3464   C.3       1 RES1   0.0000
    32 C26       0.6347    3.5919   -3.4913   C.3       1 RES1   0.0000
    33 C27       1.0153    4.1399   -4.8677   C.3       1 RES1   0.0000
    34 C28       2.4862    3.9075   -5.2144   C.3       1 RES1   0.0000
    35 C29       3.4828    4.5739   -4.2678   C.3       1 RES1   0.0000
    36 C30       3.4078    6.0946   -4.3015   C.3       1 RES1   0.0000
    37 C31      -0.2589    5.6167    0.0586   C.3       1 RES1   0.0000
    38 C32      -0.1126    6.7363   -0.9707   C.3       1 RES1   0.0000
    39 C33       0.1806    8.0750   -0.2798   C.3       1 RES1   0.0000
    40 C34       1.4982    8.1956    0.4969   C.3       1 RES1   0.0000
    41 C35       2.7437    8.3144   -0.3906   C.3       1 RES1   0.0000
    42 C36       3.4467    7.0026   -0.7408   C.3       1 RES1   0.0000
    43 C37       4.1385    6.3425    0.4514   C.3       1 RES1   0.0000
    44 C38       5.1378    5.2856   -0.0096   C.3       1 RES1   0.0000
    45 H1       -5.7903    0.7538   -2.0242   H         1 RES1   0.0000
    46 H2       -6.7804    2.0286   -1.3145   H         1 RES1   0.0000
    47 H3       -5.0411    2.2655   -1.5471   H         1 RES1   0.0000
    48 H4       -6.2578    0.1719    0.3089   H         1 RES1   0.0000
    49 H5       -4.5399    0.5488    0.1441   H         1 RES1   0.0000
    50 H6       -6.6317    2.5694    1.0664   H         1 RES1   0.0000
    51 H7       -5.7408    1.5377    2.1764   H         1 RES1   0.0000
    52 H8       -3.5905    2.5150    1.2841   H         1 RES1   0.0000
    53 H9       -4.5513    3.5684    0.2439   H         1 RES1   0.0000
    54 H10      -4.0165    4.9419    2.1086   H         1 RES1   0.0000
    55 H11      -5.7059    4.4743    2.2922   H         1 RES1   0.0000
    56 H12      -4.7201    4.2738    4.4531   H         1 RES1   0.0000
    57 H13      -4.9270    2.6383    3.8667   H         1 RES1   0.0000
    58 H14      -2.3720    3.3815    2.9345   H         1 RES1   0.0000
    59 H15      -2.4537    4.1052    4.5378   H         1 RES1   0.0000
    60 H16      -1.6279    2.0251    5.1473   H         1 RES1   0.0000
    61 H17      -3.3460    1.6751    5.2065   H         1 RES1   0.0000
    62 H18      -4.3851    0.3928    3.4826   H         1 RES1   0.0000
    63 H19      -3.3042   -0.6750    2.5652   H         1 RES1   0.0000
    64 H20      -3.3548   -0.4746    5.6151   H         1 RES1   0.0000
    65 H21      -4.2600   -1.6801    4.7273   H         1 RES1   0.0000
    66 H22      -1.3033   -1.4607    4.1754   H         1 RES1   0.0000
    67 H23      -1.8062   -2.1599    5.7082   H         1 RES1   0.0000
    68 H24      -1.4473   -3.9433    4.2052   H         1 RES1   0.0000
    69 H25      -3.1686   -3.8524    4.4984   H         1 RES1   0.0000
    70 H26      -3.6317   -2.9575    2.3536   H         1 RES1   0.0000
    71 H27      -1.9651   -2.4929    2.0542   H         1 RES1   0.0000
    72 H28      -1.6105   -4.4574    1.0023   H         1 RES1   0.0000
    73 H29      -1.9823   -5.3431    2.4826   H         1 RES1   0.0000
    74 H30      -4.0476   -4.3952    0.4669   H         1 RES1   0.0000
    75 H31      -3.3455   -6.0165    0.5058   H         1 RES1   0.0000
    76 H32      -5.0166   -4.7639    2.7372   H         1 RES1   0.0000
    77 H33      -5.5168   -6.0497    1.6407   H         1 RES1   0.0000
    78 H34      -4.2363   -6.3440    2.8157   H         1 RES1   0.0000
    79 H35      -0.3684    2.7149    3.2629   H         1 RES1   0.0000
    80 H36       1.2142    0.1279    3.4596   H         1 RES1   0.0000
    81 H37       1.4278    1.5539    4.5027   H         1 RES1   0.0000
    82 H38       0.0634    0.4726    4.7421   H         1 RES1   0.0000
    83 H39       0.8546    3.8110    1.7440   H         1 RES1   0.0000
    84 H40       2.8584    2.6892    0.7365   H         1 RES1   0.0000
    85 H41       1.8367    1.9659   -0.5284   H         1 RES1   0.0000
    86 H42       2.1106    3.7247   -0.4928   H         1 RES1   0.0000
    87 H43      -2.5532    3.5320   -1.1746   H         1 RES1   0.0000
    88 H44      -2.5575    5.2972   -0.9828   H         1 RES1   0.0000
    89 H45      -2.6421    4.5778   -3.3077   H         1 RES1   0.0000
    90 H46      -1.1439    5.4721   -3.0671   H         1 RES1   0.0000
    91 H47      -1.0424    2.5126   -2.6734   H         1 RES1   0.0000
    92 H48      -1.2652    3.0531   -4.3181   H         1 RES1   0.0000
    93 H49       0.9743    4.2855   -2.7208   H         1 RES1   0.0000
    94 H50       1.1603    2.6449   -3.3393   H         1 RES1   0.0000
    95 H51       0.4188    3.6314   -5.6257   H         1 RES1   0.0000
    96 H52       0.7749    5.2006   -4.9377   H         1 RES1   0.0000
    97 H53       2.6747    2.8301   -5.2228   H         1 RES1   0.0000
    98 H54       2.6712    4.2805   -6.2233   H         1 RES1   0.0000
    99 H55       3.3211    4.2136   -3.2477   H         1 RES1   0.0000
   100 H56       4.4887    4.2747   -4.5696   H         1 RES1   0.0000
   101 H57       2.4635    6.4577   -3.9027   H         1 RES1   0.0000
   102 H58       4.2163    6.5191   -3.7130   H         1 RES1   0.0000
   103 H59       3.5097    6.4561   -5.3214   H         1 RES1   0.0000
   104 H60      -0.9218    5.9840    0.8514   H         1 RES1   0.0000
   105 H61       0.7185    5.4452    0.4976   H         1 RES1   0.0000
   106 H62       0.6761    6.5043   -1.6837   H         1 RES1   0.0000
   107 H63      -1.0440    6.8700   -1.5150   H         1 RES1   0.0000
   108 H64       0.1686    8.8594   -1.0407   H         1 RES1   0.0000
   109 H65      -0.6469    8.2808    0.4051   H         1 RES1   0.0000
   110 H66       1.4273    9.1095    1.0905   H         1 RES1   0.0000
   111 H67       1.6103    7.3732    1.2064   H         1 RES1   0.0000
   112 H68       2.4671    8.8226   -1.3162   H         1 RES1   0.0000
   113 H69       3.4796    8.9473    0.1098   H         1 RES1   0.0000
   114 H70       2.7584    6.2878   -1.1978   H         1 RES1   0.0000
   115 H71       4.2132    7.2344   -1.4833   H         1 RES1   0.0000
   116 H72       4.6661    7.1056    1.0250   H         1 RES1   0.0000
   117 H73       3.4017    5.8875    1.1193   H         1 RES1   0.0000
   118 H74       5.8815    5.7394   -0.6594   H         1 RES1   0.0000
   119 H75       5.6611    4.8418    0.8349   H         1 RES1   0.0000
   120 H76       4.6402    4.4933   -0.5682   H         1 RES1   0.0000
   121 C39       5.1183    1.2452   -3.1608   C.3       1 RES1   0.0000
   122 C40       5.4044    0.6359   -1.7922   C.3       1 RES1   0.0000
   123 C41       5.9928   -0.7739   -1.8934   C.3       1 RES1   0.0000
   124 C42       4.9538   -1.8081   -2.3265   C.3       1 RES1   0.0000
   125 C43       5.4779   -3.2442   -2.2695   C.3       1 RES1   0.0000
   126 C44       5.5841   -3.7924   -0.8445   C.3       1 RES1   0.0000
   127 C45       4.2088   -4.0543   -0.2039   C.3       1 RES1   0.0000
   128 C46       4.0900   -3.5343    1.2386   C.3       1 RES1   0.0000
   129 N3        3.5968   -2.1638    1.2895   N.am      1 RES1   0.0000
   130 C47       4.5770   -1.1300    1.5979   C.3       1 RES1   0.0000
   131 C48       5.0780   -1.2201    3.0417   C.3       1 RES1   0.0000
   132 C49       4.0228   -0.8009    4.0731   C.3       1 RES1   0.0000
   133 C50       4.1244    0.6585    4.5232   C.3       1 RES1   0.0000
   134 C51       3.8471    1.6696    3.4077   C.3       1 RES1   0.0000
   135 C52       3.3730    3.0417    3.9222   C.3       1 RES1   0.0000
   136 C53       4.3028    4.1992    3.5626   C.3       1 RES1   0.0000
   137 C54       5.6447    4.1209    4.2755   C.3       1 RES1   0.0000
   138 C55       2.3485   -1.8348    1.0000   C.2       1 RES1   0.0000
   139 O4        1.9367   -0.6544    0.9322   O.2       1 RES1   0.0000
   140 C56       1.2849   -2.9388    0.9089   C.3       1 RES1   0.0000
   141 C57       0.7697   -3.1096    2.3432   C.3       1 RES1   0.0000
   142 O5        0.1955   -2.5088    0.0778   O.3       1 RES1   0.0000
   143 C58       0.1529   -3.0534   -1.2553   C.3       1 RES1   0.0000
   144 C59      -1.3305   -3.2276   -1.6080   C.3       1 RES1   0.0000
   145 C60       0.8650   -2.0842   -2.2319   C.2       1 RES1   0.0000
   146 O6        1.2709   -1.0101   -1.7450   O.2       1 RES1   0.0000
   147 N4        1.0224   -2.4282   -3.5074   N.am      1 RES1   0.0000
   148 C61       1.7911   -1.5511   -4.3921   C.3       1 RES1   0.0000
   149 C62       1.0226   -0.8197   -5.4995   C.3       1 RES1   0.0000
   150 C63       0.0895    0.2771   -4.9761   C.3       1 RES1   0.0000
   151 C64      -1.3908   -0.1081   -4.9325   C.3       1 RES1   0.0000
   152 C65      -2.1412    0.1835   -6.2325   C.3       1 RES1   0.0000
   153 C66      -3.6479    0.3184   -5.9976   C.3       1 RES1   0.0000
   154 C67      -4.2960   -0.9237   -5.3895   C.3       1 RES1   0.0000
   155 C68      -4.2666   -2.1193   -6.3329   C.3       1 RES1   0.0000
   156 C69       0.8519   -3.7941   -3.9991   C.3       1 RES1   0.0000
   157 C70       0.1947   -3.9696   -5.3691   C.3       1 RES1   0.0000
   158 C71       0.1426   -5.4595   -5.7320   C.3       1 RES1   0.0000
   159 C72      -0.8428   -6.3106   -4.9211   C.3       1 RES1   0.0000
   160 C73      -2.3058   -6.1402   -5.3567   C.3       1 RES1   0.0000
   161 C74      -3.1461   -5.1840   -4.5093   C.3       1 RES1   0.0000
   162 C75      -3.5123   -5.7496   -3.1383   C.3       1 RES1   0.0000
   163 C76      -4.5938   -4.9087   -2.4696   C.3       1 RES1   0.0000
   164 H77       4.8508    2.2934   -3.0624   H         1 RES1   0.0000
   165 H78       6.0004    1.1826   -3.7934   H         1 RES1   0.0000
   166 H79       4.3015    0.7286   -3.6597   H         1 RES1   0.0000
   167 H80       6.1125    1.2804   -1.2643   H         1 RES1   0.0000
   168 H81       4.4787    0.6013   -1.2060   H         1 RES1   0.0000
   169 H82       6.8189   -0.7666   -2.6073   H         1 RES1   0.0000
   170 H83       6.4136   -1.0493   -0.9243   H         1 RES1   0.0000
   171 H84       4.0623   -1.6976   -1.7002   H         1 RES1   0.0000
   172 H85       4.6651   -1.5888   -3.3533   H         1 RES1   0.0000
   173 H86       4.8225   -3.9004   -2.8479   H         1 RES1   0.0000
   174 H87       6.4637   -3.2687   -2.7382   H         1 RES1   0.0000
   175 H88       6.1560   -4.7200   -0.8653   H         1 RES1   0.0000
   176 H89       6.1550   -3.0884   -0.2414   H         1 RES1   0.0000
   177 H90       3.4416   -3.5766   -0.8167   H         1 RES1   0.0000
   178 H91       4.0199   -5.1278   -0.2142   H         1 RES1   0.0000
   179 H92       3.4523   -4.1843    1.8396   H         1 RES1   0.0000
   180 H93       5.0776   -3.5475    1.6964   H         1 RES1   0.0000
   181 H94       5.4107   -1.2474    0.9080   H         1 RES1   0.0000
   182 H95       4.1000   -0.1675    1.4243   H         1 RES1   0.0000
   183 H96       5.4033   -2.2414    3.2491   H         1 RES1   0.0000
   184 H97       5.9619   -0.5896    3.1417   H         1 RES1   0.0000
   185 H98       3.0268   -0.9900    3.6617   H         1 RES1   0.0000
   186 H99       4.1275   -1.4254    4.9610   H         1 RES1   0.0000
   187 H100      3.4154    0.7990    5.3408   H         1 RES1   0.0000
   188 H101      5.1153    0.8376    4.9410   H         1 RES1   0.0000
   189 H102      4.7579    1.8031    2.8275   H         1 RES1   0.0000
   190 H103      3.0873    1.2634    2.7387   H         1 RES1   0.0000
   191 H104      2.3909    3.2690    3.4981   H         1 RES1   0.0000
   192 H105      3.2634    3.0173    5.0085   H         1 RES1   0.0000
   193 H106      4.4554    4.2070    2.4832   H         1 RES1   0.0000
   194 H107      3.8150    5.1383    3.8353   H         1 RES1   0.0000
   195 H108      6.1963    3.2300    3.9832   H         1 RES1   0.0000
   196 H109      6.2497    4.9910    4.0332   H         1 RES1   0.0000
   197 H110      5.4946    4.0942    5.3524   H         1 RES1   0.0000
   198 H111      1.6763   -3.8841    0.5264   H         1 RES1   0.0000
   199 H112      0.2178   -2.2142    2.6272   H         1 RES1   0.0000
   200 H113      0.1170   -3.9723    2.4180   H         1 RES1   0.0000
   201 H114      1.5926   -3.2451    3.0378   H         1 RES1   0.0000
   202 H115      0.6813   -4.0166   -1.2587   H         1 RES1   0.0000
   203 H116     -1.6655   -4.2421   -1.4217   H         1 RES1   0.0000
   204 H117     -1.9230   -2.5639   -0.9750   H         1 RES1   0.0000
   205 H118     -1.5307   -2.9792   -2.6448   H         1 RES1   0.0000
   206 H119      2.2617   -0.7941   -3.7644   H         1 RES1   0.0000
   207 H120      2.5710   -2.1736   -4.8370   H         1 RES1   0.0000
   208 H121      1.7908   -0.3707   -6.1324   H         1 RES1   0.0000
   209 H122      0.4616   -1.5057   -6.1283   H         1 RES1   0.0000
   210 H123      0.4094    0.5531   -3.9713   H         1 RES1   0.0000
   211 H124      0.1886    1.1608   -5.6069   H         1 RES1   0.0000
   212 H125     -1.4911   -1.1653   -4.6762   H         1 RES1   0.0000
   213 H126     -1.8730    0.4689   -4.1422   H         1 RES1   0.0000
   214 H127     -1.7832    1.1287   -6.6447   H         1 RES1   0.0000
   215 H128     -1.9459   -0.5826   -6.9841   H         1 RES1   0.0000
   216 H129     -3.8214    1.1668   -5.3303   H         1 RES1   0.0000
   217 H130     -4.1402    0.5388   -6.9472   H         1 RES1   0.0000
   218 H131     -3.8005   -1.1709   -4.4475   H         1 RES1   0.0000
   219 H132     -5.3372   -0.6943   -5.1569   H         1 RES1   0.0000
   220 H133     -3.2507   -2.4681   -6.5059   H         1 RES1   0.0000
   221 H134     -4.8448   -2.9368   -5.9115   H         1 RES1   0.0000
   222 H135     -4.7038   -1.8542   -7.2929   H         1 RES1   0.0000
   223 H136      1.8485   -4.2483   -4.0552   H         1 RES1   0.0000
   224 H137      0.2661   -4.3688   -3.2916   H         1 RES1   0.0000
   225 H138     -0.8108   -3.5526   -5.3796   H         1 RES1   0.0000
   226 H139      0.7832   -3.4747   -6.1373   H         1 RES1   0.0000
   227 H140     -0.1234   -5.5496   -6.7882   H         1 RES1   0.0000
   228 H141      1.1503   -5.8701   -5.6213   H         1 RES1   0.0000
   229 H142     -0.5646   -7.3546   -5.0709   H         1 RES1   0.0000
   230 H143     -0.7416   -6.1134   -3.8510   H         1 RES1   0.0000
   231 H144     -2.3280   -5.8006   -6.3936   H         1 RES1   0.0000
   232 H145     -2.8056   -7.1105   -5.3309   H         1 RES1   0.0000
   233 H146     -2.6472   -4.2199   -4.3805   H         1 RES1   0.0000
   234 H147     -4.0778   -4.9984   -5.0482   H         1 RES1   0.0000
   235 H148     -3.8781   -6.7697   -3.2593   H         1 RES1   0.0000
   236 H149     -2.6305   -5.8013   -2.4940   H         1 RES1   0.0000
   237 H150     -5.4904   -4.9005   -3.0842   H         1 RES1   0.0000
   238 H151     -4.8548   -5.3183   -1.4979   H         1 RES1   0.0000
   239 H152     -4.2643   -3.8787   -2.3410   H         1 RES1   0.0000
   240 N5       -2.0443    0.3376   -1.4509   N.3       1 RES1   0.0000
   241 O7       -2.8990    1.0279   -1.8903   O.2       1 RES1   0.0000
   242 O8       -0.9151    0.3060   -1.9616   O.co2     1 RES1   0.0000
   243 O9       -2.2188   -0.4147   -0.4799   O.co2     1 RES1   0.0000
@<TRIPOS>BOND
     1     1    20    1
     2     1    23    1
     3     1    27    1
     4     1   139    1
     5     1   142    1
     6     1   146    1
     7     1   242    1
     8     1   243    1
     9     2     3    1
    10     2    45    1
    11     2    46    1
    12     2    47    1
    13     3     4    1
    14     3    48    1
    15     3    49    1
    16     4     5    1
    17     4    50    1
    18     4    51    1
    19     5     6    1
    20     5    52    1
    21     5    53    1
    22     6     7    1
    23     6    54    1
    24     6    55    1
    25     7     8    1
    26     7    56    1
    27     7    57    1
    28     8     9    1
    29     8    58    1
    30     8    59    1
    31     9    10    1
    32     9    60    1
    33     9    61    1
    34    10    11    1
    35    10    19    1
    36    11    12    1
    37    11    62    1
    38    11    63    1
    39    12    13    1
    40    12    64    1
    41    12    65    1
    42    13    14    1
    43    13    66    1
    44    13    67    1
    45    14    15    1
    46    14    68    1
    47    14    69    1
    48    15    16    1
    49    15    70    1
    50    15    71    1
    51    16    17    1
    52    16    72    1
    53    16    73    1
    54    17    18    1
    55    17    74    1
    56    17    75    1
    57    18    76    1
    58    18    77    1
    59    18    78    1
    60    19    20    2
    61    19    21    1
    62    21    22    1
    63    21    23    1
    64    21    79    1
    65    22    80    1
    66    22    81    1
    67    22    82    1
    68    23    24    1
    69    24    25    1
    70    24    26    1
    71    24    83    1
    72    25    84    1
    73    25    85    1
    74    25    86    1
    75    26    27    2
    76    26    28    1
    77    28    29    1
    78    28    37    1
    79    29    30    1
    80    29    87    1
    81    29    88    1
    82    30    31    1
    83    30    89    1
    84    30    90    1
    85    31    32    1
    86    31    91    1
    87    31    92    1
    88    32    33    1
    89    32    93    1
    90    32    94    1
    91    33    34    1
    92    33    95    1
    93    33    96    1
    94    34    35    1
    95    34    97    1
    96    34    98    1
    97    35    36    1
    98    35    99    1
    99    35   100    1
   100    36   101    1
   101    36   102    1
   102    36   103    1
   103    37    38    1
   104    37   104    1
   105    37   105    1
   106    38    39    1
   107    38   106    1
   108    38   107    1
   109    39    40    1
   110    39   108    1
   111    39   109    1
   112    40    41    1
   113    40   110    1
   114    40   111    1
   115    41    42    1
   116    41   112    1
   117    41   113    1
   118    42    43    1
   119    42   114    1
   120    42   115    1
   121    43    44    1
   122    43   116    1
   123    43   117    1
   124    44   118    1
   125    44   119    1
   126    44   120    1
   127   121   122    1
   128   121   164    1
   129   121   165    1
   130   121   166    1
   131   122   123    1
   132   122   167    1
   133   122   168    1
   134   123   124    1
   135   123   169    1
   136   123   170    1
   137   124   125    1
   138   124   171    1
   139   124   172    1
   140   125   126    1
   141   125   173    1
   142   125   174    1
   143   126   127    1
   144   126   175    1
   145   126   176    1
   146   127   128    1
   147   127   177    1
   148   127   178    1
   149   128   129    1
   150   128   179    1
   151   128   180    1
   152   129   130    1
   153   129   138    1
   154   130   131    1
   155   130   181    1
   156   130   182    1
   157   131   132    1
   158   131   183    1
   159   131   184    1
   160   132   133    1
   161   132   185    1
   162   132   186    1
   163   133   134    1
   164   133   187    1
   165   133   188    1
   166   134   135    1
   167   134   189    1
   168   134   190    1
   169   135   136    1
   170   135   191    1
   171   135   192    1
   172   136   137    1
   173   136   193    1
   174   136   194    1
   175   137   195    1
   176   137   196    1
   177   137   197    1
   178   138   139    2
   179   138   140    1
   180   140   141    1
   181   140   142    1
   182   140   198    1
   183   141   199    1
   184   141   200    1
   185   141   201    1
   186   142   143    1
   187   143   144    1
   188   143   145    1
   189   143   202    1
   190   144   203    1
   191   144   204    1
   192   144   205    1
   193   145   146    2
   194   145   147    1
   195   147   148    1
   196   147   156    1
   197   148   149    1
   198   148   206    1
   199   148   207    1
   200   149   150    1
   201   149   208    1
   202   149   209    1
   203   150   151    1
   204   150   210    1
   205   150   211    1
   206   151   152    1
   207   151   212    1
   208   151   213    1
   209   152   153    1
   210   152   214    1
   211   152   215    1
   212   153   154    1
   213   153   216    1
   214   153   217    1
   215   154   155    1
   216   154   218    1
   217   154   219    1
   218   155   220    1
   219   155   221    1
   220   155   222    1
   221   156   157    1
   222   156   223    1
   223   156   224    1
   224   157   158    1
   225   157   225    1
   226   157   226    1
   227   158   159    1
   228   158   227    1
   229   158   228    1
   230   159   160    1
   231   159   229    1
   232   159   230    1
   233   160   161    1
   234   160   231    1
   235   160   232    1
   236   161   162    1
   237   161   233    1
   238   161   234    1
   239   162   163    1
   240   162   235    1
   241   162   236    1
   242   163   237    1
   243   163   238    1
   244   163   239    1
   245   240   241    2
   246   240   242    1
   247   240   243    1
@<TRIPOS>SUBSTRUCTURE
     1 RES1      243 GROUP             0 ****  ****    0  
