@<TRIPOS>MOLECULE
ICIGOT_geomtry_0_nunpairedes_0_charge_3 Charge: 3 Unpaired_Electrons: 6 XTB_Unpaired_Electrons: 0 XTB_Charge: 3
   245   248     1     0     0
SMALL
NoCharges
****
Generated from Architector

@<TRIPOS>ATOM
     1 Tb1       0.0112   -0.4015    0.1130   Tb        1 RES1   0.0000
     2 C1        3.3030   -7.2947   -4.9349   C.3       1 RES1   0.0000
     3 C2        2.5631   -6.6320   -6.0943   C.3       1 RES1   0.0000
     4 C3        1.1404   -7.1705   -6.2651   C.3       1 RES1   0.0000
     5 C4        0.1524   -6.7280   -5.1814   C.3       1 RES1   0.0000
     6 C5       -0.1840   -5.2391   -5.2800   C.3       1 RES1   0.0000
     7 C6       -1.2282   -4.8000   -4.2541   C.3       1 RES1   0.0000
     8 C7       -1.6619   -3.3480   -4.4668   C.3       1 RES1   0.0000
     9 C8       -2.8176   -2.8901   -3.5665   C.3       1 RES1   0.0000
    10 N1       -2.4162   -2.7129   -2.1739   N.am      1 RES1   0.0000
    11 C9       -2.6675   -3.9069   -1.3433   C.3       1 RES1   0.0000
    12 C10      -1.8714   -4.1947   -0.0621   C.3       1 RES1   0.0000
    13 C11      -0.5439   -4.9647   -0.2104   C.3       1 RES1   0.0000
    14 C12      -0.2600   -5.7226    1.0822   C.3       1 RES1   0.0000
    15 C13       0.5705   -3.9880   -0.6251   C.3       1 RES1   0.0000
    16 C14       2.0469   -4.4569   -0.6340   C.3       1 RES1   0.0000
    17 C15       2.6739   -4.4813    0.7630   C.3       1 RES1   0.0000
    18 C16       2.2016   -5.8059   -1.3408   C.3       1 RES1   0.0000
    19 C17       2.8390   -3.4263   -1.4486   C.3       1 RES1   0.0000
    20 C18      -2.0971   -1.5419   -1.6568   C.2       1 RES1   0.0000
    21 O1       -1.8024   -1.3924   -0.4461   O.2       1 RES1   0.0000
    22 C19      -2.0948   -0.2372   -2.4775   C.3       1 RES1   0.0000
    23 O2       -1.0599    0.5626   -1.8927   O.3       1 RES1   0.0000
    24 C20      -1.1487    1.9776   -2.0361   C.3       1 RES1   0.0000
    25 C21      -1.0154    2.5828   -0.6253   C.2       1 RES1   0.0000
    26 O3       -0.9461    1.7629    0.3193   O.2       1 RES1   0.0000
    27 N2       -1.0561    3.8888   -0.4354   N.am      1 RES1   0.0000
    28 C22      -0.8316    4.8699   -1.4900   C.3       1 RES1   0.0000
    29 C23      -1.8836    5.9800   -1.6112   C.3       1 RES1   0.0000
    30 C24      -3.3186    5.4711   -1.7312   C.3       1 RES1   0.0000
    31 C25      -3.6266    4.7676   -3.0525   C.3       1 RES1   0.0000
    32 C26      -4.9729    4.0398   -3.0258   C.3       1 RES1   0.0000
    33 C27      -5.0500    2.9295   -1.9791   C.3       1 RES1   0.0000
    34 C28      -6.3285    2.1021   -2.0787   C.3       1 RES1   0.0000
    35 C29      -6.4108    1.0686   -0.9590   C.3       1 RES1   0.0000
    36 C30      -1.2867    4.4071    0.9125   C.3       1 RES1   0.0000
    37 C31      -0.0795    5.0409    1.6038   C.3       1 RES1   0.0000
    38 C32      -0.5004    5.6576    2.9521   C.3       1 RES1   0.0000
    39 C33      -1.3492    6.9110    2.7238   C.3       1 RES1   0.0000
    40 C34       0.6868    6.0603    3.8481   C.3       1 RES1   0.0000
    41 C35       1.4119    4.9769    4.6805   C.3       1 RES1   0.0000
    42 C36       0.4450    3.8913    5.1655   C.3       1 RES1   0.0000
    43 C37       2.0089    5.6570    5.9192   C.3       1 RES1   0.0000
    44 C38       2.5705    4.3454    3.8992   C.3       1 RES1   0.0000
    45 H1        4.3353   -6.9509   -4.8916   H         1 RES1   0.0000
    46 H2        3.3075   -8.3743   -5.0687   H         1 RES1   0.0000
    47 H3        2.8339   -7.0761   -3.9768   H         1 RES1   0.0000
    48 H4        3.1184   -6.8323   -7.0125   H         1 RES1   0.0000
    49 H5        2.5484   -5.5466   -5.9576   H         1 RES1   0.0000
    50 H6        1.1922   -8.2610   -6.2684   H         1 RES1   0.0000
    51 H7        0.7533   -6.8539   -7.2351   H         1 RES1   0.0000
    52 H8        0.5622   -6.9554   -4.1944   H         1 RES1   0.0000
    53 H9       -0.7651   -7.3078   -5.2990   H         1 RES1   0.0000
    54 H10      -0.5483   -5.0298   -6.2866   H         1 RES1   0.0000
    55 H11       0.7252   -4.6565   -5.1318   H         1 RES1   0.0000
    56 H12      -0.8069   -4.9296   -3.2560   H         1 RES1   0.0000
    57 H13      -2.0992   -5.4503   -4.3450   H         1 RES1   0.0000
    58 H14      -1.9954   -3.2426   -5.5011   H         1 RES1   0.0000
    59 H15      -0.8170   -2.6728   -4.3128   H         1 RES1   0.0000
    60 H16      -3.6188   -3.6326   -3.5888   H         1 RES1   0.0000
    61 H17      -3.2335   -1.9552   -3.9378   H         1 RES1   0.0000
    62 H18      -2.5638   -4.7673   -2.0040   H         1 RES1   0.0000
    63 H19      -3.7251   -3.8429   -1.0687   H         1 RES1   0.0000
    64 H20      -2.5395   -4.8172    0.5351   H         1 RES1   0.0000
    65 H21      -1.6866   -3.2850    0.5134   H         1 RES1   0.0000
    66 H22      -0.6518   -5.7072   -1.0077   H         1 RES1   0.0000
    67 H23       0.0032   -5.0384    1.8810   H         1 RES1   0.0000
    68 H24       0.5442   -6.4360    0.9450   H         1 RES1   0.0000
    69 H25      -1.1339   -6.2925    1.3833   H         1 RES1   0.0000
    70 H26       0.5064   -3.0578    0.0089   H         1 RES1   0.0000
    71 H27       0.3151   -3.7192   -1.6543   H         1 RES1   0.0000
    72 H28       2.3226   -5.3064    1.3691   H         1 RES1   0.0000
    73 H29       2.4683   -3.5454    1.2847   H         1 RES1   0.0000
    74 H30       3.7516   -4.5877    0.6678   H         1 RES1   0.0000
    75 H31       1.7623   -6.6235   -0.7818   H         1 RES1   0.0000
    76 H32       3.2558   -6.0313   -1.4759   H         1 RES1   0.0000
    77 H33       1.7368   -5.7750   -2.3240   H         1 RES1   0.0000
    78 H34       2.6659   -2.4163   -1.0696   H         1 RES1   0.0000
    79 H35       2.5789   -3.4851   -2.5031   H         1 RES1   0.0000
    80 H36       3.8997   -3.6462   -1.3658   H         1 RES1   0.0000
    81 H37      -3.0797    0.2299   -2.3404   H         1 RES1   0.0000
    82 H38      -1.8979   -0.3856   -3.5422   H         1 RES1   0.0000
    83 H39      -2.1126    2.2797   -2.4600   H         1 RES1   0.0000
    84 H40      -0.3426    2.3018   -2.7030   H         1 RES1   0.0000
    85 H41      -0.7586    4.3458   -2.4395   H         1 RES1   0.0000
    86 H42       0.1355    5.3429   -1.2868   H         1 RES1   0.0000
    87 H43      -1.6233    6.5567   -2.4999   H         1 RES1   0.0000
    88 H44      -1.8031    6.6593   -0.7615   H         1 RES1   0.0000
    89 H45      -3.9873    6.3252   -1.6368   H         1 RES1   0.0000
    90 H46      -3.5235    4.7972   -0.8998   H         1 RES1   0.0000
    91 H47      -2.8360    4.0545   -3.3037   H         1 RES1   0.0000
    92 H48      -3.6452    5.5112   -3.8496   H         1 RES1   0.0000
    93 H49      -5.1569    3.6135   -4.0133   H         1 RES1   0.0000
    94 H50      -5.7628    4.7637   -2.8303   H         1 RES1   0.0000
    95 H51      -5.0106    3.3607   -0.9776   H         1 RES1   0.0000
    96 H52      -4.1857    2.2616   -2.0872   H         1 RES1   0.0000
    97 H53      -6.3773    1.6020   -3.0477   H         1 RES1   0.0000
    98 H54      -7.1887    2.7668   -2.0098   H         1 RES1   0.0000
    99 H55      -5.5738    0.3678   -1.0056   H         1 RES1   0.0000
   100 H56      -7.3347    0.5017   -1.0324   H         1 RES1   0.0000
   101 H57      -6.3946    1.5598    0.0128   H         1 RES1   0.0000
   102 H58      -1.6523    3.5737    1.5150   H         1 RES1   0.0000
   103 H59      -2.0722    5.1588    0.8351   H         1 RES1   0.0000
   104 H60       0.3478    5.8271    0.9815   H         1 RES1   0.0000
   105 H61       0.6796    4.2750    1.7617   H         1 RES1   0.0000
   106 H62      -1.1159    4.9276    3.4844   H         1 RES1   0.0000
   107 H63      -0.7517    7.6913    2.2599   H         1 RES1   0.0000
   108 H64      -1.7176    7.2850    3.6735   H         1 RES1   0.0000
   109 H65      -2.2184    6.7189    2.1011   H         1 RES1   0.0000
   110 H66       0.2839    6.7749    4.5658   H         1 RES1   0.0000
   111 H67       1.4201    6.5996    3.2438   H         1 RES1   0.0000
   112 H68      -0.4313    4.3416    5.6218   H         1 RES1   0.0000
   113 H69       0.9275    3.2878    5.9306   H         1 RES1   0.0000
   114 H70       0.1145    3.2381    4.3571   H         1 RES1   0.0000
   115 H71       1.2250    6.0001    6.5873   H         1 RES1   0.0000
   116 H72       2.6159    6.5108    5.6356   H         1 RES1   0.0000
   117 H73       2.6395    4.9643    6.4687   H         1 RES1   0.0000
   118 H74       2.2435    3.9306    2.9479   H         1 RES1   0.0000
   119 H75       3.0339    3.5586    4.4928   H         1 RES1   0.0000
   120 H76       3.3273    5.0962    3.6926   H         1 RES1   0.0000
   121 C39       2.4073   -4.9135    7.9510   C.3       1 RES1   0.0000
   122 C40       2.7701   -3.4639    8.2504   C.3       1 RES1   0.0000
   123 C41       4.2456   -3.1976    7.9660   C.3       1 RES1   0.0000
   124 C42       4.6762   -1.7621    8.2611   C.3       1 RES1   0.0000
   125 C43       3.9083   -0.7067    7.4616   C.3       1 RES1   0.0000
   126 C44       3.9684   -0.9794    5.9608   C.3       1 RES1   0.0000
   127 C45       3.4407    0.1735    5.1077   C.3       1 RES1   0.0000
   128 C46       1.9120    0.3461    5.1853   C.3       1 RES1   0.0000
   129 N3        1.1809   -0.3862    4.1624   N.am      1 RES1   0.0000
   130 C47       0.1461   -1.3352    4.5610   C.3       1 RES1   0.0000
   131 C48       0.6086   -2.7817    4.7229   C.3       1 RES1   0.0000
   132 C49      -0.5181   -3.7847    4.4172   C.3       1 RES1   0.0000
   133 C50       0.0474   -5.1913    4.6167   C.3       1 RES1   0.0000
   134 C51      -1.7719   -3.5625    5.2845   C.3       1 RES1   0.0000
   135 C52      -3.1395   -3.7627    4.5956   C.3       1 RES1   0.0000
   136 C53      -3.2672   -5.1283    3.9197   C.3       1 RES1   0.0000
   137 C54      -3.3962   -2.6691    3.5466   C.3       1 RES1   0.0000
   138 C55      -4.2227   -3.6403    5.6721   C.3       1 RES1   0.0000
   139 C56       1.3259   -0.1620    2.8726   C.2       1 RES1   0.0000
   140 O4        0.8710   -0.9452    1.9999   O.2       1 RES1   0.0000
   141 C57       1.9924    1.1380    2.4259   C.3       1 RES1   0.0000
   142 O5        1.6864    1.3709    1.0553   O.3       1 RES1   0.0000
   143 C58       2.7677    1.8349    0.2559   C.3       1 RES1   0.0000
   144 C59       2.9337    0.8428   -0.8994   C.2       1 RES1   0.0000
   145 O6        2.0883   -0.0861   -0.9507   O.2       1 RES1   0.0000
   146 N4        3.9289    0.9659   -1.7546   N.am      1 RES1   0.0000
   147 C60       4.1530   -0.0549   -2.7753   C.3       1 RES1   0.0000
   148 C61       5.4181   -0.8873   -2.5299   C.3       1 RES1   0.0000
   149 C62       5.9861   -1.4783   -3.8238   C.3       1 RES1   0.0000
   150 C63       5.1356   -2.5954   -4.4467   C.3       1 RES1   0.0000
   151 C64       4.1668   -2.1599   -5.5630   C.3       1 RES1   0.0000
   152 C65       2.6933   -2.3345   -5.1941   C.3       1 RES1   0.0000
   153 C66       1.7381   -2.1026   -6.3650   C.3       1 RES1   0.0000
   154 C67       1.6517   -0.6442   -6.7929   C.3       1 RES1   0.0000
   155 C68       4.8506    2.0921   -1.7719   C.3       1 RES1   0.0000
   156 C69       4.8222    2.8816   -3.0853   C.3       1 RES1   0.0000
   157 C70       3.4343    3.4194   -3.4709   C.3       1 RES1   0.0000
   158 C71       3.1009    4.6453   -2.6231   C.3       1 RES1   0.0000
   159 C72       3.4573    3.7196   -4.9787   C.3       1 RES1   0.0000
   160 C73       2.1500    4.1138   -5.7010   C.3       1 RES1   0.0000
   161 C74       1.7706    5.5835   -5.5015   C.3       1 RES1   0.0000
   162 C75       0.9787    3.2259   -5.2693   C.3       1 RES1   0.0000
   163 C76       2.3845    3.8988   -7.2023   C.3       1 RES1   0.0000
   164 H77       1.3570   -5.1039    8.1654   H         1 RES1   0.0000
   165 H78       2.6003   -5.1514    6.9046   H         1 RES1   0.0000
   166 H79       3.0064   -5.5828    8.5631   H         1 RES1   0.0000
   167 H80       2.1401   -2.8043    7.6474   H         1 RES1   0.0000
   168 H81       2.5598   -3.2438    9.2976   H         1 RES1   0.0000
   169 H82       4.8392   -3.8661    8.5898   H         1 RES1   0.0000
   170 H83       4.4676   -3.4459    6.9255   H         1 RES1   0.0000
   171 H84       4.5435   -1.5618    9.3252   H         1 RES1   0.0000
   172 H85       5.7422   -1.6669    8.0445   H         1 RES1   0.0000
   173 H86       2.8742   -0.6689    7.8059   H         1 RES1   0.0000
   174 H87       4.3530    0.2670    7.6704   H         1 RES1   0.0000
   175 H88       5.0122   -1.1456    5.6927   H         1 RES1   0.0000
   176 H89       3.4144   -1.8860    5.7210   H         1 RES1   0.0000
   177 H90       3.9094    1.0993    5.4455   H         1 RES1   0.0000
   178 H91       3.7577    0.0030    4.0767   H         1 RES1   0.0000
   179 H92       1.5662   -0.0179    6.1538   H         1 RES1   0.0000
   180 H93       1.6516    1.4066    5.1233   H         1 RES1   0.0000
   181 H94      -0.2826   -0.9606    5.4906   H         1 RES1   0.0000
   182 H95      -0.6148   -1.3066    3.7764   H         1 RES1   0.0000
   183 H96       1.4244   -2.9671    4.0215   H         1 RES1   0.0000
   184 H97       0.9864   -2.9519    5.7305   H         1 RES1   0.0000
   185 H98      -0.7912   -3.6440    3.3634   H         1 RES1   0.0000
   186 H99       0.2920   -5.3438    5.6632   H         1 RES1   0.0000
   187 H100     -0.6657   -5.9544    4.3279   H         1 RES1   0.0000
   188 H101      0.9597   -5.3323    4.0405   H         1 RES1   0.0000
   189 H102     -1.7207   -4.2354    6.1403   H         1 RES1   0.0000
   190 H103     -1.7696   -2.5492    5.6865   H         1 RES1   0.0000
   191 H104     -2.5700   -5.2300    3.0924   H         1 RES1   0.0000
   192 H105     -3.0867   -5.9289    4.6293   H         1 RES1   0.0000
   193 H106     -4.2762   -5.2494    3.5336   H         1 RES1   0.0000
   194 H107     -2.6715   -2.7245    2.7319   H         1 RES1   0.0000
   195 H108     -4.3877   -2.8119    3.1251   H         1 RES1   0.0000
   196 H109     -3.3705   -1.6878    4.0189   H         1 RES1   0.0000
   197 H110     -4.1147   -4.4192    6.4197   H         1 RES1   0.0000
   198 H111     -4.1690   -2.6767    6.1721   H         1 RES1   0.0000
   199 H112     -5.2091   -3.7358    5.2296   H         1 RES1   0.0000
   200 H113      1.5943    1.9687    3.0238   H         1 RES1   0.0000
   201 H114      3.0714    1.1003    2.5871   H         1 RES1   0.0000
   202 H115      2.5202    2.8393   -0.1043   H         1 RES1   0.0000
   203 H116      3.6918    1.8896    0.8364   H         1 RES1   0.0000
   204 H117      3.2829   -0.7091   -2.7924   H         1 RES1   0.0000
   205 H118      4.2459    0.4374   -3.7437   H         1 RES1   0.0000
   206 H119      6.1904   -0.2645   -2.0783   H         1 RES1   0.0000
   207 H120      5.2007   -1.6917   -1.8282   H         1 RES1   0.0000
   208 H121      6.1435   -0.6780   -4.5479   H         1 RES1   0.0000
   209 H122      6.9720   -1.8814   -3.5888   H         1 RES1   0.0000
   210 H123      5.8167   -3.3385   -4.8566   H         1 RES1   0.0000
   211 H124      4.5830   -3.1056   -3.6581   H         1 RES1   0.0000
   212 H125      4.3556   -1.1219   -5.8332   H         1 RES1   0.0000
   213 H126      4.3612   -2.7541   -6.4563   H         1 RES1   0.0000
   214 H127      2.5558   -3.3523   -4.8197   H         1 RES1   0.0000
   215 H128      2.4386   -1.6402   -4.3856   H         1 RES1   0.0000
   216 H129      2.0608   -2.7079   -7.2114   H         1 RES1   0.0000
   217 H130      0.7425   -2.4502   -6.0816   H         1 RES1   0.0000
   218 H131      2.6074   -0.2924   -7.1679   H         1 RES1   0.0000
   219 H132      0.9188   -0.5341   -7.5860   H         1 RES1   0.0000
   220 H133      1.3486   -0.0076   -5.9605   H         1 RES1   0.0000
   221 H134      4.6140    2.7549   -0.9471   H         1 RES1   0.0000
   222 H135      5.8621    1.7100   -1.6234   H         1 RES1   0.0000
   223 H136      5.5050    3.7230   -2.9704   H         1 RES1   0.0000
   224 H137      5.2218    2.2695   -3.8929   H         1 RES1   0.0000
   225 H138      2.6892    2.6344   -3.2806   H         1 RES1   0.0000
   226 H139      3.6581    5.5079   -2.9739   H         1 RES1   0.0000
   227 H140      2.0436    4.8844   -2.6730   H         1 RES1   0.0000
   228 H141      3.3578    4.4876   -1.5774   H         1 RES1   0.0000
   229 H142      4.1971    4.5003   -5.1605   H         1 RES1   0.0000
   230 H143      3.8206    2.8148   -5.4727   H         1 RES1   0.0000
   231 H144      1.4258    5.7940   -4.4933   H         1 RES1   0.0000
   232 H145      2.6155    6.2288   -5.7202   H         1 RES1   0.0000
   233 H146      0.9711    5.8410   -6.1912   H         1 RES1   0.0000
   234 H147      0.6997    3.4134   -4.2322   H         1 RES1   0.0000
   235 H148      0.1184    3.4409   -5.8968   H         1 RES1   0.0000
   236 H149      1.2274    2.1725   -5.3852   H         1 RES1   0.0000
   237 H150      3.2306    4.4865   -7.5442   H         1 RES1   0.0000
   238 H151      2.5774    2.8523   -7.4259   H         1 RES1   0.0000
   239 H152      1.5105    4.2108   -7.7659   H         1 RES1   0.0000
   240 O7       -1.7509   -0.1501    2.0337   O.3       1 RES1   0.0000
   241 H153     -2.3063    0.6366    1.9613   H         1 RES1   0.0000
   242 H154     -2.3209   -0.8412    2.4163   H         1 RES1   0.0000
   243 O8        0.4210   -1.4403   -2.4493   O.3       1 RES1   0.0000
   244 H155      0.9211   -0.8583   -3.0380   H         1 RES1   0.0000
   245 H156      0.7920   -2.3328   -2.5771   H         1 RES1   0.0000
@<TRIPOS>BOND
     1     1    21    1
     2     1    23    1
     3     1    26    1
     4     1   140    1
     5     1   142    1
     6     1   145    1
     7     1   240    1
     8     1   243    1
     9     2     3    1
    10     2    45    1
    11     2    46    1
    12     2    47    1
    13     3     4    1
    14     3    48    1
    15     3    49    1
    16     4     5    1
    17     4    50    1
    18     4    51    1
    19     5     6    1
    20     5    52    1
    21     5    53    1
    22     6     7    1
    23     6    54    1
    24     6    55    1
    25     7     8    1
    26     7    56    1
    27     7    57    1
    28     8     9    1
    29     8    58    1
    30     8    59    1
    31     9    10    1
    32     9    60    1
    33     9    61    1
    34    10    11    1
    35    10    20    1
    36    11    12    1
    37    11    62    1
    38    11    63    1
    39    12    13    1
    40    12    64    1
    41    12    65    1
    42    13    14    1
    43    13    15    1
    44    13    66    1
    45    14    67    1
    46    14    68    1
    47    14    69    1
    48    15    16    1
    49    15    70    1
    50    15    71    1
    51    16    17    1
    52    16    18    1
    53    16    19    1
    54    17    72    1
    55    17    73    1
    56    17    74    1
    57    18    75    1
    58    18    76    1
    59    18    77    1
    60    19    78    1
    61    19    79    1
    62    19    80    1
    63    20    21    2
    64    20    22    1
    65    22    23    1
    66    22    81    1
    67    22    82    1
    68    23    24    1
    69    24    25    1
    70    24    83    1
    71    24    84    1
    72    25    26    2
    73    25    27    1
    74    27    28    1
    75    27    36    1
    76    28    29    1
    77    28    85    1
    78    28    86    1
    79    29    30    1
    80    29    87    1
    81    29    88    1
    82    30    31    1
    83    30    89    1
    84    30    90    1
    85    31    32    1
    86    31    91    1
    87    31    92    1
    88    32    33    1
    89    32    93    1
    90    32    94    1
    91    33    34    1
    92    33    95    1
    93    33    96    1
    94    34    35    1
    95    34    97    1
    96    34    98    1
    97    35    99    1
    98    35   100    1
    99    35   101    1
   100    36    37    1
   101    36   102    1
   102    36   103    1
   103    37    38    1
   104    37   104    1
   105    37   105    1
   106    38    39    1
   107    38    40    1
   108    38   106    1
   109    39   107    1
   110    39   108    1
   111    39   109    1
   112    40    41    1
   113    40   110    1
   114    40   111    1
   115    41    42    1
   116    41    43    1
   117    41    44    1
   118    42   112    1
   119    42   113    1
   120    42   114    1
   121    43   115    1
   122    43   116    1
   123    43   117    1
   124    44   118    1
   125    44   119    1
   126    44   120    1
   127   121   122    1
   128   121   164    1
   129   121   165    1
   130   121   166    1
   131   122   123    1
   132   122   167    1
   133   122   168    1
   134   123   124    1
   135   123   169    1
   136   123   170    1
   137   124   125    1
   138   124   171    1
   139   124   172    1
   140   125   126    1
   141   125   173    1
   142   125   174    1
   143   126   127    1
   144   126   175    1
   145   126   176    1
   146   127   128    1
   147   127   177    1
   148   127   178    1
   149   128   129    1
   150   128   179    1
   151   128   180    1
   152   129   130    1
   153   129   139    1
   154   130   131    1
   155   130   181    1
   156   130   182    1
   157   131   132    1
   158   131   183    1
   159   131   184    1
   160   132   133    1
   161   132   134    1
   162   132   185    1
   163   133   186    1
   164   133   187    1
   165   133   188    1
   166   134   135    1
   167   134   189    1
   168   134   190    1
   169   135   136    1
   170   135   137    1
   171   135   138    1
   172   136   191    1
   173   136   192    1
   174   136   193    1
   175   137   194    1
   176   137   195    1
   177   137   196    1
   178   138   197    1
   179   138   198    1
   180   138   199    1
   181   139   140    2
   182   139   141    1
   183   141   142    1
   184   141   200    1
   185   141   201    1
   186   142   143    1
   187   143   144    1
   188   143   202    1
   189   143   203    1
   190   144   145    2
   191   144   146    1
   192   146   147    1
   193   146   155    1
   194   147   148    1
   195   147   204    1
   196   147   205    1
   197   148   149    1
   198   148   206    1
   199   148   207    1
   200   149   150    1
   201   149   208    1
   202   149   209    1
   203   150   151    1
   204   150   210    1
   205   150   211    1
   206   151   152    1
   207   151   212    1
   208   151   213    1
   209   152   153    1
   210   152   214    1
   211   152   215    1
   212   153   154    1
   213   153   216    1
   214   153   217    1
   215   154   218    1
   216   154   219    1
   217   154   220    1
   218   155   156    1
   219   155   221    1
   220   155   222    1
   221   156   157    1
   222   156   223    1
   223   156   224    1
   224   157   158    1
   225   157   159    1
   226   157   225    1
   227   158   226    1
   228   158   227    1
   229   158   228    1
   230   159   160    1
   231   159   229    1
   232   159   230    1
   233   160   161    1
   234   160   162    1
   235   160   163    1
   236   161   231    1
   237   161   232    1
   238   161   233    1
   239   162   234    1
   240   162   235    1
   241   162   236    1
   242   163   237    1
   243   163   238    1
   244   163   239    1
   245   240   241    1
   246   240   242    1
   247   243   244    1
   248   243   245    1
@<TRIPOS>SUBSTRUCTURE
     1 RES1      245 GROUP             0 ****  ****    0  
