@<TRIPOS>MOLECULE
ICIGOT_geomtry_0_nunpairedes_0_charge_2 Charge: 2 Unpaired_Electrons: 6 XTB_Unpaired_Electrons: 0 XTB_Charge: 2
    95   105     1     0     0
SMALL
NoCharges
****
Generated from Architector

@<TRIPOS>ATOM
     1 Tb1      -0.0080    0.1006   -0.2005   Tb        1 RES1   0.0000
     2 C1       -4.5060   -0.2564   -1.9803   C.3       1 RES1   0.0000
     3 N1       -4.3967   -0.0915   -0.5366   N.am      1 RES1   0.0000
     4 C2       -3.1734   -0.1189   -0.0027   C.2       1 RES1   0.0000
     5 O1       -2.1607   -0.0239   -0.7263   O.2       1 RES1   0.0000
     6 C3       -2.9465   -0.4144    1.4605   C.ar      1 RES1   0.0000
     7 C4       -3.8823   -0.8856    2.3814   C.ar      1 RES1   0.0000
     8 C5       -3.4575   -1.1263    3.6791   C.ar      1 RES1   0.0000
     9 C6       -2.1175   -0.9875    4.0174   C.ar      1 RES1   0.0000
    10 C7       -1.2242   -0.6385    3.0106   C.ar      1 RES1   0.0000
    11 C8        0.2724   -0.4857    3.0959   C.2       1 RES1   0.0000
    12 O2        0.8065    0.0984    2.1258   O.2       1 RES1   0.0000
    13 N2        1.0107   -0.9080    4.1266   N.am      1 RES1   0.0000
    14 C9        2.4153   -0.5065    4.1591   C.3       1 RES1   0.0000
    15 C10       0.6252   -1.8172    5.1531   C.ar      1 RES1   0.0000
    16 C11      -0.0403   -3.0065    4.8633   C.ar      1 RES1   0.0000
    17 C12      -0.3073   -3.9051    5.8832   C.ar      1 RES1   0.0000
    18 C13       0.1114   -3.6563    7.1803   C.ar      1 RES1   0.0000
    19 C14       0.7986   -2.4878    7.4573   C.ar      1 RES1   0.0000
    20 C15       1.0450   -1.5666    6.4560   C.ar      1 RES1   0.0000
    21 N3       -1.6554   -0.3174    1.7835   N.ar      1 RES1   0.0000
    22 C16      -5.5360    0.3705    0.1640   C.ar      1 RES1   0.0000
    23 C17      -6.7991   -0.1133   -0.1528   C.ar      1 RES1   0.0000
    24 C18      -7.9135    0.4358    0.4570   C.ar      1 RES1   0.0000
    25 C19      -7.7758    1.4411    1.4005   C.ar      1 RES1   0.0000
    26 C20      -6.5114    1.9081    1.7284   C.ar      1 RES1   0.0000
    27 C21      -5.3932    1.3939    1.1025   C.ar      1 RES1   0.0000
    28 H1       -3.5124   -0.4365   -2.3859   H         1 RES1   0.0000
    29 H2       -4.9286    0.6289   -2.4522   H         1 RES1   0.0000
    30 H3       -5.1408   -1.1147   -2.1985   H         1 RES1   0.0000
    31 H4       -4.9135   -1.0248    2.1040   H         1 RES1   0.0000
    32 H5       -4.1690   -1.4303    4.4287   H         1 RES1   0.0000
    33 H6       -1.7995   -1.1643    5.0315   H         1 RES1   0.0000
    34 H7        2.6511    0.0075    3.2290   H         1 RES1   0.0000
    35 H8        3.0545   -1.3792    4.2850   H         1 RES1   0.0000
    36 H9        2.5979    0.1712    4.9920   H         1 RES1   0.0000
    37 H10      -0.3481   -3.2305    3.8499   H         1 RES1   0.0000
    38 H11      -0.8307   -4.8206    5.6623   H         1 RES1   0.0000
    39 H12      -0.0959   -4.3700    7.9637   H         1 RES1   0.0000
    40 H13       1.1598   -2.2851    8.4507   H         1 RES1   0.0000
    41 H14       1.5574   -0.6504    6.6998   H         1 RES1   0.0000
    42 H15      -6.9116   -0.9109   -0.8708   H         1 RES1   0.0000
    43 H16      -8.8938    0.0844    0.1772   H         1 RES1   0.0000
    44 H17      -8.6506    1.8639    1.8695   H         1 RES1   0.0000
    45 H18      -6.3910    2.7009    2.4494   H         1 RES1   0.0000
    46 H19      -4.4158    1.8034    1.3191   H         1 RES1   0.0000
    47 C22       3.8916    2.5910    0.7533   C.3       1 RES1   0.0000
    48 N4        4.1495    1.2220    0.3144   N.am      1 RES1   0.0000
    49 C23       3.0826    0.4634    0.0370   C.2       1 RES1   0.0000
    50 O3        1.9631    0.9980   -0.1028   O.2       1 RES1   0.0000
    51 C24       3.1239   -1.0524    0.0116   C.ar      1 RES1   0.0000
    52 C25       4.2183   -1.9106    0.1233   C.ar      1 RES1   0.0000
    53 C26       3.9939   -3.2726   -0.0233   C.ar      1 RES1   0.0000
    54 C27       2.7113   -3.7667   -0.2219   C.ar      1 RES1   0.0000
    55 C28       1.6539   -2.8626   -0.1709   C.ar      1 RES1   0.0000
    56 C29       0.1660   -3.1057   -0.2863   C.2       1 RES1   0.0000
    57 O4       -0.5499   -2.0797   -0.2701   O.2       1 RES1   0.0000
    58 N5       -0.4080   -4.2989   -0.4514   N.am      1 RES1   0.0000
    59 C30      -1.8193   -4.3171   -0.8341   C.3       1 RES1   0.0000
    60 C31       0.1176   -5.5452   -0.0265   C.ar      1 RES1   0.0000
    61 C32       0.7568   -5.6499    1.2069   C.ar      1 RES1   0.0000
    62 C33       1.1294   -6.8972    1.6741   C.ar      1 RES1   0.0000
    63 C34       0.8374   -8.0395    0.9457   C.ar      1 RES1   0.0000
    64 C35       0.1891   -7.9288   -0.2724   C.ar      1 RES1   0.0000
    65 C36      -0.1595   -6.6866   -0.7686   C.ar      1 RES1   0.0000
    66 N6        1.8884   -1.5501   -0.0706   N.ar      1 RES1   0.0000
    67 C37       5.4723    0.9365   -0.1018   C.ar      1 RES1   0.0000
    68 C38       6.5500    1.4461    0.6114   C.ar      1 RES1   0.0000
    69 C39       7.8298    1.3147    0.1023   C.ar      1 RES1   0.0000
    70 C40       8.0437    0.6493   -1.0939   C.ar      1 RES1   0.0000
    71 C41       6.9670    0.1244   -1.7927   C.ar      1 RES1   0.0000
    72 C42       5.6804    0.2828   -1.3165   C.ar      1 RES1   0.0000
    73 H20       2.8192    2.7138    0.8903   H         1 RES1   0.0000
    74 H21       4.2452    3.3181    0.0233   H         1 RES1   0.0000
    75 H22       4.3978    2.7704    1.7012   H         1 RES1   0.0000
    76 H23       5.2168   -1.5391    0.2785   H         1 RES1   0.0000
    77 H24       4.8314   -3.9521   -0.0091   H         1 RES1   0.0000
    78 H25       2.5657   -4.8205   -0.3890   H         1 RES1   0.0000
    79 H26      -2.1561   -3.2932   -0.9865   H         1 RES1   0.0000
    80 H27      -2.4159   -4.7979   -0.0591   H         1 RES1   0.0000
    81 H28      -1.9474   -4.8697   -1.7627   H         1 RES1   0.0000
    82 H29       0.9489   -4.7627    1.7973   H         1 RES1   0.0000
    83 H30       1.6254   -6.9803    2.6272   H         1 RES1   0.0000
    84 H31       1.1103   -9.0083    1.3348   H         1 RES1   0.0000
    85 H32      -0.0686   -8.8069   -0.8392   H         1 RES1   0.0000
    86 H33      -0.6397   -6.6105   -1.7307   H         1 RES1   0.0000
    87 H34       6.3899    1.9464    1.5539   H         1 RES1   0.0000
    88 H35       8.6588    1.7540    0.6341   H         1 RES1   0.0000
    89 H36       9.0436    0.5513   -1.4859   H         1 RES1   0.0000
    90 H37       7.1162   -0.3800   -2.7334   H         1 RES1   0.0000
    91 H38       4.8385   -0.0750   -1.8928   H         1 RES1   0.0000
    92 N7        0.1236    0.9680   -2.5055   N.3       1 RES1   0.0000
    93 O5        0.0853    1.3221   -3.6362   O.2       1 RES1   0.0000
    94 O6       -0.2730    1.6899   -1.5725   O.co2     1 RES1   0.0000
    95 O7        0.5568   -0.1653   -2.1973   O.co2     1 RES1   0.0000
@<TRIPOS>BOND
     1     1     5    1
     2     1    12    1
     3     1    21    1
     4     1    50    1
     5     1    57    1
     6     1    66    1
     7     1    94    1
     8     1    95    1
     9     2     3    1
    10     2    28    1
    11     2    29    1
    12     2    30    1
    13     3     4    1
    14     3    22    1
    15     4     5    2
    16     4     6    1
    17     6     7    1
    18     6    21    2
    19     7     8    2
    20     7    31    1
    21     8     9    1
    22     8    32    1
    23     9    10    2
    24     9    33    1
    25    10    11    1
    26    10    21    1
    27    11    12    2
    28    11    13    1
    29    13    14    1
    30    13    15    1
    31    14    34    1
    32    14    35    1
    33    14    36    1
    34    15    16    1
    35    15    20    2
    36    16    17    2
    37    16    37    1
    38    17    18    1
    39    17    38    1
    40    18    19    2
    41    18    39    1
    42    19    20    1
    43    19    40    1
    44    20    41    1
    45    22    23    1
    46    22    27    2
    47    23    24    2
    48    23    42    1
    49    24    25    1
    50    24    43    1
    51    25    26    2
    52    25    44    1
    53    26    27    1
    54    26    45    1
    55    27    46    1
    56    47    48    1
    57    47    73    1
    58    47    74    1
    59    47    75    1
    60    48    49    1
    61    48    67    1
    62    49    50    2
    63    49    51    1
    64    51    52    1
    65    51    66    2
    66    52    53    2
    67    52    76    1
    68    53    54    1
    69    53    77    1
    70    54    55    2
    71    54    78    1
    72    55    56    1
    73    55    66    1
    74    56    57    2
    75    56    58    1
    76    58    59    1
    77    58    60    1
    78    59    79    1
    79    59    80    1
    80    59    81    1
    81    60    61    1
    82    60    65    2
    83    61    62    2
    84    61    82    1
    85    62    63    1
    86    62    83    1
    87    63    64    2
    88    63    84    1
    89    64    65    1
    90    64    85    1
    91    65    86    1
    92    67    68    1
    93    67    72    2
    94    68    69    2
    95    68    87    1
    96    69    70    1
    97    69    88    1
    98    70    71    2
    99    70    89    1
   100    71    72    1
   101    71    90    1
   102    72    91    1
   103    92    93    2
   104    92    94    1
   105    92    95    1
@<TRIPOS>SUBSTRUCTURE
     1 RES1       95 GROUP             0 ****  ****    0  
