@<TRIPOS>MOLECULE
ICIGOT_geomtry_0_nunpairedes_0_charge_3 Charge: 3 Unpaired_Electrons: 6 XTB_Unpaired_Electrons: 0 XTB_Charge: 3
   281   284     1     0     0
SMALL
NoCharges
****
Generated from Architector

@<TRIPOS>ATOM
     1 Tb1      -0.3745   -0.3366   -0.0198   Tb        1 RES1   0.0000
     2 C1        1.2871    2.3514   -3.1345   C.3       1 RES1   0.0000
     3 C2        2.1937    1.1223   -3.2409   C.3       1 RES1   0.0000
     4 C3        3.6639    1.5101   -3.3736   C.3       1 RES1   0.0000
     5 C4        4.2669    2.1115   -2.1104   C.3       1 RES1   0.0000
     6 C5        5.7438    2.4551   -2.3157   C.3       1 RES1   0.0000
     7 C6        6.7203    1.3311   -1.9643   C.3       1 RES1   0.0000
     8 C7        6.5369   -0.0054   -2.6977   C.3       1 RES1   0.0000
     9 C8        5.6467   -0.9994   -1.9475   C.3       1 RES1   0.0000
    10 C9        5.6246   -2.3795   -2.6053   C.3       1 RES1   0.0000
    11 C10       4.9165   -3.4190   -1.7344   C.3       1 RES1   0.0000
    12 C11       3.4001   -3.2209   -1.7087   C.3       1 RES1   0.0000
    13 C12       2.7159   -3.8515   -0.4942   C.3       1 RES1   0.0000
    14 N1        2.8536   -3.0827    0.7476   N.am      1 RES1   0.0000
    15 C13       3.6720   -3.6057    1.8361   C.3       1 RES1   0.0000
    16 C14       4.9991   -2.8682    2.0371   C.3       1 RES1   0.0000
    17 C15       5.6175   -3.2463    3.3836   C.3       1 RES1   0.0000
    18 C16       6.9683   -2.5676    3.6154   C.3       1 RES1   0.0000
    19 C17       6.9265   -1.0392    3.5943   C.3       1 RES1   0.0000
    20 C18       6.0066   -0.4313    4.6510   C.3       1 RES1   0.0000
    21 C19       6.1011    1.0932    4.7024   C.3       1 RES1   0.0000
    22 C20       5.6247    1.7651    3.4190   C.3       1 RES1   0.0000
    23 C21       2.1630   -1.9648    0.8625   C.2       1 RES1   0.0000
    24 O1        1.5200   -1.4568   -0.0943   O.2       1 RES1   0.0000
    25 C22       2.0531   -1.2812    2.2333   C.3       1 RES1   0.0000
    26 O2        1.1364   -0.1809    2.1199   O.3       1 RES1   0.0000
    27 C23       0.1795   -0.1190    3.1724   C.3       1 RES1   0.0000
    28 C24      -0.9774   -1.0692    2.8437   C.2       1 RES1   0.0000
    29 O3       -1.0584   -1.4445    1.6463   O.2       1 RES1   0.0000
    30 N2       -1.8821   -1.3959    3.7385   N.am      1 RES1   0.0000
    31 C25      -1.7636   -1.0083    5.1379   C.3       1 RES1   0.0000
    32 C26      -1.0634   -2.0726    5.9908   C.3       1 RES1   0.0000
    33 C27       0.3358   -2.4440    5.5078   C.3       1 RES1   0.0000
    34 C28       1.0572   -3.3864    6.4676   C.3       1 RES1   0.0000
    35 C29       1.4171   -2.7594    7.8173   C.3       1 RES1   0.0000
    36 C30       2.3785   -1.5645    7.7469   C.3       1 RES1   0.0000
    37 C31       1.7075   -0.1926    7.6686   C.3       1 RES1   0.0000
    38 C32       2.7358    0.9310    7.7078   C.3       1 RES1   0.0000
    39 C33      -3.1103   -2.0487    3.2757   C.3       1 RES1   0.0000
    40 C34      -2.9373   -3.4105    2.5969   C.3       1 RES1   0.0000
    41 C35      -2.6177   -4.5405    3.5706   C.3       1 RES1   0.0000
    42 C36      -2.6371   -5.9037    2.8765   C.3       1 RES1   0.0000
    43 C37      -1.5414   -6.1505    1.8312   C.3       1 RES1   0.0000
    44 C38      -0.2415   -6.7218    2.4030   C.3       1 RES1   0.0000
    45 C39       0.6084   -5.7069    3.1633   C.3       1 RES1   0.0000
    46 C40       1.9461   -6.2807    3.6369   C.3       1 RES1   0.0000
    47 C41       1.8605   -7.5050    4.5554   C.3       1 RES1   0.0000
    48 C42       1.2554   -7.2539    5.9405   C.3       1 RES1   0.0000
    49 C43      -0.2686   -7.3302    6.0080   C.3       1 RES1   0.0000
    50 C44      -0.7762   -7.1870    7.4370   C.3       1 RES1   0.0000
    51 H1        0.4095    2.2597   -3.7744   H         1 RES1   0.0000
    52 H2        1.8415    3.2206   -3.4714   H         1 RES1   0.0000
    53 H3        0.9831    2.5278   -2.1049   H         1 RES1   0.0000
    54 H4        1.9456    0.5868   -4.1604   H         1 RES1   0.0000
    55 H5        2.0509    0.4422   -2.3795   H         1 RES1   0.0000
    56 H6        3.7508    2.2360   -4.1845   H         1 RES1   0.0000
    57 H7        4.2299    0.6341   -3.6802   H         1 RES1   0.0000
    58 H8        4.1655    1.4142   -1.2732   H         1 RES1   0.0000
    59 H9        3.7139    3.0190   -1.8580   H         1 RES1   0.0000
    60 H10       5.9954    3.3091   -1.6861   H         1 RES1   0.0000
    61 H11       5.9008    2.7690   -3.3491   H         1 RES1   0.0000
    62 H12       6.6798    1.1533   -0.8868   H         1 RES1   0.0000
    63 H13       7.7201    1.7044   -2.1870   H         1 RES1   0.0000
    64 H14       7.5186   -0.4683   -2.8086   H         1 RES1   0.0000
    65 H15       6.1629    0.1728   -3.7065   H         1 RES1   0.0000
    66 H16       4.6258   -0.6224   -1.8579   H         1 RES1   0.0000
    67 H17       6.0484   -1.1085   -0.9368   H         1 RES1   0.0000
    68 H18       6.6529   -2.7041   -2.7688   H         1 RES1   0.0000
    69 H19       5.1381   -2.3296   -3.5819   H         1 RES1   0.0000
    70 H20       5.3176   -3.3529   -0.7238   H         1 RES1   0.0000
    71 H21       5.1402   -4.4176   -2.1115   H         1 RES1   0.0000
    72 H22       2.9716   -3.6745   -2.6041   H         1 RES1   0.0000
    73 H23       3.1514   -2.1595   -1.7241   H         1 RES1   0.0000
    74 H24       3.1016   -4.8558   -0.3227   H         1 RES1   0.0000
    75 H25       1.6412   -3.9216   -0.6933   H         1 RES1   0.0000
    76 H26       3.8803   -4.6568    1.6433   H         1 RES1   0.0000
    77 H27       3.0996   -3.5666    2.7668   H         1 RES1   0.0000
    78 H28       4.8355   -1.7920    1.9882   H         1 RES1   0.0000
    79 H29       5.7027   -3.1310    1.2474   H         1 RES1   0.0000
    80 H30       5.7622   -4.3276    3.4181   H         1 RES1   0.0000
    81 H31       4.9333   -2.9837    4.1924   H         1 RES1   0.0000
    82 H32       7.6661   -2.9058    2.8476   H         1 RES1   0.0000
    83 H33       7.3566   -2.8994    4.5789   H         1 RES1   0.0000
    84 H34       6.6326   -0.6968    2.6010   H         1 RES1   0.0000
    85 H35       7.9390   -0.6745    3.7706   H         1 RES1   0.0000
    86 H36       6.2803   -0.8347    5.6272   H         1 RES1   0.0000
    87 H37       4.9661   -0.7131    4.4573   H         1 RES1   0.0000
    88 H38       7.1337    1.3818    4.8959   H         1 RES1   0.0000
    89 H39       5.4994    1.4553    5.5387   H         1 RES1   0.0000
    90 H40       6.3074    1.5682    2.5965   H         1 RES1   0.0000
    91 H41       5.5714    2.8421    3.5569   H         1 RES1   0.0000
    92 H42       4.6332    1.4021    3.1435   H         1 RES1   0.0000
    93 H43       3.0247   -0.9037    2.5839   H         1 RES1   0.0000
    94 H44       1.6804   -2.0179    2.9573   H         1 RES1   0.0000
    95 H45      -0.2334    0.9031    3.1680   H         1 RES1   0.0000
    96 H46       0.6669   -0.2882    4.1358   H         1 RES1   0.0000
    97 H47      -2.7723   -0.8464    5.5214   H         1 RES1   0.0000
    98 H48      -1.2413   -0.0510    5.1983   H         1 RES1   0.0000
    99 H49      -1.6770   -2.9733    6.0189   H         1 RES1   0.0000
   100 H50      -1.0122   -1.6748    7.0032   H         1 RES1   0.0000
   101 H51       0.9578   -1.5549    5.4196   H         1 RES1   0.0000
   102 H52       0.2556   -2.9163    4.5218   H         1 RES1   0.0000
   103 H53       1.9817   -3.7139    5.9854   H         1 RES1   0.0000
   104 H54       0.4387   -4.2689    6.6377   H         1 RES1   0.0000
   105 H55       1.8876   -3.5471    8.4081   H         1 RES1   0.0000
   106 H56       0.5121   -2.4666    8.3502   H         1 RES1   0.0000
   107 H57       3.0679   -1.6948    6.9084   H         1 RES1   0.0000
   108 H58       2.9826   -1.5688    8.6543   H         1 RES1   0.0000
   109 H59       1.0285   -0.0881    8.5154   H         1 RES1   0.0000
   110 H60       1.1097   -0.0871    6.7592   H         1 RES1   0.0000
   111 H61       3.2832    0.9158    8.6452   H         1 RES1   0.0000
   112 H62       2.2490    1.8987    7.6156   H         1 RES1   0.0000
   113 H63       3.4565    0.8297    6.8978   H         1 RES1   0.0000
   114 H64      -3.5846   -1.3515    2.5734   H         1 RES1   0.0000
   115 H65      -3.7617   -2.1553    4.1406   H         1 RES1   0.0000
   116 H66      -2.1616   -3.3476    1.8311   H         1 RES1   0.0000
   117 H67      -3.8849   -3.6428    2.1047   H         1 RES1   0.0000
   118 H68      -3.3772   -4.5598    4.3552   H         1 RES1   0.0000
   119 H69      -1.6523   -4.3612    4.0396   H         1 RES1   0.0000
   120 H70      -3.6124   -6.0150    2.3972   H         1 RES1   0.0000
   121 H71      -2.5689   -6.6809    3.6376   H         1 RES1   0.0000
   122 H72      -1.3267   -5.2363    1.2694   H         1 RES1   0.0000
   123 H73      -1.9307   -6.8827    1.1209   H         1 RES1   0.0000
   124 H74       0.3560   -7.1251    1.5811   H         1 RES1   0.0000
   125 H75      -0.4940   -7.5542    3.0580   H         1 RES1   0.0000
   126 H76       0.0695   -5.3452    4.0364   H         1 RES1   0.0000
   127 H77       0.8016   -4.8499    2.5012   H         1 RES1   0.0000
   128 H78       2.4920   -5.4947    4.1698   H         1 RES1   0.0000
   129 H79       2.5404   -6.5591    2.7608   H         1 RES1   0.0000
   130 H80       2.8857   -7.8576    4.6937   H         1 RES1   0.0000
   131 H81       1.3159   -8.3059    4.0556   H         1 RES1   0.0000
   132 H82       1.6011   -6.2887    6.3149   H         1 RES1   0.0000
   133 H83       1.6481   -8.0169    6.6136   H         1 RES1   0.0000
   134 H84      -0.5854   -8.2957    5.6111   H         1 RES1   0.0000
   135 H85      -0.7290   -6.5523    5.3987   H         1 RES1   0.0000
   136 H86      -0.3851   -7.9809    8.0664   H         1 RES1   0.0000
   137 H87      -1.8619   -7.2380    7.4617   H         1 RES1   0.0000
   138 H88      -0.4702   -6.2355    7.8693   H         1 RES1   0.0000
   139 C45       2.1456    2.5378    4.4157   C.3       1 RES1   0.0000
   140 C46       0.7935    3.2380    4.4798   C.3       1 RES1   0.0000
   141 C47       0.8977    4.7450    4.2538   C.3       1 RES1   0.0000
   142 C48       1.4691    5.1322    2.8900   C.3       1 RES1   0.0000
   143 C49       1.5583    6.6547    2.7129   C.3       1 RES1   0.0000
   144 C50       0.3860    7.3170    1.9853   C.3       1 RES1   0.0000
   145 C51      -1.0003    7.1287    2.6146   C.3       1 RES1   0.0000
   146 C52      -1.7511    5.9203    2.0565   C.3       1 RES1   0.0000
   147 C53      -3.2237    5.8974    2.4668   C.3       1 RES1   0.0000
   148 C54      -4.0549    4.9928    1.5575   C.3       1 RES1   0.0000
   149 C55      -3.6800    3.5205    1.7095   C.3       1 RES1   0.0000
   150 C56      -4.2239    2.6310    0.5946   C.3       1 RES1   0.0000
   151 N3       -3.4508    2.6619   -0.6502   N.am      1 RES1   0.0000
   152 C57      -3.9017    3.4697   -1.7832   C.3       1 RES1   0.0000
   153 C58      -2.9727    4.6571   -2.0924   C.3       1 RES1   0.0000
   154 C59      -3.1214    5.1073   -3.5486   C.3       1 RES1   0.0000
   155 C60      -2.5025    6.4827   -3.8071   C.3       1 RES1   0.0000
   156 C61      -1.0045    6.5945   -3.5236   C.3       1 RES1   0.0000
   157 C62      -0.1357    5.7334   -4.4382   C.3       1 RES1   0.0000
   158 C63       1.3360    6.1487   -4.4061   C.3       1 RES1   0.0000
   159 C64       1.9711    6.0744   -3.0214   C.3       1 RES1   0.0000
   160 C65      -2.3722    1.9006   -0.7275   C.2       1 RES1   0.0000
   161 O4       -1.8125    1.3708    0.2661   O.2       1 RES1   0.0000
   162 C66      -1.8627    1.5338   -2.1277   C.3       1 RES1   0.0000
   163 O5       -0.7859    0.5965   -1.9989   O.3       1 RES1   0.0000
   164 C67      -0.6693   -0.2911   -3.1155   C.3       1 RES1   0.0000
   165 C68      -0.8859   -1.7419   -2.7088   C.2       1 RES1   0.0000
   166 O6       -0.9312   -2.0253   -1.4890   O.2       1 RES1   0.0000
   167 N4       -1.0572   -2.6209   -3.6882   N.am      1 RES1   0.0000
   168 C69      -0.5231   -2.3951   -5.0425   C.3       1 RES1   0.0000
   169 C70      -1.3995   -1.7575   -6.1380   C.3       1 RES1   0.0000
   170 C71      -1.6953   -0.2607   -6.0212   C.3       1 RES1   0.0000
   171 C72      -2.2780    0.3695   -7.2872   C.3       1 RES1   0.0000
   172 C73      -1.2695    0.7516   -8.3682   C.3       1 RES1   0.0000
   173 C74      -0.3281    1.9065   -7.9927   C.3       1 RES1   0.0000
   174 C75       1.0477    1.4597   -7.5021   C.3       1 RES1   0.0000
   175 C76       1.9682    2.6458   -7.2478   C.3       1 RES1   0.0000
   176 C77      -1.5373   -3.9587   -3.3199   C.3       1 RES1   0.0000
   177 C78      -3.0150   -3.9274   -2.9274   C.3       1 RES1   0.0000
   178 C79      -3.8854   -3.4197   -4.0730   C.3       1 RES1   0.0000
   179 C80      -5.3829   -3.4079   -3.7677   C.3       1 RES1   0.0000
   180 C81      -5.8584   -2.2859   -2.8354   C.3       1 RES1   0.0000
   181 C82      -6.2832   -1.0043   -3.5578   C.3       1 RES1   0.0000
   182 C83      -5.1273   -0.1958   -4.1419   C.3       1 RES1   0.0000
   183 C84      -5.5647    1.1608   -4.7023   C.3       1 RES1   0.0000
   184 C85      -6.6063    1.1174   -5.8274   C.3       1 RES1   0.0000
   185 C86      -6.1103    0.5965   -7.1800   C.3       1 RES1   0.0000
   186 C87      -6.0879   -0.9232   -7.3283   C.3       1 RES1   0.0000
   187 C88      -5.7427   -1.3411   -8.7518   C.3       1 RES1   0.0000
   188 H89       2.0814    1.5176    4.7868   H         1 RES1   0.0000
   189 H90       2.8647    3.0705    5.0321   H         1 RES1   0.0000
   190 H91       2.5271    2.5059    3.3977   H         1 RES1   0.0000
   191 H92       0.3526    3.0732    5.4648   H         1 RES1   0.0000
   192 H93       0.1104    2.8083    3.7352   H         1 RES1   0.0000
   193 H94       1.5475    5.1668    5.0213   H         1 RES1   0.0000
   194 H95      -0.0918    5.1836    4.3814   H         1 RES1   0.0000
   195 H96       0.8659    4.7024    2.0813   H         1 RES1   0.0000
   196 H97       2.4754    4.7173    2.8081   H         1 RES1   0.0000
   197 H98       2.4618    6.8904    2.1455   H         1 RES1   0.0000
   198 H99       1.6711    7.1184    3.6936   H         1 RES1   0.0000
   199 H100      0.3609    6.9674    0.9486   H         1 RES1   0.0000
   200 H101      0.6032    8.3859    1.9553   H         1 RES1   0.0000
   201 H102     -1.5978    8.0157    2.3981   H         1 RES1   0.0000
   202 H103     -0.9093    7.0632    3.6990   H         1 RES1   0.0000
   203 H104     -1.2683    4.9945    2.3734   H         1 RES1   0.0000
   204 H105     -1.6986    5.9700    0.9648   H         1 RES1   0.0000
   205 H106     -3.6225    6.9105    2.4016   H         1 RES1   0.0000
   206 H107     -3.3250    5.5706    3.5031   H         1 RES1   0.0000
   207 H108     -3.9128    5.3120    0.5247   H         1 RES1   0.0000
   208 H109     -5.1118    5.1122    1.7983   H         1 RES1   0.0000
   209 H110     -4.0862    3.1536    2.6529   H         1 RES1   0.0000
   210 H111     -2.5979    3.3954    1.7403   H         1 RES1   0.0000
   211 H112     -5.2565    2.8944    0.3654   H         1 RES1   0.0000
   212 H113     -4.2020    1.5910    0.9332   H         1 RES1   0.0000
   213 H114     -4.8983    3.8479   -1.5613   H         1 RES1   0.0000
   214 H115     -4.0000    2.8465   -2.6773   H         1 RES1   0.0000
   215 H116     -1.9360    4.3807   -1.8928   H         1 RES1   0.0000
   216 H117     -3.2172    5.4966   -1.4401   H         1 RES1   0.0000
   217 H118     -4.1834    5.1680   -3.7945   H         1 RES1   0.0000
   218 H119     -2.6711    4.3683   -4.2155   H         1 RES1   0.0000
   219 H120     -3.0259    7.2173   -3.1933   H         1 RES1   0.0000
   220 H121     -2.6847    6.7464   -4.8497   H         1 RES1   0.0000
   221 H122     -0.8066    6.3476   -2.4793   H         1 RES1   0.0000
   222 H123     -0.7227    7.6382   -3.6684   H         1 RES1   0.0000
   223 H124     -0.4958    5.8343   -5.4639   H         1 RES1   0.0000
   224 H125     -0.2230    4.6794   -4.1583   H         1 RES1   0.0000
   225 H126      1.4197    7.1712   -4.7739   H         1 RES1   0.0000
   226 H127      1.8947    5.5133   -5.0969   H         1 RES1   0.0000
   227 H128      1.5354    6.8135   -2.3550   H         1 RES1   0.0000
   228 H129      3.0374    6.2742   -3.0920   H         1 RES1   0.0000
   229 H130      1.8356    5.0903   -2.5751   H         1 RES1   0.0000
   230 H131     -1.5270    2.4207   -2.6850   H         1 RES1   0.0000
   231 H132     -2.7079    1.0603   -2.6562   H         1 RES1   0.0000
   232 H133      0.3291   -0.1981   -3.5541   H         1 RES1   0.0000
   233 H134     -1.4025   -0.0120   -3.8675   H         1 RES1   0.0000
   234 H135     -0.2305   -3.3835   -5.4083   H         1 RES1   0.0000
   235 H136      0.4014   -1.8192   -4.9458   H         1 RES1   0.0000
   236 H137     -2.3303   -2.3163   -6.2258   H         1 RES1   0.0000
   237 H138     -0.8355   -1.9192   -7.0577   H         1 RES1   0.0000
   238 H139     -0.7808    0.2797   -5.7764   H         1 RES1   0.0000
   239 H140     -2.4494   -0.1104   -5.2427   H         1 RES1   0.0000
   240 H141     -2.7949    1.2813   -6.9814   H         1 RES1   0.0000
   241 H142     -3.0242   -0.3049   -7.7067   H         1 RES1   0.0000
   242 H143     -1.8530    1.0505   -9.2401   H         1 RES1   0.0000
   243 H144     -0.6836   -0.1195   -8.6603   H         1 RES1   0.0000
   244 H145     -0.8059    2.5464   -7.2462   H         1 RES1   0.0000
   245 H146     -0.1705    2.5205   -8.8799   H         1 RES1   0.0000
   246 H147      1.4916    0.8175   -8.2632   H         1 RES1   0.0000
   247 H148      0.9669    0.8707   -6.5837   H         1 RES1   0.0000
   248 H149      2.1038    3.2245   -8.1568   H         1 RES1   0.0000
   249 H150      2.9454    2.3039   -6.9162   H         1 RES1   0.0000
   250 H151      1.5551    3.3068   -6.4877   H         1 RES1   0.0000
   251 H152     -0.9408   -4.3177   -2.4773   H         1 RES1   0.0000
   252 H153     -1.3894   -4.6301   -4.1640   H         1 RES1   0.0000
   253 H154     -3.1191   -3.2979   -2.0432   H         1 RES1   0.0000
   254 H155     -3.3099   -4.9406   -2.6550   H         1 RES1   0.0000
   255 H156     -3.7221   -4.0761   -4.9290   H         1 RES1   0.0000
   256 H157     -3.5643   -2.4145   -4.3415   H         1 RES1   0.0000
   257 H158     -5.6518   -4.3713   -3.3348   H         1 RES1   0.0000
   258 H159     -5.9199   -3.3195   -4.7125   H         1 RES1   0.0000
   259 H160     -5.0829   -2.0531   -2.0945   H         1 RES1   0.0000
   260 H161     -6.7262   -2.6465   -2.2804   H         1 RES1   0.0000
   261 H162     -6.8333   -0.3686   -2.8579   H         1 RES1   0.0000
   262 H163     -6.9712   -1.2794   -4.3561   H         1 RES1   0.0000
   263 H164     -4.6443   -0.7590   -4.9381   H         1 RES1   0.0000
   264 H165     -4.3849   -0.0216   -3.3430   H         1 RES1   0.0000
   265 H166     -4.6787    1.6869   -5.0760   H         1 RES1   0.0000
   266 H167     -5.9807    1.7565   -3.8824   H         1 RES1   0.0000
   267 H168     -6.9453    2.1467   -5.9701   H         1 RES1   0.0000
   268 H169     -7.4728    0.5395   -5.5061   H         1 RES1   0.0000
   269 H170     -5.1206    1.0073   -7.3847   H         1 RES1   0.0000
   270 H171     -6.7821    0.9878   -7.9451   H         1 RES1   0.0000
   271 H172     -7.0732   -1.3131   -7.0700   H         1 RES1   0.0000
   272 H173     -5.3613   -1.3742   -6.6504   H         1 RES1   0.0000
   273 H174     -6.4780   -0.9612   -9.4551   H         1 RES1   0.0000
   274 H175     -5.7195   -2.4246   -8.8358   H         1 RES1   0.0000
   275 H176     -4.7686   -0.9567   -9.0481   H         1 RES1   0.0000
   276 O7       -3.0808   -1.0215   -0.3199   O.3       1 RES1   0.0000
   277 H177     -3.2445   -1.8075    0.2255   H         1 RES1   0.0000
   278 H178     -3.7065   -1.0794   -1.0640   H         1 RES1   0.0000
   279 O8        1.0445    1.9414    0.3331   O.3       1 RES1   0.0000
   280 H179      2.0115    2.0123    0.2714   H         1 RES1   0.0000
   281 H180      0.7847    2.6910    0.8951   H         1 RES1   0.0000
@<TRIPOS>BOND
     1     1    24    1
     2     1    26    1
     3     1    29    1
     4     1   161    1
     5     1   163    1
     6     1   166    1
     7     1   276    1
     8     1   279    1
     9     2     3    1
    10     2    51    1
    11     2    52    1
    12     2    53    1
    13     3     4    1
    14     3    54    1
    15     3    55    1
    16     4     5    1
    17     4    56    1
    18     4    57    1
    19     5     6    1
    20     5    58    1
    21     5    59    1
    22     6     7    1
    23     6    60    1
    24     6    61    1
    25     7     8    1
    26     7    62    1
    27     7    63    1
    28     8     9    1
    29     8    64    1
    30     8    65    1
    31     9    10    1
    32     9    66    1
    33     9    67    1
    34    10    11    1
    35    10    68    1
    36    10    69    1
    37    11    12    1
    38    11    70    1
    39    11    71    1
    40    12    13    1
    41    12    72    1
    42    12    73    1
    43    13    14    1
    44    13    74    1
    45    13    75    1
    46    14    15    1
    47    14    23    1
    48    15    16    1
    49    15    76    1
    50    15    77    1
    51    16    17    1
    52    16    78    1
    53    16    79    1
    54    17    18    1
    55    17    80    1
    56    17    81    1
    57    18    19    1
    58    18    82    1
    59    18    83    1
    60    19    20    1
    61    19    84    1
    62    19    85    1
    63    20    21    1
    64    20    86    1
    65    20    87    1
    66    21    22    1
    67    21    88    1
    68    21    89    1
    69    22    90    1
    70    22    91    1
    71    22    92    1
    72    23    24    2
    73    23    25    1
    74    25    26    1
    75    25    93    1
    76    25    94    1
    77    26    27    1
    78    27    28    1
    79    27    95    1
    80    27    96    1
    81    28    29    2
    82    28    30    1
    83    30    31    1
    84    30    39    1
    85    31    32    1
    86    31    97    1
    87    31    98    1
    88    32    33    1
    89    32    99    1
    90    32   100    1
    91    33    34    1
    92    33   101    1
    93    33   102    1
    94    34    35    1
    95    34   103    1
    96    34   104    1
    97    35    36    1
    98    35   105    1
    99    35   106    1
   100    36    37    1
   101    36   107    1
   102    36   108    1
   103    37    38    1
   104    37   109    1
   105    37   110    1
   106    38   111    1
   107    38   112    1
   108    38   113    1
   109    39    40    1
   110    39   114    1
   111    39   115    1
   112    40    41    1
   113    40   116    1
   114    40   117    1
   115    41    42    1
   116    41   118    1
   117    41   119    1
   118    42    43    1
   119    42   120    1
   120    42   121    1
   121    43    44    1
   122    43   122    1
   123    43   123    1
   124    44    45    1
   125    44   124    1
   126    44   125    1
   127    45    46    1
   128    45   126    1
   129    45   127    1
   130    46    47    1
   131    46   128    1
   132    46   129    1
   133    47    48    1
   134    47   130    1
   135    47   131    1
   136    48    49    1
   137    48   132    1
   138    48   133    1
   139    49    50    1
   140    49   134    1
   141    49   135    1
   142    50   136    1
   143    50   137    1
   144    50   138    1
   145   139   140    1
   146   139   188    1
   147   139   189    1
   148   139   190    1
   149   140   141    1
   150   140   191    1
   151   140   192    1
   152   141   142    1
   153   141   193    1
   154   141   194    1
   155   142   143    1
   156   142   195    1
   157   142   196    1
   158   143   144    1
   159   143   197    1
   160   143   198    1
   161   144   145    1
   162   144   199    1
   163   144   200    1
   164   145   146    1
   165   145   201    1
   166   145   202    1
   167   146   147    1
   168   146   203    1
   169   146   204    1
   170   147   148    1
   171   147   205    1
   172   147   206    1
   173   148   149    1
   174   148   207    1
   175   148   208    1
   176   149   150    1
   177   149   209    1
   178   149   210    1
   179   150   151    1
   180   150   211    1
   181   150   212    1
   182   151   152    1
   183   151   160    1
   184   152   153    1
   185   152   213    1
   186   152   214    1
   187   153   154    1
   188   153   215    1
   189   153   216    1
   190   154   155    1
   191   154   217    1
   192   154   218    1
   193   155   156    1
   194   155   219    1
   195   155   220    1
   196   156   157    1
   197   156   221    1
   198   156   222    1
   199   157   158    1
   200   157   223    1
   201   157   224    1
   202   158   159    1
   203   158   225    1
   204   158   226    1
   205   159   227    1
   206   159   228    1
   207   159   229    1
   208   160   161    2
   209   160   162    1
   210   162   163    1
   211   162   230    1
   212   162   231    1
   213   163   164    1
   214   164   165    1
   215   164   232    1
   216   164   233    1
   217   165   166    2
   218   165   167    1
   219   167   168    1
   220   167   176    1
   221   168   169    1
   222   168   234    1
   223   168   235    1
   224   169   170    1
   225   169   236    1
   226   169   237    1
   227   170   171    1
   228   170   238    1
   229   170   239    1
   230   171   172    1
   231   171   240    1
   232   171   241    1
   233   172   173    1
   234   172   242    1
   235   172   243    1
   236   173   174    1
   237   173   244    1
   238   173   245    1
   239   174   175    1
   240   174   246    1
   241   174   247    1
   242   175   248    1
   243   175   249    1
   244   175   250    1
   245   176   177    1
   246   176   251    1
   247   176   252    1
   248   177   178    1
   249   177   253    1
   250   177   254    1
   251   178   179    1
   252   178   255    1
   253   178   256    1
   254   179   180    1
   255   179   257    1
   256   179   258    1
   257   180   181    1
   258   180   259    1
   259   180   260    1
   260   181   182    1
   261   181   261    1
   262   181   262    1
   263   182   183    1
   264   182   263    1
   265   182   264    1
   266   183   184    1
   267   183   265    1
   268   183   266    1
   269   184   185    1
   270   184   267    1
   271   184   268    1
   272   185   186    1
   273   185   269    1
   274   185   270    1
   275   186   187    1
   276   186   271    1
   277   186   272    1
   278   187   273    1
   279   187   274    1
   280   187   275    1
   281   276   277    1
   282   276   278    1
   283   279   280    1
   284   279   281    1
@<TRIPOS>SUBSTRUCTURE
     1 RES1      281 GROUP             0 ****  ****    0  
