@<TRIPOS>MOLECULE
ICIGOT_geomtry_0_nunpairedes_0_charge_3 Charge: 3 Unpaired_Electrons: 6 XTB_Unpaired_Electrons: 0 XTB_Charge: 3
   191   194     1     0     0
SMALL
NoCharges
****
Generated from Architector

@<TRIPOS>ATOM
     1 Tb1      -0.0870   -0.1099    0.1516   Tb        1 RES1   0.0000
     2 C1        3.7759    2.9386    1.1593   C.3       1 RES1   0.0000
     3 C2        2.6543    3.4778    0.2810   C.3       1 RES1   0.0000
     4 C3        3.2037    4.5662   -0.6428   C.3       1 RES1   0.0000
     5 C4        2.1833    5.2474   -1.5551   C.3       1 RES1   0.0000
     6 C5        1.5960    4.3049   -2.6027   C.3       1 RES1   0.0000
     7 C6        0.6638    4.9881   -3.6069   C.3       1 RES1   0.0000
     8 C7       -0.6510    5.5479   -3.0545   C.3       1 RES1   0.0000
     9 C8       -1.7012    4.5143   -2.6133   C.3       1 RES1   0.0000
    10 N1       -1.3187    3.7914   -1.4118   N.am      1 RES1   0.0000
    11 C9       -1.0722    4.5945   -0.2243   C.3       1 RES1   0.0000
    12 C10      -1.1319    2.4939   -1.2962   C.2       1 RES1   0.0000
    13 O1       -0.6335    2.0194   -0.2410   O.2       1 RES1   0.0000
    14 C11      -1.5682    1.5111   -2.4074   C.3       1 RES1   0.0000
    15 O2       -1.3918    0.2182   -1.8346   O.3       1 RES1   0.0000
    16 C12      -1.5531   -0.9466   -2.6453   C.3       1 RES1   0.0000
    17 C13      -1.5590   -2.1025   -1.6049   C.2       1 RES1   0.0000
    18 O3       -1.2837   -1.7680   -0.4307   O.2       1 RES1   0.0000
    19 N2       -1.9225   -3.3301   -1.9016   N.am      1 RES1   0.0000
    20 C14      -2.3914   -4.2527   -0.8417   C.3       1 RES1   0.0000
    21 C15      -1.6502   -4.4229    0.4906   C.3       1 RES1   0.0000
    22 C16      -0.3996   -5.2977    0.4427   C.3       1 RES1   0.0000
    23 C17       0.1174   -5.6551    1.8389   C.3       1 RES1   0.0000
    24 C18       0.8001   -4.4885    2.5537   C.3       1 RES1   0.0000
    25 C19       1.3865   -4.8820    3.9155   C.3       1 RES1   0.0000
    26 C20       0.4632   -4.6756    5.1168   C.3       1 RES1   0.0000
    27 C21      -0.8425   -5.4577    5.0665   C.3       1 RES1   0.0000
    28 C22      -2.2643   -3.7467   -3.2584   C.3       1 RES1   0.0000
    29 C23      -1.5241   -4.9926   -3.7654   C.3       1 RES1   0.0000
    30 C24      -0.0281   -4.8049   -4.0395   C.3       1 RES1   0.0000
    31 C25       0.8480   -4.8301   -2.7883   C.3       1 RES1   0.0000
    32 C26       2.3356   -4.8980   -3.1219   C.3       1 RES1   0.0000
    33 C27       3.2024   -5.0617   -1.8771   C.3       1 RES1   0.0000
    34 C28       4.6849   -5.1322   -2.2317   C.3       1 RES1   0.0000
    35 C29       5.5823   -5.1996   -1.0015   C.3       1 RES1   0.0000
    36 H1        3.3868    2.3902    2.0102   H         1 RES1   0.0000
    37 H2        4.3875    3.7545    1.5314   H         1 RES1   0.0000
    38 H3        4.4159    2.2802    0.5837   H         1 RES1   0.0000
    39 H4        1.8762    3.9064    0.9144   H         1 RES1   0.0000
    40 H5        2.2046    2.6459   -0.2769   H         1 RES1   0.0000
    41 H6        4.0054    4.1484   -1.2513   H         1 RES1   0.0000
    42 H7        3.6544    5.3314   -0.0074   H         1 RES1   0.0000
    43 H8        2.6849    6.0675   -2.0689   H         1 RES1   0.0000
    44 H9        1.4003    5.6889   -0.9421   H         1 RES1   0.0000
    45 H10       1.0743    3.4875   -2.1011   H         1 RES1   0.0000
    46 H11       2.4311    3.8828   -3.1642   H         1 RES1   0.0000
    47 H12       0.4440    4.2986   -4.4257   H         1 RES1   0.0000
    48 H13       1.2088    5.8274   -4.0409   H         1 RES1   0.0000
    49 H14      -1.1178    6.1337   -3.8494   H         1 RES1   0.0000
    50 H15      -0.4391    6.2368   -2.2384   H         1 RES1   0.0000
    51 H16      -1.8760    3.8101   -3.4260   H         1 RES1   0.0000
    52 H17      -2.6373    5.0394   -2.3915   H         1 RES1   0.0000
    53 H18      -1.3015    5.6324   -0.4351   H         1 RES1   0.0000
    54 H19      -0.0366    4.5054    0.0994   H         1 RES1   0.0000
    55 H20      -1.7092    4.2408    0.5830   H         1 RES1   0.0000
    56 H21      -0.9767    1.6317   -3.3233   H         1 RES1   0.0000
    57 H22      -2.6254    1.6703   -2.6573   H         1 RES1   0.0000
    58 H23      -0.7401   -1.0346   -3.3782   H         1 RES1   0.0000
    59 H24      -2.5131   -0.9162   -3.1707   H         1 RES1   0.0000
    60 H25      -2.4589   -5.2380   -1.2968   H         1 RES1   0.0000
    61 H26      -3.4070   -3.9096   -0.6144   H         1 RES1   0.0000
    62 H27      -2.3681   -4.9298    1.1414   H         1 RES1   0.0000
    63 H28      -1.4092   -3.4602    0.9354   H         1 RES1   0.0000
    64 H29       0.3957   -4.7908   -0.1000   H         1 RES1   0.0000
    65 H30      -0.6421   -6.2246   -0.0823   H         1 RES1   0.0000
    66 H31       0.8523   -6.4546    1.7356   H         1 RES1   0.0000
    67 H32      -0.7027   -6.0512    2.4332   H         1 RES1   0.0000
    68 H33       0.1105   -3.6504    2.6745   H         1 RES1   0.0000
    69 H34       1.6143   -4.1511    1.9059   H         1 RES1   0.0000
    70 H35       2.2896   -4.2958    4.1018   H         1 RES1   0.0000
    71 H36       1.6895   -5.9273    3.8785   H         1 RES1   0.0000
    72 H37       0.2434   -3.6085    5.2249   H         1 RES1   0.0000
    73 H38       1.0058   -4.9783    6.0129   H         1 RES1   0.0000
    74 H39      -1.4874   -5.1021    4.2655   H         1 RES1   0.0000
    75 H40      -1.3820   -5.3557    6.0060   H         1 RES1   0.0000
    76 H41      -0.6481   -6.5160    4.9147   H         1 RES1   0.0000
    77 H42      -2.0566   -2.9329   -3.9534   H         1 RES1   0.0000
    78 H43      -3.3419   -3.9456   -3.2699   H         1 RES1   0.0000
    79 H44      -2.0160   -5.2798   -4.7002   H         1 RES1   0.0000
    80 H45      -1.6515   -5.8203   -3.0679   H         1 RES1   0.0000
    81 H46       0.1401   -3.8851   -4.6043   H         1 RES1   0.0000
    82 H47       0.2838   -5.6337   -4.6758   H         1 RES1   0.0000
    83 H48       0.5906   -5.7143   -2.2068   H         1 RES1   0.0000
    84 H49       0.6559   -3.9526   -2.1637   H         1 RES1   0.0000
    85 H50       2.6379   -4.0001   -3.6651   H         1 RES1   0.0000
    86 H51       2.5132   -5.7444   -3.7832   H         1 RES1   0.0000
    87 H52       2.9194   -5.9768   -1.3588   H         1 RES1   0.0000
    88 H53       3.0220   -4.2354   -1.1843   H         1 RES1   0.0000
    89 H54       4.9594   -4.2679   -2.8416   H         1 RES1   0.0000
    90 H55       4.8598   -6.0178   -2.8403   H         1 RES1   0.0000
    91 H56       5.4353   -4.3333   -0.3543   H         1 RES1   0.0000
    92 H57       6.6287   -5.2369   -1.2966   H         1 RES1   0.0000
    93 H58       5.3690   -6.0923   -0.4188   H         1 RES1   0.0000
    94 C30       1.8585    1.5926   -5.6644   C.3       1 RES1   0.0000
    95 C31       2.8860    1.1877   -4.6165   C.3       1 RES1   0.0000
    96 C32       4.3002    1.6566   -4.9341   C.3       1 RES1   0.0000
    97 C33       5.3222    1.1986   -3.8873   C.3       1 RES1   0.0000
    98 C34       5.0445    1.7305   -2.4756   C.3       1 RES1   0.0000
    99 C35       6.1802    1.4953   -1.4720   C.3       1 RES1   0.0000
   100 C36       6.3488    0.0823   -0.8897   C.3       1 RES1   0.0000
   101 C37       5.3233   -0.4184    0.1503   C.3       1 RES1   0.0000
   102 N3        4.0209   -0.8333   -0.3766   N.am      1 RES1   0.0000
   103 C38       4.0842   -1.5639   -1.6326   C.3       1 RES1   0.0000
   104 C39       2.8652   -0.7977    0.2606   C.2       1 RES1   0.0000
   105 O4        1.7965   -1.1775   -0.2906   O.2       1 RES1   0.0000
   106 C40       2.6708   -0.2910    1.6932   C.3       1 RES1   0.0000
   107 O5        1.6097    0.6822    1.5917   O.3       1 RES1   0.0000
   108 C41       0.8917    0.9687    2.7937   C.3       1 RES1   0.0000
   109 C42      -0.1922   -0.1110    3.0203   C.2       1 RES1   0.0000
   110 O6       -0.2478   -1.0012    2.1399   O.2       1 RES1   0.0000
   111 N4       -1.0031   -0.1011    4.0628   N.am      1 RES1   0.0000
   112 C43      -1.7905   -1.3171    4.3491   C.3       1 RES1   0.0000
   113 C44      -2.8780   -1.7421    3.3546   C.3       1 RES1   0.0000
   114 C45      -4.1278   -0.8603    3.3560   C.3       1 RES1   0.0000
   115 C46      -5.2939   -1.4373    2.5435   C.3       1 RES1   0.0000
   116 C47      -5.1052   -1.3529    1.0283   C.3       1 RES1   0.0000
   117 C48      -6.3389   -1.7745    0.2203   C.3       1 RES1   0.0000
   118 C49      -6.4029   -3.2489   -0.1679   C.3       1 RES1   0.0000
   119 C50      -6.4562   -4.2120    1.0096   C.3       1 RES1   0.0000
   120 C51      -0.8895    0.8561    5.1650   C.3       1 RES1   0.0000
   121 C52      -2.1639    1.6064    5.5944   C.3       1 RES1   0.0000
   122 C53      -2.4861    2.8749    4.7965   C.3       1 RES1   0.0000
   123 C54      -3.1659    2.5973    3.4611   C.3       1 RES1   0.0000
   124 C55      -3.6041    3.8723    2.7494   C.3       1 RES1   0.0000
   125 C56      -4.2740    3.5723    1.4133   C.3       1 RES1   0.0000
   126 C57      -4.7099    4.8349    0.6771   C.3       1 RES1   0.0000
   127 C58      -5.3203    4.5156   -0.6826   C.3       1 RES1   0.0000
   128 H59       0.8596    1.2520   -5.3842   H         1 RES1   0.0000
   129 H60       2.0983    1.1623   -6.6315   H         1 RES1   0.0000
   130 H61       1.8396    2.6739   -5.7775   H         1 RES1   0.0000
   131 H62       2.8739    0.1004   -4.4953   H         1 RES1   0.0000
   132 H63       2.6160    1.6633   -3.6757   H         1 RES1   0.0000
   133 H64       4.2965    2.7463   -4.9904   H         1 RES1   0.0000
   134 H65       4.5941    1.2808   -5.9131   H         1 RES1   0.0000
   135 H66       6.2981    1.5674   -4.2013   H         1 RES1   0.0000
   136 H67       5.3781    0.1091   -3.9014   H         1 RES1   0.0000
   137 H68       4.1148    1.3334   -2.0592   H         1 RES1   0.0000
   138 H69       4.9233    2.8101   -2.5793   H         1 RES1   0.0000
   139 H70       6.0842    2.2071   -0.6485   H         1 RES1   0.0000
   140 H71       7.1159    1.7441   -1.9741   H         1 RES1   0.0000
   141 H72       7.2977    0.0934   -0.3467   H         1 RES1   0.0000
   142 H73       6.4623   -0.6442   -1.6925   H         1 RES1   0.0000
   143 H74       5.1773    0.3547    0.9044   H         1 RES1   0.0000
   144 H75       5.7595   -1.2963    0.6422   H         1 RES1   0.0000
   145 H76       4.3801   -0.9101   -2.4487   H         1 RES1   0.0000
   146 H77       3.1249   -2.0300   -1.8434   H         1 RES1   0.0000
   147 H78       4.8294   -2.3491   -1.5273   H         1 RES1   0.0000
   148 H79       3.5610    0.1539    2.1393   H         1 RES1   0.0000
   149 H80       2.3497   -1.1489    2.3048   H         1 RES1   0.0000
   150 H81       0.3979    1.9301    2.6003   H         1 RES1   0.0000
   151 H82       1.5864    1.0506    3.6379   H         1 RES1   0.0000
   152 H83      -2.2484   -1.1604    5.3229   H         1 RES1   0.0000
   153 H84      -1.0798   -2.1478    4.4273   H         1 RES1   0.0000
   154 H85      -3.1841   -2.7430    3.6683   H         1 RES1   0.0000
   155 H86      -2.4462   -1.8271    2.3551   H         1 RES1   0.0000
   156 H87      -3.8864    0.1322    2.9831   H         1 RES1   0.0000
   157 H88      -4.4714   -0.7424    4.3862   H         1 RES1   0.0000
   158 H89      -6.1917   -0.8690    2.7916   H         1 RES1   0.0000
   159 H90      -5.4718   -2.4628    2.8555   H         1 RES1   0.0000
   160 H91      -4.2474   -1.9535    0.7081   H         1 RES1   0.0000
   161 H92      -4.9374   -0.2993    0.7889   H         1 RES1   0.0000
   162 H93      -6.3623   -1.1954   -0.7059   H         1 RES1   0.0000
   163 H94      -7.2306   -1.5106    0.7861   H         1 RES1   0.0000
   164 H95      -5.5463   -3.4937   -0.8044   H         1 RES1   0.0000
   165 H96      -7.2996   -3.3938   -0.7704   H         1 RES1   0.0000
   166 H97      -5.5204   -4.2184    1.5647   H         1 RES1   0.0000
   167 H98      -6.6444   -5.2238    0.6590   H         1 RES1   0.0000
   168 H99      -7.2627   -3.9420    1.6864   H         1 RES1   0.0000
   169 H100     -0.1354    1.6053    4.9287   H         1 RES1   0.0000
   170 H101     -0.5344    0.2796    6.0242   H         1 RES1   0.0000
   171 H102     -1.9901    1.9076    6.6315   H         1 RES1   0.0000
   172 H103     -3.0274    0.9413    5.5847   H         1 RES1   0.0000
   173 H104     -1.5762    3.4600    4.6468   H         1 RES1   0.0000
   174 H105     -3.1609    3.4861    5.3978   H         1 RES1   0.0000
   175 H106     -4.0562    2.0002    3.6550   H         1 RES1   0.0000
   176 H107     -2.4928    2.0179    2.8175   H         1 RES1   0.0000
   177 H108     -2.7464    4.5294    2.6012   H         1 RES1   0.0000
   178 H109     -4.3063    4.4095    3.3844   H         1 RES1   0.0000
   179 H110     -5.1488    2.9445    1.5833   H         1 RES1   0.0000
   180 H111     -3.5810    3.0057    0.7752   H         1 RES1   0.0000
   181 H112     -3.8563    5.5033    0.5510   H         1 RES1   0.0000
   182 H113     -5.4451    5.3666    1.2781   H         1 RES1   0.0000
   183 H114     -4.6160    3.9622   -1.3071   H         1 RES1   0.0000
   184 H115     -5.5970    5.4307   -1.2003   H         1 RES1   0.0000
   185 H116     -6.2196    3.9136   -0.5708   H         1 RES1   0.0000
   186 O7       -2.4574    0.3524    0.7777   O.3       1 RES1   0.0000
   187 H117     -3.0464   -0.4053    0.9619   H         1 RES1   0.0000
   188 H118     -3.0700    1.0822    0.5889   H         1 RES1   0.0000
   189 O8        1.2292    0.6890   -1.9796   O.3       1 RES1   0.0000
   190 H119      1.4559    1.5837   -2.2917   H         1 RES1   0.0000
   191 H120      1.7539    0.1033   -2.5501   H         1 RES1   0.0000
@<TRIPOS>BOND
     1     1    13    1
     2     1    15    1
     3     1    18    1
     4     1   105    1
     5     1   107    1
     6     1   110    1
     7     1   186    1
     8     1   189    1
     9     2     3    1
    10     2    36    1
    11     2    37    1
    12     2    38    1
    13     3     4    1
    14     3    39    1
    15     3    40    1
    16     4     5    1
    17     4    41    1
    18     4    42    1
    19     5     6    1
    20     5    43    1
    21     5    44    1
    22     6     7    1
    23     6    45    1
    24     6    46    1
    25     7     8    1
    26     7    47    1
    27     7    48    1
    28     8     9    1
    29     8    49    1
    30     8    50    1
    31     9    10    1
    32     9    51    1
    33     9    52    1
    34    10    11    1
    35    10    12    1
    36    11    53    1
    37    11    54    1
    38    11    55    1
    39    12    13    2
    40    12    14    1
    41    14    15    1
    42    14    56    1
    43    14    57    1
    44    15    16    1
    45    16    17    1
    46    16    58    1
    47    16    59    1
    48    17    18    2
    49    17    19    1
    50    19    20    1
    51    19    28    1
    52    20    21    1
    53    20    60    1
    54    20    61    1
    55    21    22    1
    56    21    62    1
    57    21    63    1
    58    22    23    1
    59    22    64    1
    60    22    65    1
    61    23    24    1
    62    23    66    1
    63    23    67    1
    64    24    25    1
    65    24    68    1
    66    24    69    1
    67    25    26    1
    68    25    70    1
    69    25    71    1
    70    26    27    1
    71    26    72    1
    72    26    73    1
    73    27    74    1
    74    27    75    1
    75    27    76    1
    76    28    29    1
    77    28    77    1
    78    28    78    1
    79    29    30    1
    80    29    79    1
    81    29    80    1
    82    30    31    1
    83    30    81    1
    84    30    82    1
    85    31    32    1
    86    31    83    1
    87    31    84    1
    88    32    33    1
    89    32    85    1
    90    32    86    1
    91    33    34    1
    92    33    87    1
    93    33    88    1
    94    34    35    1
    95    34    89    1
    96    34    90    1
    97    35    91    1
    98    35    92    1
    99    35    93    1
   100    94    95    1
   101    94   128    1
   102    94   129    1
   103    94   130    1
   104    95    96    1
   105    95   131    1
   106    95   132    1
   107    96    97    1
   108    96   133    1
   109    96   134    1
   110    97    98    1
   111    97   135    1
   112    97   136    1
   113    98    99    1
   114    98   137    1
   115    98   138    1
   116    99   100    1
   117    99   139    1
   118    99   140    1
   119   100   101    1
   120   100   141    1
   121   100   142    1
   122   101   102    1
   123   101   143    1
   124   101   144    1
   125   102   103    1
   126   102   104    1
   127   103   145    1
   128   103   146    1
   129   103   147    1
   130   104   105    2
   131   104   106    1
   132   106   107    1
   133   106   148    1
   134   106   149    1
   135   107   108    1
   136   108   109    1
   137   108   150    1
   138   108   151    1
   139   109   110    2
   140   109   111    1
   141   111   112    1
   142   111   120    1
   143   112   113    1
   144   112   152    1
   145   112   153    1
   146   113   114    1
   147   113   154    1
   148   113   155    1
   149   114   115    1
   150   114   156    1
   151   114   157    1
   152   115   116    1
   153   115   158    1
   154   115   159    1
   155   116   117    1
   156   116   160    1
   157   116   161    1
   158   117   118    1
   159   117   162    1
   160   117   163    1
   161   118   119    1
   162   118   164    1
   163   118   165    1
   164   119   166    1
   165   119   167    1
   166   119   168    1
   167   120   121    1
   168   120   169    1
   169   120   170    1
   170   121   122    1
   171   121   171    1
   172   121   172    1
   173   122   123    1
   174   122   173    1
   175   122   174    1
   176   123   124    1
   177   123   175    1
   178   123   176    1
   179   124   125    1
   180   124   177    1
   181   124   178    1
   182   125   126    1
   183   125   179    1
   184   125   180    1
   185   126   127    1
   186   126   181    1
   187   126   182    1
   188   127   183    1
   189   127   184    1
   190   127   185    1
   191   186   187    1
   192   186   188    1
   193   189   190    1
   194   189   191    1
@<TRIPOS>SUBSTRUCTURE
     1 RES1      191 GROUP             0 ****  ****    0  
