@<TRIPOS>MOLECULE
ICIGOT_geomtry_0_nunpairedes_0_charge_2 Charge: 2 Unpaired_Electrons: 6 XTB_Unpaired_Electrons: 0 XTB_Charge: 2
   111   115     1     0     0
SMALL
NoCharges
****
Generated from Architector

@<TRIPOS>ATOM
     1 Tb1       0.0186   -0.0090   -0.1018   Tb        1 RES1   0.0000
     2 C1       -1.0380    5.2976    3.1145   C.3       1 RES1   0.0000
     3 C2        0.3450    5.8481    2.7891   C.3       1 RES1   0.0000
     4 C3        1.0172    5.1281    1.6172   C.3       1 RES1   0.0000
     5 N1        1.1881    3.7058    1.8613   N.am      1 RES1   0.0000
     6 C4        2.2761    3.3014    2.7510   C.3       1 RES1   0.0000
     7 C5        1.7779    2.7421    4.0862   C.3       1 RES1   0.0000
     8 C6        2.9371    2.5027    5.0470   C.3       1 RES1   0.0000
     9 C7        0.4431    2.7688    1.3059   C.2       1 RES1   0.0000
    10 O1        0.6824    1.5499    1.4433   O.2       1 RES1   0.0000
    11 C8       -0.7419    3.1434    0.3954   C.3       1 RES1   0.0000
    12 O2       -1.4828    1.9668    0.0630   O.3       1 RES1   0.0000
    13 C9       -2.7402    1.7383    0.7002   C.3       1 RES1   0.0000
    14 C10      -2.7032    0.3839    1.4328   C.2       1 RES1   0.0000
    15 O3       -1.6056   -0.2145    1.5114   O.2       1 RES1   0.0000
    16 N2       -3.8234   -0.0834    1.9485   N.am      1 RES1   0.0000
    17 C11      -5.1386    0.5007    1.7346   C.3       1 RES1   0.0000
    18 C12      -5.9805   -0.3483    0.7736   C.3       1 RES1   0.0000
    19 C13      -5.3231   -0.5839   -0.5816   C.3       1 RES1   0.0000
    20 C14      -3.7852   -1.3143    2.7337   C.3       1 RES1   0.0000
    21 C15      -3.1056   -1.0934    4.0867   C.3       1 RES1   0.0000
    22 C16      -3.8149   -0.0616    4.9568   C.3       1 RES1   0.0000
    23 H1       -1.4467    5.8113    3.9796   H         1 RES1   0.0000
    24 H2       -1.7227    5.4582    2.2844   H         1 RES1   0.0000
    25 H3       -0.9895    4.2342    3.3451   H         1 RES1   0.0000
    26 H4        0.2663    6.9016    2.5255   H         1 RES1   0.0000
    27 H5        0.9821    5.7772    3.6689   H         1 RES1   0.0000
    28 H6        0.4350    5.2767    0.7076   H         1 RES1   0.0000
    29 H7        2.0185    5.5372    1.4517   H         1 RES1   0.0000
    30 H8        2.8712    2.5413    2.2369   H         1 RES1   0.0000
    31 H9        2.8995    4.1757    2.9347   H         1 RES1   0.0000
    32 H10       1.0820    3.4468    4.5418   H         1 RES1   0.0000
    33 H11       1.2460    1.8056    3.9115   H         1 RES1   0.0000
    34 H12       3.4631    3.4304    5.2576   H         1 RES1   0.0000
    35 H13       2.5685    2.1094    5.9909   H         1 RES1   0.0000
    36 H14       3.6500    1.7918    4.6356   H         1 RES1   0.0000
    37 H15      -1.3894    3.8986    0.8450   H         1 RES1   0.0000
    38 H16      -0.3402    3.5241   -0.5569   H         1 RES1   0.0000
    39 H17      -2.9833    2.5370    1.4081   H         1 RES1   0.0000
    40 H18      -3.5095    1.7120   -0.0833   H         1 RES1   0.0000
    41 H19      -5.6325    0.5642    2.7069   H         1 RES1   0.0000
    42 H20      -5.0508    1.5129    1.3453   H         1 RES1   0.0000
    43 H21      -6.2036   -1.3118    1.2315   H         1 RES1   0.0000
    44 H22      -6.9258    0.1747    0.6346   H         1 RES1   0.0000
    45 H23      -4.3567   -1.0772   -0.4836   H         1 RES1   0.0000
    46 H24      -5.9669   -1.2237   -1.1779   H         1 RES1   0.0000
    47 H25      -5.1879    0.3436   -1.1323   H         1 RES1   0.0000
    48 H26      -4.8108   -1.6411    2.8927   H         1 RES1   0.0000
    49 H27      -3.2506   -2.0810    2.1654   H         1 RES1   0.0000
    50 H28      -3.0893   -2.0456    4.6154   H         1 RES1   0.0000
    51 H29      -2.0729   -0.7846    3.9219   H         1 RES1   0.0000
    52 H30      -4.8452   -0.3503    5.1502   H         1 RES1   0.0000
    53 H31      -3.3079    0.0179    5.9152   H         1 RES1   0.0000
    54 H32      -3.8108    0.9220    4.4918   H         1 RES1   0.0000
    55 C17       3.9297   -4.6864    1.3972   C.3       1 RES1   0.0000
    56 C18       4.0263   -4.2285    2.8475   C.3       1 RES1   0.0000
    57 C19       2.8673   -3.3223    3.2706   C.3       1 RES1   0.0000
    58 N3        2.8176   -2.1119    2.4716   N.am      1 RES1   0.0000
    59 C20       3.8269   -1.0930    2.7524   C.3       1 RES1   0.0000
    60 C21       4.8367   -0.9078    1.6192   C.3       1 RES1   0.0000
    61 C22       5.9170    0.0882    2.0209   C.3       1 RES1   0.0000
    62 C23       1.9383   -1.8753    1.5143   C.2       1 RES1   0.0000
    63 O4        1.9303   -0.8127    0.8651   O.2       1 RES1   0.0000
    64 C24       0.8017   -2.8841    1.2665   C.3       1 RES1   0.0000
    65 O5       -0.0555   -2.4643    0.2053   O.3       1 RES1   0.0000
    66 C25       0.1226   -3.1011   -1.0666   C.3       1 RES1   0.0000
    67 C26       0.7305   -2.1309   -2.0967   C.2       1 RES1   0.0000
    68 O6        1.1367   -1.0271   -1.6799   O.2       1 RES1   0.0000
    69 N4        0.7390   -2.4478   -3.3778   N.am      1 RES1   0.0000
    70 C27       0.2814   -3.7166   -3.9199   C.3       1 RES1   0.0000
    71 C28      -1.0081   -3.5814   -4.7381   C.3       1 RES1   0.0000
    72 C29      -2.1889   -3.0283   -3.9504   C.3       1 RES1   0.0000
    73 C30       1.1988   -1.4478   -4.3467   C.3       1 RES1   0.0000
    74 C31       2.6815   -1.1002   -4.2092   C.3       1 RES1   0.0000
    75 C32       3.6052   -2.2899   -4.4344   C.3       1 RES1   0.0000
    76 H33       4.7935   -5.2966    1.1506   H         1 RES1   0.0000
    77 H34       3.0411   -5.2929    1.2344   H         1 RES1   0.0000
    78 H35       3.9132   -3.8377    0.7153   H         1 RES1   0.0000
    79 H36       4.0272   -5.0964    3.5045   H         1 RES1   0.0000
    80 H37       4.9653   -3.6977    2.9971   H         1 RES1   0.0000
    81 H38       1.9232   -3.8608    3.1934   H         1 RES1   0.0000
    82 H39       2.9976   -3.0042    4.3093   H         1 RES1   0.0000
    83 H40       3.3043   -0.1485    2.9302   H         1 RES1   0.0000
    84 H41       4.3505   -1.3872    3.6616   H         1 RES1   0.0000
    85 H42       5.3007   -1.8644    1.3795   H         1 RES1   0.0000
    86 H43       4.3209   -0.5472    0.7292   H         1 RES1   0.0000
    87 H44       6.4651   -0.2643    2.8913   H         1 RES1   0.0000
    88 H45       6.6270    0.2235    1.2095   H         1 RES1   0.0000
    89 H46       5.4814    1.0565    2.2570   H         1 RES1   0.0000
    90 H47       1.1737   -3.8955    1.0837   H         1 RES1   0.0000
    91 H48       0.1791   -2.8864    2.1715   H         1 RES1   0.0000
    92 H49       0.7328   -4.0038   -0.9683   H         1 RES1   0.0000
    93 H50      -0.8795   -3.3659   -1.4230   H         1 RES1   0.0000
    94 H51       1.0824   -4.1028   -4.5564   H         1 RES1   0.0000
    95 H52       0.1258   -4.4311   -3.1126   H         1 RES1   0.0000
    96 H53      -0.8363   -2.9499   -5.6095   H         1 RES1   0.0000
    97 H54      -1.2509   -4.5793   -5.1007   H         1 RES1   0.0000
    98 H55      -1.9889   -2.0293   -3.5709   H         1 RES1   0.0000
    99 H56      -3.0510   -2.9589   -4.6067   H         1 RES1   0.0000
   100 H57      -2.4565   -3.6791   -3.1207   H         1 RES1   0.0000
   101 H58       1.0186   -1.8502   -5.3413   H         1 RES1   0.0000
   102 H59       0.6026   -0.5379   -4.2198   H         1 RES1   0.0000
   103 H60       2.9093   -0.3312   -4.9477   H         1 RES1   0.0000
   104 H61       2.8641   -0.6749   -3.2233   H         1 RES1   0.0000
   105 H62       3.4612   -2.7174   -5.4239   H         1 RES1   0.0000
   106 H63       4.6393   -1.9637   -4.3580   H         1 RES1   0.0000
   107 H64       3.4413   -3.0682   -3.6915   H         1 RES1   0.0000
   108 N5       -1.4915    0.2873   -2.0399   N.3       1 RES1   0.0000
   109 O7       -2.3462    0.4852   -2.8396   O.2       1 RES1   0.0000
   110 O8       -1.6033   -0.6534   -1.2238   O.co2     1 RES1   0.0000
   111 O9       -0.4667    0.9828   -1.9856   O.co2     1 RES1   0.0000
@<TRIPOS>BOND
     1     1    10    1
     2     1    12    1
     3     1    15    1
     4     1    63    1
     5     1    65    1
     6     1    68    1
     7     1   110    1
     8     1   111    1
     9     2     3    1
    10     2    23    1
    11     2    24    1
    12     2    25    1
    13     3     4    1
    14     3    26    1
    15     3    27    1
    16     4     5    1
    17     4    28    1
    18     4    29    1
    19     5     6    1
    20     5     9    1
    21     6     7    1
    22     6    30    1
    23     6    31    1
    24     7     8    1
    25     7    32    1
    26     7    33    1
    27     8    34    1
    28     8    35    1
    29     8    36    1
    30     9    10    2
    31     9    11    1
    32    11    12    1
    33    11    37    1
    34    11    38    1
    35    12    13    1
    36    13    14    1
    37    13    39    1
    38    13    40    1
    39    14    15    2
    40    14    16    1
    41    16    17    1
    42    16    20    1
    43    17    18    1
    44    17    41    1
    45    17    42    1
    46    18    19    1
    47    18    43    1
    48    18    44    1
    49    19    45    1
    50    19    46    1
    51    19    47    1
    52    20    21    1
    53    20    48    1
    54    20    49    1
    55    21    22    1
    56    21    50    1
    57    21    51    1
    58    22    52    1
    59    22    53    1
    60    22    54    1
    61    55    56    1
    62    55    76    1
    63    55    77    1
    64    55    78    1
    65    56    57    1
    66    56    79    1
    67    56    80    1
    68    57    58    1
    69    57    81    1
    70    57    82    1
    71    58    59    1
    72    58    62    1
    73    59    60    1
    74    59    83    1
    75    59    84    1
    76    60    61    1
    77    60    85    1
    78    60    86    1
    79    61    87    1
    80    61    88    1
    81    61    89    1
    82    62    63    2
    83    62    64    1
    84    64    65    1
    85    64    90    1
    86    64    91    1
    87    65    66    1
    88    66    67    1
    89    66    92    1
    90    66    93    1
    91    67    68    2
    92    67    69    1
    93    69    70    1
    94    69    73    1
    95    70    71    1
    96    70    94    1
    97    70    95    1
    98    71    72    1
    99    71    96    1
   100    71    97    1
   101    72    98    1
   102    72    99    1
   103    72   100    1
   104    73    74    1
   105    73   101    1
   106    73   102    1
   107    74    75    1
   108    74   103    1
   109    74   104    1
   110    75   105    1
   111    75   106    1
   112    75   107    1
   113   108   109    2
   114   108   110    1
   115   108   111    1
@<TRIPOS>SUBSTRUCTURE
     1 RES1      111 GROUP             0 ****  ****    0  
