@<TRIPOS>MOLECULE
YEMSEP_geometry_0_nunpairedes_0_charge_2 Charge: 2 Unpaired_Electrons: 6 XTB_Unpaired_Electrons: 0 XTB_Charge: 2
   297   301     1     0     0
SMALL
NoCharges
****
Generated from Architector

@<TRIPOS>ATOM
     1 Tb1      -0.1612   -0.1154   -0.1505   Tb        1 RES1   0.0000
     2 C1        2.4490    4.4157    8.4683   C.3       1 RES1   0.0000
     3 C2        2.7388    3.4402    9.6028   C.3       1 RES1   0.0000
     4 C3        3.9559    2.5417    9.3697   C.3       1 RES1   0.0000
     5 C4        3.7945    1.5775    8.1873   C.3       1 RES1   0.0000
     6 C5        4.3753    2.1349    6.8834   C.3       1 RES1   0.0000
     7 C6        3.7588    1.4990    5.6387   C.3       1 RES1   0.0000
     8 C7        4.1670    0.0386    5.4619   C.3       1 RES1   0.0000
     9 C8        3.2671   -0.7327    4.4934   C.3       1 RES1   0.0000
    10 C9        3.7530   -0.8771    3.0501   C.3       1 RES1   0.0000
    11 C10       4.0375    0.4393    2.3357   C.3       1 RES1   0.0000
    12 N1        4.2525    0.2373    0.8984   N.am      1 RES1   0.0000
    13 C11       5.6181    0.2660    0.3918   C.3       1 RES1   0.0000
    14 C12       6.5796    1.2767    1.0353   C.3       1 RES1   0.0000
    15 C13       6.2455    2.7534    0.8008   C.3       1 RES1   0.0000
    16 C14       5.0648    3.2781    1.6134   C.3       1 RES1   0.0000
    17 C15       4.9219    4.8005    1.6038   C.3       1 RES1   0.0000
    18 C16       4.7963    5.4305    0.2193   C.3       1 RES1   0.0000
    19 C17       3.6538    4.8698   -0.6246   C.3       1 RES1   0.0000
    20 C18       3.5144    5.5727   -1.9801   C.3       1 RES1   0.0000
    21 C19       4.3652    4.9681   -3.1000   C.3       1 RES1   0.0000
    22 C20       5.8649    5.1894   -2.9495   C.3       1 RES1   0.0000
    23 C21       3.1579    0.0278    0.1753   C.2       1 RES1   0.0000
    24 O1        2.0342    0.2398    0.6822   O.2       1 RES1   0.0000
    25 C22       3.0405   -0.5720   -1.2518   C.3       1 RES1   0.0000
    26 C23       4.1954   -0.6160   -2.2405   C.3       1 RES1   0.0000
    27 O2        1.9087    0.1812   -1.7409   O.3       1 RES1   0.0000
    28 C24       1.3918   -0.0387   -3.0562   C.3       1 RES1   0.0000
    29 C25       0.6838    1.2887   -3.3712   C.3       1 RES1   0.0000
    30 C26       1.7043    2.4156   -3.4584   C.3       1 RES1   0.0000
    31 C27       0.3690   -1.1889   -2.9978   C.2       1 RES1   0.0000
    32 O3       -0.0167   -1.5265   -1.8598   O.2       1 RES1   0.0000
    33 N2       -0.1020   -1.7628   -4.0936   N.am      1 RES1   0.0000
    34 C28       0.4442   -1.5241   -5.4187   C.3       1 RES1   0.0000
    35 C29       1.7897   -2.2398   -5.6163   C.3       1 RES1   0.0000
    36 C30       1.6937   -3.6957   -6.1043   C.3       1 RES1   0.0000
    37 C31       2.2587   -4.7140   -5.1046   C.3       1 RES1   0.0000
    38 C32       1.2503   -5.2742   -4.1005   C.3       1 RES1   0.0000
    39 C33       0.1661   -6.1202   -4.7663   C.3       1 RES1   0.0000
    40 C34      -0.6082   -7.0004   -3.7851   C.3       1 RES1   0.0000
    41 C35      -1.5301   -6.2240   -2.8459   C.3       1 RES1   0.0000
    42 C36      -2.2812   -7.1487   -1.8879   C.3       1 RES1   0.0000
    43 C37      -3.0749   -6.3742   -0.8410   C.3       1 RES1   0.0000
    44 C38      -1.1283   -2.7917   -3.9421   C.3       1 RES1   0.0000
    45 C39      -2.5647   -2.2458   -3.8976   C.3       1 RES1   0.0000
    46 C40      -3.2542   -2.6568   -2.5960   C.3       1 RES1   0.0000
    47 C41      -4.7069   -2.1926   -2.5135   C.3       1 RES1   0.0000
    48 C42      -5.4749   -2.8719   -1.3780   C.3       1 RES1   0.0000
    49 C43      -4.8674   -2.6170   -0.0013   C.3       1 RES1   0.0000
    50 C44      -5.6953   -3.2353    1.1234   C.3       1 RES1   0.0000
    51 C45      -5.0291   -3.0947    2.4939   C.3       1 RES1   0.0000
    52 C46      -3.7488   -3.9205    2.6258   C.3       1 RES1   0.0000
    53 C47      -3.2242   -3.9204    4.0567   C.3       1 RES1   0.0000
    54 H1        1.6875    5.1300    8.7722   H         1 RES1   0.0000
    55 H2        2.0902    3.8946    7.5837   H         1 RES1   0.0000
    56 H3        3.3450    4.9731    8.2070   H         1 RES1   0.0000
    57 H4        1.8595    2.8131    9.7686   H         1 RES1   0.0000
    58 H5        2.9088    4.0116   10.5163   H         1 RES1   0.0000
    59 H6        4.1227    1.9631   10.2815   H         1 RES1   0.0000
    60 H7        4.8409    3.1616    9.2132   H         1 RES1   0.0000
    61 H8        2.7316    1.3601    8.0537   H         1 RES1   0.0000
    62 H9        4.2861    0.6347    8.4337   H         1 RES1   0.0000
    63 H10       5.4552    1.9844    6.8756   H         1 RES1   0.0000
    64 H11       4.1992    3.2090    6.8484   H         1 RES1   0.0000
    65 H12       4.0421    2.0813    4.7602   H         1 RES1   0.0000
    66 H13       2.6713    1.5567    5.7335   H         1 RES1   0.0000
    67 H14       4.1040   -0.4438    6.4378   H         1 RES1   0.0000
    68 H15       5.2030   -0.0216    5.1374   H         1 RES1   0.0000
    69 H16       2.2834   -0.2674    4.4879   H         1 RES1   0.0000
    70 H17       3.1455   -1.7414    4.8923   H         1 RES1   0.0000
    71 H18       2.9921   -1.4175    2.4798   H         1 RES1   0.0000
    72 H19       4.6665   -1.4612    3.0546   H         1 RES1   0.0000
    73 H20       4.9259    0.8977    2.7506   H         1 RES1   0.0000
    74 H21       3.1958    1.1153    2.4488   H         1 RES1   0.0000
    75 H22       5.5668    0.5253   -0.6608   H         1 RES1   0.0000
    76 H23       6.0609   -0.7317    0.5019   H         1 RES1   0.0000
    77 H24       6.7286    1.0816    2.0981   H         1 RES1   0.0000
    78 H25       7.5386    1.0814    0.5515   H         1 RES1   0.0000
    79 H26       6.0488    2.9005   -0.2613   H         1 RES1   0.0000
    80 H27       7.1284    3.3429    1.0550   H         1 RES1   0.0000
    81 H28       5.1936    2.9813    2.6556   H         1 RES1   0.0000
    82 H29       4.1404    2.8361    1.2427   H         1 RES1   0.0000
    83 H30       5.7866    5.2433    2.1010   H         1 RES1   0.0000
    84 H31       4.0395    5.0558    2.1975   H         1 RES1   0.0000
    85 H32       5.7382    5.3186   -0.3101   H         1 RES1   0.0000
    86 H33       4.6307    6.5001    0.3541   H         1 RES1   0.0000
    87 H34       2.7195    4.9846   -0.0682   H         1 RES1   0.0000
    88 H35       3.7969    3.8004   -0.7982   H         1 RES1   0.0000
    89 H36       3.7671    6.6285   -1.8692   H         1 RES1   0.0000
    90 H37       2.4677    5.5228   -2.2928   H         1 RES1   0.0000
    91 H38       4.0439    5.4159   -4.0417   H         1 RES1   0.0000
    92 H39       4.1683    3.8950   -3.1639   H         1 RES1   0.0000
    93 H40       6.0729    6.2218   -2.6852   H         1 RES1   0.0000
    94 H41       6.3746    4.9702   -3.8841   H         1 RES1   0.0000
    95 H42       6.2878    4.5439   -2.1847   H         1 RES1   0.0000
    96 H43       2.7184   -1.6125   -1.0518   H         1 RES1   0.0000
    97 H44       4.4742    0.3780   -2.5790   H         1 RES1   0.0000
    98 H45       3.9052   -1.2042   -3.1098   H         1 RES1   0.0000
    99 H46       5.0576   -1.1128   -1.8107   H         1 RES1   0.0000
   100 H47       2.1929   -0.2183   -3.7764   H         1 RES1   0.0000
   101 H48       0.1065    1.2258   -4.2922   H         1 RES1   0.0000
   102 H49      -0.0152    1.4853   -2.5443   H         1 RES1   0.0000
   103 H50       1.2188    3.3488   -3.7205   H         1 RES1   0.0000
   104 H51       2.4472    2.1987   -4.2218   H         1 RES1   0.0000
   105 H52       2.2040    2.5410   -2.5007   H         1 RES1   0.0000
   106 H53       0.5658   -0.4531   -5.5827   H         1 RES1   0.0000
   107 H54      -0.2819   -1.8844   -6.1457   H         1 RES1   0.0000
   108 H55       2.3254   -2.2315   -4.6657   H         1 RES1   0.0000
   109 H56       2.3843   -1.6617   -6.3229   H         1 RES1   0.0000
   110 H57       2.2450   -3.7933   -7.0397   H         1 RES1   0.0000
   111 H58       0.6618   -3.9510   -6.3358   H         1 RES1   0.0000
   112 H59       3.0831   -4.2537   -4.5536   H         1 RES1   0.0000
   113 H60       2.6777   -5.5553   -5.6578   H         1 RES1   0.0000
   114 H61       0.8134   -4.4693   -3.5108   H         1 RES1   0.0000
   115 H62       1.7963   -5.9168   -3.4068   H         1 RES1   0.0000
   116 H63       0.6517   -6.7679   -5.4967   H         1 RES1   0.0000
   117 H64      -0.5454   -5.5007   -5.3148   H         1 RES1   0.0000
   118 H65       0.1015   -7.5789   -3.1899   H         1 RES1   0.0000
   119 H66      -1.2119   -7.7071   -4.3580   H         1 RES1   0.0000
   120 H67      -2.2523   -5.6540   -3.4349   H         1 RES1   0.0000
   121 H68      -0.9472   -5.5131   -2.2548   H         1 RES1   0.0000
   122 H69      -1.5641   -7.8011   -1.3855   H         1 RES1   0.0000
   123 H70      -2.9572   -7.7863   -2.4592   H         1 RES1   0.0000
   124 H71      -2.4221   -5.7017   -0.2847   H         1 RES1   0.0000
   125 H72      -3.5447   -7.0583   -0.1376   H         1 RES1   0.0000
   126 H73      -3.8562   -5.7824   -1.3126   H         1 RES1   0.0000
   127 H74      -0.9398   -3.3218   -3.0067   H         1 RES1   0.0000
   128 H75      -1.0123   -3.4975   -4.7584   H         1 RES1   0.0000
   129 H76      -3.1388   -2.6249   -4.7452   H         1 RES1   0.0000
   130 H77      -2.5474   -1.1596   -3.9801   H         1 RES1   0.0000
   131 H78      -2.6748   -2.2678   -1.7526   H         1 RES1   0.0000
   132 H79      -3.2403   -3.7459   -2.5307   H         1 RES1   0.0000
   133 H80      -5.2000   -2.4354   -3.4573   H         1 RES1   0.0000
   134 H81      -4.7534   -1.1095   -2.3901   H         1 RES1   0.0000
   135 H82      -5.5072   -3.9489   -1.5604   H         1 RES1   0.0000
   136 H83      -6.5028   -2.5073   -1.3910   H         1 RES1   0.0000
   137 H84      -4.7874   -1.5413    0.1660   H         1 RES1   0.0000
   138 H85      -3.8625   -3.0389    0.0304   H         1 RES1   0.0000
   139 H86      -5.8585   -4.2945    0.9117   H         1 RES1   0.0000
   140 H87      -6.6743   -2.7527    1.1586   H         1 RES1   0.0000
   141 H88      -5.7324   -3.4201    3.2645   H         1 RES1   0.0000
   142 H89      -4.8044   -2.0402    2.6783   H         1 RES1   0.0000
   143 H90      -2.9807   -3.5217    1.9567   H         1 RES1   0.0000
   144 H91      -3.9566   -4.9482    2.3217   H         1 RES1   0.0000
   145 H92      -3.0638   -2.9019    4.4053   H         1 RES1   0.0000
   146 H93      -2.2859   -4.4685    4.1301   H         1 RES1   0.0000
   147 H94      -3.9423   -4.3951    4.7199   H         1 RES1   0.0000
   148 C48       7.0757   -6.3328   -3.3935   C.3       1 RES1   0.0000
   149 C49       6.5440   -7.6149   -4.0248   C.3       1 RES1   0.0000
   150 C50       5.8208   -8.5506   -3.0528   C.3       1 RES1   0.0000
   151 C51       4.4939   -7.9997   -2.5116   C.3       1 RES1   0.0000
   152 C52       4.6628   -7.2952   -1.1655   C.3       1 RES1   0.0000
   153 C53       3.4468   -6.4783   -0.7213   C.3       1 RES1   0.0000
   154 C54       2.3008   -7.3256   -0.1762   C.3       1 RES1   0.0000
   155 C55       0.9706   -6.5856   -0.0038   C.3       1 RES1   0.0000
   156 C56       0.8250   -5.6963    1.2346   C.3       1 RES1   0.0000
   157 C57       1.5290   -4.3440    1.0920   C.3       1 RES1   0.0000
   158 N3        1.2481   -3.4445    2.2200   N.am      1 RES1   0.0000
   159 C58       1.7028   -3.8953    3.5354   C.3       1 RES1   0.0000
   160 C59       2.9411   -4.8223    3.5958   C.3       1 RES1   0.0000
   161 C60       4.3721   -4.2593    3.5490   C.3       1 RES1   0.0000
   162 C61       4.9201   -3.9705    2.1520   C.3       1 RES1   0.0000
   163 C62       6.4559   -3.8985    2.0137   C.3       1 RES1   0.0000
   164 C63       7.3308   -3.3738    3.1587   C.3       1 RES1   0.0000
   165 C64       7.1316   -1.9221    3.6008   C.3       1 RES1   0.0000
   166 C65       8.4230   -1.3186    4.1675   C.3       1 RES1   0.0000
   167 C66       8.2010   -0.0268    4.9654   C.3       1 RES1   0.0000
   168 C67       7.8323   -0.3062    6.4185   C.3       1 RES1   0.0000
   169 C68       0.5559   -2.3426    1.9266   C.2       1 RES1   0.0000
   170 O4        0.4358   -2.0180    0.7215   O.2       1 RES1   0.0000
   171 C69      -0.2727   -1.4070    2.8551   C.3       1 RES1   0.0000
   172 C70      -0.2899   -1.5961    4.3647   C.3       1 RES1   0.0000
   173 O5        0.1313   -0.0943    2.3965   O.3       1 RES1   0.0000
   174 C71      -0.3695    1.0951    3.0289   C.3       1 RES1   0.0000
   175 C72       0.8345    2.0240    3.2961   C.3       1 RES1   0.0000
   176 C73       1.1800    2.9414    2.1260   C.3       1 RES1   0.0000
   177 C74      -1.3094    1.8241    2.0608   C.2       1 RES1   0.0000
   178 O6       -1.1736    1.5693    0.8427   O.2       1 RES1   0.0000
   179 N4       -2.1619    2.7324    2.5007   N.am      1 RES1   0.0000
   180 C75      -2.1946    3.2070    3.8802   C.3       1 RES1   0.0000
   181 C76      -2.8723    2.2099    4.8342   C.3       1 RES1   0.0000
   182 C77      -4.0619    2.7857    5.6080   C.3       1 RES1   0.0000
   183 C78      -4.9997    1.6626    6.0593   C.3       1 RES1   0.0000
   184 C79      -5.8008    1.0490    4.9090   C.3       1 RES1   0.0000
   185 C80      -6.8724    1.9894    4.3668   C.3       1 RES1   0.0000
   186 C81      -7.6637    1.3881    3.2075   C.3       1 RES1   0.0000
   187 C82      -6.8929    1.3736    1.8872   C.3       1 RES1   0.0000
   188 C83      -7.7949    0.9658    0.7242   C.3       1 RES1   0.0000
   189 C84      -7.0788    1.0418   -0.6185   C.3       1 RES1   0.0000
   190 C85      -3.1876    3.2524    1.5922   C.3       1 RES1   0.0000
   191 C86      -2.7446    4.4227    0.6920   C.3       1 RES1   0.0000
   192 C87      -2.6848    4.0106   -0.7813   C.3       1 RES1   0.0000
   193 C88      -2.6320    5.1988   -1.7422   C.3       1 RES1   0.0000
   194 C89      -2.8684    4.8055   -3.2038   C.3       1 RES1   0.0000
   195 C90      -1.7621    3.9320   -3.7922   C.3       1 RES1   0.0000
   196 C91      -1.9715    3.5968   -5.2764   C.3       1 RES1   0.0000
   197 C92      -2.5566    2.2093   -5.5509   C.3       1 RES1   0.0000
   198 C93      -4.0054    2.0156   -5.0930   C.3       1 RES1   0.0000
   199 C94      -4.1305    1.4798   -3.6728   C.3       1 RES1   0.0000
   200 H95       7.7345   -5.8188   -4.0905   H         1 RES1   0.0000
   201 H96       6.2650   -5.6541   -3.1363   H         1 RES1   0.0000
   202 H97       7.6453   -6.5576   -2.4942   H         1 RES1   0.0000
   203 H98       5.8685   -7.3553   -4.8438   H         1 RES1   0.0000
   204 H99       7.3862   -8.1613   -4.4534   H         1 RES1   0.0000
   205 H100      5.6269   -9.4851   -3.5826   H         1 RES1   0.0000
   206 H101      6.4856   -8.7852   -2.2190   H         1 RES1   0.0000
   207 H102      4.0703   -7.3081   -3.2432   H         1 RES1   0.0000
   208 H103      3.7878   -8.8238   -2.4022   H         1 RES1   0.0000
   209 H104      4.8914   -8.0403   -0.4017   H         1 RES1   0.0000
   210 H105      5.5203   -6.6247   -1.2304   H         1 RES1   0.0000
   211 H106      3.7835   -5.7927    0.0544   H         1 RES1   0.0000
   212 H107      3.0932   -5.8734   -1.5585   H         1 RES1   0.0000
   213 H108      2.1314   -8.1487   -0.8701   H         1 RES1   0.0000
   214 H109      2.6040   -7.7701    0.7728   H         1 RES1   0.0000
   215 H110      0.7676   -5.9930   -0.8953   H         1 RES1   0.0000
   216 H111      0.1904   -7.3412    0.0799   H         1 RES1   0.0000
   217 H112     -0.2380   -5.4984    1.3982   H         1 RES1   0.0000
   218 H113      1.1801   -6.2519    2.0995   H         1 RES1   0.0000
   219 H114      2.6065   -4.4366    0.9938   H         1 RES1   0.0000
   220 H115      1.1478   -3.8590    0.1926   H         1 RES1   0.0000
   221 H116      1.8997   -3.0167    4.1438   H         1 RES1   0.0000
   222 H117      0.8916   -4.4661    4.0004   H         1 RES1   0.0000
   223 H118      2.8494   -5.2999    4.5737   H         1 RES1   0.0000
   224 H119      2.8727   -5.6113    2.8525   H         1 RES1   0.0000
   225 H120      4.4463   -3.3841    4.1901   H         1 RES1   0.0000
   226 H121      5.0037   -5.0310    3.9924   H         1 RES1   0.0000
   227 H122      4.6197   -4.7954    1.5038   H         1 RES1   0.0000
   228 H123      4.4657   -3.0681    1.7411   H         1 RES1   0.0000
   229 H124      6.8152   -4.9116    1.8220   H         1 RES1   0.0000
   230 H125      6.6734   -3.3127    1.1147   H         1 RES1   0.0000
   231 H126      7.2380   -4.0252    4.0279   H         1 RES1   0.0000
   232 H127      8.3582   -3.4693    2.7998   H         1 RES1   0.0000
   233 H128      6.8188   -1.3148    2.7482   H         1 RES1   0.0000
   234 H129      6.3597   -1.8724    4.3694   H         1 RES1   0.0000
   235 H130      8.9051   -2.0470    4.8212   H         1 RES1   0.0000
   236 H131      9.1075   -1.1163    3.3409   H         1 RES1   0.0000
   237 H132      9.1192    0.5643    4.9498   H         1 RES1   0.0000
   238 H133      7.4230    0.5784    4.4881   H         1 RES1   0.0000
   239 H134      8.6701   -0.7749    6.9278   H         1 RES1   0.0000
   240 H135      7.5955    0.6168    6.9418   H         1 RES1   0.0000
   241 H136      6.9759   -0.9725    6.4928   H         1 RES1   0.0000
   242 H137     -1.2999   -1.6025    2.4857   H         1 RES1   0.0000
   243 H138      0.6159   -1.2640    4.8600   H         1 RES1   0.0000
   244 H139     -1.1259   -1.0486    4.7975   H         1 RES1   0.0000
   245 H140     -0.4532   -2.6462    4.5808   H         1 RES1   0.0000
   246 H141     -0.8734    0.8521    3.9639   H         1 RES1   0.0000
   247 H142      1.6726    1.3644    3.5089   H         1 RES1   0.0000
   248 H143      0.6618    2.6273    4.1874   H         1 RES1   0.0000
   249 H144      1.3182    2.3729    1.2027   H         1 RES1   0.0000
   250 H145      2.0945    3.4792    2.3593   H         1 RES1   0.0000
   251 H146      0.3979    3.6748    1.9452   H         1 RES1   0.0000
   252 H147     -1.1859    3.4505    4.2132   H         1 RES1   0.0000
   253 H148     -2.7460    4.1463    3.8758   H         1 RES1   0.0000
   254 H149     -3.2394    1.3709    4.2419   H         1 RES1   0.0000
   255 H150     -2.1477    1.8182    5.5499   H         1 RES1   0.0000
   256 H151     -3.7127    3.3411    6.4792   H         1 RES1   0.0000
   257 H152     -4.6202    3.4851    4.9858   H         1 RES1   0.0000
   258 H153     -4.4093    0.8783    6.5393   H         1 RES1   0.0000
   259 H154     -5.6928    2.0523    6.8059   H         1 RES1   0.0000
   260 H155     -5.1327    0.7536    4.0977   H         1 RES1   0.0000
   261 H156     -6.2839    0.1387    5.2674   H         1 RES1   0.0000
   262 H157     -7.5576    2.2370    5.1781   H         1 RES1   0.0000
   263 H158     -6.4247    2.9232    4.0230   H         1 RES1   0.0000
   264 H159     -7.9735    0.3738    3.4656   H         1 RES1   0.0000
   265 H160     -8.5682    1.9822    3.0625   H         1 RES1   0.0000
   266 H161     -6.4977    2.3741    1.6895   H         1 RES1   0.0000
   267 H162     -6.0430    0.6890    1.9392   H         1 RES1   0.0000
   268 H163     -8.1611   -0.0497    0.8894   H         1 RES1   0.0000
   269 H164     -8.6616    1.6297    0.7022   H         1 RES1   0.0000
   270 H165     -6.1881    0.4177   -0.6156   H         1 RES1   0.0000
   271 H166     -7.7390    0.7124   -1.4186   H         1 RES1   0.0000
   272 H167     -6.7751    2.0665   -0.8250   H         1 RES1   0.0000
   273 H168     -3.5436    2.4274    0.9686   H         1 RES1   0.0000
   274 H169     -4.0212    3.5591    2.2208   H         1 RES1   0.0000
   275 H170     -3.4662    5.2344    0.7943   H         1 RES1   0.0000
   276 H171     -1.7817    4.8181    1.0197   H         1 RES1   0.0000
   277 H172     -1.8306    3.3460   -0.9379   H         1 RES1   0.0000
   278 H173     -3.5919    3.4458   -0.9985   H         1 RES1   0.0000
   279 H174     -3.4186    5.9005   -1.4569   H         1 RES1   0.0000
   280 H175     -1.6795    5.7251   -1.6503   H         1 RES1   0.0000
   281 H176     -3.8283    4.2974   -3.2847   H         1 RES1   0.0000
   282 H177     -2.9413    5.7196   -3.7955   H         1 RES1   0.0000
   283 H178     -0.8190    4.4710   -3.6771   H         1 RES1   0.0000
   284 H179     -1.6800    3.0032   -3.2286   H         1 RES1   0.0000
   285 H180     -2.6215    4.3446   -5.7332   H         1 RES1   0.0000
   286 H181     -1.0089    3.6564   -5.7918   H         1 RES1   0.0000
   287 H182     -2.5097    2.0431   -6.6300   H         1 RES1   0.0000
   288 H183     -1.9312    1.4460   -5.0766   H         1 RES1   0.0000
   289 H184     -4.5421    2.9601   -5.1839   H         1 RES1   0.0000
   290 H185     -4.4909    1.3044   -5.7640   H         1 RES1   0.0000
   291 H186     -5.1718    1.2807   -3.4343   H         1 RES1   0.0000
   292 H187     -3.7455    2.1714   -2.9334   H         1 RES1   0.0000
   293 H188     -3.5740    0.5516   -3.5715   H         1 RES1   0.0000
   294 N5       -2.5085    0.1414   -0.4553   N.3       1 RES1   0.0000
   295 O7       -3.5707    0.6486   -0.2892   O.2       1 RES1   0.0000
   296 O8       -1.7699    0.4660   -1.3925   O.co2     1 RES1   0.0000
   297 O9       -2.1051   -0.7551    0.3004   O.co2     1 RES1   0.0000
@<TRIPOS>BOND
     1     1    24    1
     2     1    27    1
     3     1    32    1
     4     1   170    1
     5     1   173    1
     6     1   178    1
     7     1   296    1
     8     1   297    1
     9     2     3    1
    10     2    54    1
    11     2    55    1
    12     2    56    1
    13     3     4    1
    14     3    57    1
    15     3    58    1
    16     4     5    1
    17     4    59    1
    18     4    60    1
    19     5     6    1
    20     5    61    1
    21     5    62    1
    22     6     7    1
    23     6    63    1
    24     6    64    1
    25     7     8    1
    26     7    65    1
    27     7    66    1
    28     8     9    1
    29     8    67    1
    30     8    68    1
    31     9    10    1
    32     9    69    1
    33     9    70    1
    34    10    11    1
    35    10    71    1
    36    10    72    1
    37    11    12    1
    38    11    73    1
    39    11    74    1
    40    12    13    1
    41    12    23    1
    42    13    14    1
    43    13    75    1
    44    13    76    1
    45    14    15    1
    46    14    77    1
    47    14    78    1
    48    15    16    1
    49    15    79    1
    50    15    80    1
    51    16    17    1
    52    16    81    1
    53    16    82    1
    54    17    18    1
    55    17    83    1
    56    17    84    1
    57    18    19    1
    58    18    85    1
    59    18    86    1
    60    19    20    1
    61    19    87    1
    62    19    88    1
    63    20    21    1
    64    20    89    1
    65    20    90    1
    66    21    22    1
    67    21    91    1
    68    21    92    1
    69    22    93    1
    70    22    94    1
    71    22    95    1
    72    23    24    2
    73    23    25    1
    74    25    26    1
    75    25    27    1
    76    25    96    1
    77    26    97    1
    78    26    98    1
    79    26    99    1
    80    27    28    1
    81    28    29    1
    82    28    31    1
    83    28   100    1
    84    29    30    1
    85    29   101    1
    86    29   102    1
    87    30   103    1
    88    30   104    1
    89    30   105    1
    90    31    32    2
    91    31    33    1
    92    33    34    1
    93    33    44    1
    94    34    35    1
    95    34   106    1
    96    34   107    1
    97    35    36    1
    98    35   108    1
    99    35   109    1
   100    36    37    1
   101    36   110    1
   102    36   111    1
   103    37    38    1
   104    37   112    1
   105    37   113    1
   106    38    39    1
   107    38   114    1
   108    38   115    1
   109    39    40    1
   110    39   116    1
   111    39   117    1
   112    40    41    1
   113    40   118    1
   114    40   119    1
   115    41    42    1
   116    41   120    1
   117    41   121    1
   118    42    43    1
   119    42   122    1
   120    42   123    1
   121    43   124    1
   122    43   125    1
   123    43   126    1
   124    44    45    1
   125    44   127    1
   126    44   128    1
   127    45    46    1
   128    45   129    1
   129    45   130    1
   130    46    47    1
   131    46   131    1
   132    46   132    1
   133    47    48    1
   134    47   133    1
   135    47   134    1
   136    48    49    1
   137    48   135    1
   138    48   136    1
   139    49    50    1
   140    49   137    1
   141    49   138    1
   142    50    51    1
   143    50   139    1
   144    50   140    1
   145    51    52    1
   146    51   141    1
   147    51   142    1
   148    52    53    1
   149    52   143    1
   150    52   144    1
   151    53   145    1
   152    53   146    1
   153    53   147    1
   154   148   149    1
   155   148   200    1
   156   148   201    1
   157   148   202    1
   158   149   150    1
   159   149   203    1
   160   149   204    1
   161   150   151    1
   162   150   205    1
   163   150   206    1
   164   151   152    1
   165   151   207    1
   166   151   208    1
   167   152   153    1
   168   152   209    1
   169   152   210    1
   170   153   154    1
   171   153   211    1
   172   153   212    1
   173   154   155    1
   174   154   213    1
   175   154   214    1
   176   155   156    1
   177   155   215    1
   178   155   216    1
   179   156   157    1
   180   156   217    1
   181   156   218    1
   182   157   158    1
   183   157   219    1
   184   157   220    1
   185   158   159    1
   186   158   169    1
   187   159   160    1
   188   159   221    1
   189   159   222    1
   190   160   161    1
   191   160   223    1
   192   160   224    1
   193   161   162    1
   194   161   225    1
   195   161   226    1
   196   162   163    1
   197   162   227    1
   198   162   228    1
   199   163   164    1
   200   163   229    1
   201   163   230    1
   202   164   165    1
   203   164   231    1
   204   164   232    1
   205   165   166    1
   206   165   233    1
   207   165   234    1
   208   166   167    1
   209   166   235    1
   210   166   236    1
   211   167   168    1
   212   167   237    1
   213   167   238    1
   214   168   239    1
   215   168   240    1
   216   168   241    1
   217   169   170    2
   218   169   171    1
   219   171   172    1
   220   171   173    1
   221   171   242    1
   222   172   243    1
   223   172   244    1
   224   172   245    1
   225   173   174    1
   226   174   175    1
   227   174   177    1
   228   174   246    1
   229   175   176    1
   230   175   247    1
   231   175   248    1
   232   176   249    1
   233   176   250    1
   234   176   251    1
   235   177   178    2
   236   177   179    1
   237   179   180    1
   238   179   190    1
   239   180   181    1
   240   180   252    1
   241   180   253    1
   242   181   182    1
   243   181   254    1
   244   181   255    1
   245   182   183    1
   246   182   256    1
   247   182   257    1
   248   183   184    1
   249   183   258    1
   250   183   259    1
   251   184   185    1
   252   184   260    1
   253   184   261    1
   254   185   186    1
   255   185   262    1
   256   185   263    1
   257   186   187    1
   258   186   264    1
   259   186   265    1
   260   187   188    1
   261   187   266    1
   262   187   267    1
   263   188   189    1
   264   188   268    1
   265   188   269    1
   266   189   270    1
   267   189   271    1
   268   189   272    1
   269   190   191    1
   270   190   273    1
   271   190   274    1
   272   191   192    1
   273   191   275    1
   274   191   276    1
   275   192   193    1
   276   192   277    1
   277   192   278    1
   278   193   194    1
   279   193   279    1
   280   193   280    1
   281   194   195    1
   282   194   281    1
   283   194   282    1
   284   195   196    1
   285   195   283    1
   286   195   284    1
   287   196   197    1
   288   196   285    1
   289   196   286    1
   290   197   198    1
   291   197   287    1
   292   197   288    1
   293   198   199    1
   294   198   289    1
   295   198   290    1
   296   199   291    1
   297   199   292    1
   298   199   293    1
   299   294   295    2
   300   294   296    1
   301   294   297    1
@<TRIPOS>SUBSTRUCTURE
     1 RES1      297 GROUP             0 ****  ****    0  
