@<TRIPOS>MOLECULE
dodecahedral_0_nunpairedes_0_charge_3 Charge: 3 Unpaired_Electrons: 6 XTB_Unpaired_Electrons: 0 XTB_Charge: 3
    79    91     1     0     0
SMALL
NoCharges
****
Generated from Architector

@<TRIPOS>ATOM
     1 Tb1       0.1663    1.1582   -2.0570   Tb        1 RES1   0.0000
     2 C1        2.5072    4.7643   -0.0532   C.3       1 RES1   0.0000
     3 C2        1.8014    3.6558    0.7526   C.3       1 RES1   0.0000
     4 C3        2.4568    2.2889    0.4264   C.3       1 RES1   0.0000
     5 C4        1.8685    3.9858    2.2592   C.3       1 RES1   0.0000
     6 C5        0.5996    4.6545    2.7764   C.3       1 RES1   0.0000
     7 C6       -0.6639    3.8244    2.4931   C.3       1 RES1   0.0000
     8 C7       -0.5116    2.3387    2.9428   C.3       1 RES1   0.0000
     9 C8       -1.8984    4.4109    3.1695   C.3       1 RES1   0.0000
    10 C9       -0.8014    3.6500    1.0295   C.ar      1 RES1   0.0000
    11 N1       -1.9597    3.3072    0.4830   N.ar      1 RES1   0.0000
    12 C10      -1.9890    2.9884   -0.7970   C.ar      1 RES1   0.0000
    13 C11      -3.0670    2.1566   -1.4034   C.ar      1 RES1   0.0000
    14 C12      -4.4235    2.3981   -1.5665   C.ar      1 RES1   0.0000
    15 C13      -5.1889    1.3871   -2.1423   C.ar      1 RES1   0.0000
    16 C14      -4.6154    0.1649   -2.4690   C.ar      1 RES1   0.0000
    17 C15      -3.2388    0.0195   -2.3236   C.ar      1 RES1   0.0000
    18 C16      -2.4554   -1.1613   -2.7597   C.ar      1 RES1   0.0000
    19 C17      -2.9413   -2.4067   -3.1567   C.ar      1 RES1   0.0000
    20 C18      -2.0407   -3.3558   -3.6260   C.ar      1 RES1   0.0000
    21 C19      -0.6770   -3.0687   -3.6886   C.ar      1 RES1   0.0000
    22 C20      -0.2771   -1.8111   -3.2879   C.ar      1 RES1   0.0000
    23 C21       0.9886   -1.0354   -3.4420   C.ar      1 RES1   0.0000
    24 N2        1.5427   -0.5452   -2.3265   N.ar      1 RES1   0.0000
    25 N3        2.5064    0.3780   -2.4660   N.ar      1 RES1   0.0000
    26 C22       2.8491    0.8655   -3.6488   C.ar      1 RES1   0.0000
    27 C23       1.7992    0.7438   -4.6233   C.ar      1 RES1   0.0000
    28 N4        1.0180   -0.3087   -4.5551   N.ar      1 RES1   0.0000
    29 C24       1.3508    1.9662   -5.3736   C.3       1 RES1   0.0000
    30 C25       1.3521    1.6986   -6.8857   C.3       1 RES1   0.0000
    31 C26      -0.1046    2.2816   -4.9175   C.3       1 RES1   0.0000
    32 C27       2.3239    3.1052   -4.9963   C.3       1 RES1   0.0000
    33 C28       3.7827    2.6319   -5.0691   C.3       1 RES1   0.0000
    34 C29       4.0927    1.6092   -3.9515   C.3       1 RES1   0.0000
    35 C30       4.9910    0.4468   -4.4507   C.3       1 RES1   0.0000
    36 C31       4.7359    2.2746   -2.7360   C.3       1 RES1   0.0000
    37 N5       -1.1399   -0.8947   -2.8181   N.ar      1 RES1   0.0000
    38 N6       -2.4844    1.0205   -1.8344   N.ar      1 RES1   0.0000
    39 N7       -0.9218    3.0508   -1.6090   N.ar      1 RES1   0.0000
    40 N8        0.2839    3.2813   -1.0564   N.ar      1 RES1   0.0000
    41 C32       0.3896    3.5721    0.2293   C.ar      1 RES1   0.0000
    42 H1        3.5726    4.7592    0.1594   H         1 RES1   0.0000
    43 H2        2.1135    5.7415    0.2153   H         1 RES1   0.0000
    44 H3        2.3542    4.6214   -1.1230   H         1 RES1   0.0000
    45 H4        3.3255    2.1410    1.0642   H         1 RES1   0.0000
    46 H5        2.8090    2.2738   -0.6136   H         1 RES1   0.0000
    47 H6        1.7701    1.4402    0.6258   H         1 RES1   0.0000
    48 H7        2.7133    4.6538    2.4317   H         1 RES1   0.0000
    49 H8        2.0536    3.0874    2.8475   H         1 RES1   0.0000
    50 H9        0.4744    5.6437    2.3328   H         1 RES1   0.0000
    51 H10       0.6983    4.8052    3.8493   H         1 RES1   0.0000
    52 H11      -0.2913    2.3158    4.0062   H         1 RES1   0.0000
    53 H12       0.2856    1.8148    2.4187   H         1 RES1   0.0000
    54 H13      -1.4434    1.8069    2.7671   H         1 RES1   0.0000
    55 H14      -1.7214    4.4962    4.2366   H         1 RES1   0.0000
    56 H15      -2.7705    3.7821    3.0186   H         1 RES1   0.0000
    57 H16      -2.1146    5.4028    2.7865   H         1 RES1   0.0000
    58 H17      -4.8792    3.3347   -1.2764   H         1 RES1   0.0000
    59 H18      -6.2385    1.5484   -2.3406   H         1 RES1   0.0000
    60 H19      -5.2227   -0.6476   -2.8375   H         1 RES1   0.0000
    61 H20      -3.9904   -2.6519   -3.1068   H         1 RES1   0.0000
    62 H21      -2.4096   -4.3115   -3.9711   H         1 RES1   0.0000
    63 H22       0.0217   -3.8036   -4.0484   H         1 RES1   0.0000
    64 H23       0.5208    1.0566   -7.1623   H         1 RES1   0.0000
    65 H24       2.2722    1.2189   -7.2055   H         1 RES1   0.0000
    66 H25       1.2652    2.6478   -7.4102   H         1 RES1   0.0000
    67 H26      -0.7024    1.3541   -4.7954   H         1 RES1   0.0000
    68 H27      -0.5925    2.8587   -5.7049   H         1 RES1   0.0000
    69 H28      -0.1348    2.9193   -4.0021   H         1 RES1   0.0000
    70 H29       2.1056    3.4692   -3.9723   H         1 RES1   0.0000
    71 H30       2.1836    3.9429   -5.6809   H         1 RES1   0.0000
    72 H31       4.4476    3.4882   -4.9506   H         1 RES1   0.0000
    73 H32       3.9704    2.2062   -6.0553   H         1 RES1   0.0000
    74 H33       4.5103   -0.1197   -5.2440   H         1 RES1   0.0000
    75 H34       5.2303   -0.2283   -3.6327   H         1 RES1   0.0000
    76 H35       5.9200    0.8523   -4.8425   H         1 RES1   0.0000
    77 H36       4.1776    3.1602   -2.4427   H         1 RES1   0.0000
    78 H37       5.7454    2.5977   -2.9766   H         1 RES1   0.0000
    79 H38       4.8058    1.5900   -1.8961   H         1 RES1   0.0000
@<TRIPOS>BOND
     1     1    11    1
     2     1    24    1
     3     1    25    1
     4     1    28    1
     5     1    37    1
     6     1    38    1
     7     1    39    1
     8     1    40    1
     9     2     3    1
    10     2    42    1
    11     2    43    1
    12     2    44    1
    13     3     4    1
    14     3     5    1
    15     3    41    1
    16     4    45    1
    17     4    46    1
    18     4    47    1
    19     5     6    1
    20     5    48    1
    21     5    49    1
    22     6     7    1
    23     6    50    1
    24     6    51    1
    25     7     8    1
    26     7     9    1
    27     7    10    1
    28     8    52    1
    29     8    53    1
    30     8    54    1
    31     9    55    1
    32     9    56    1
    33     9    57    1
    34    10    11    1
    35    10    41    2
    36    11    12    2
    37    12    13    1
    38    12    39    1
    39    13    14    1
    40    13    38    2
    41    14    15    2
    42    14    58    1
    43    15    16    1
    44    15    59    1
    45    16    17    2
    46    16    60    1
    47    17    18    1
    48    17    38    1
    49    18    19    1
    50    18    37    2
    51    19    20    2
    52    19    61    1
    53    20    21    1
    54    20    62    1
    55    21    22    2
    56    21    63    1
    57    22    23    1
    58    22    37    1
    59    23    24    1
    60    23    28    2
    61    24    25    2
    62    25    26    1
    63    26    27    2
    64    26    34    1
    65    27    28    1
    66    27    29    1
    67    29    30    1
    68    29    31    1
    69    29    32    1
    70    30    64    1
    71    30    65    1
    72    30    66    1
    73    31    67    1
    74    31    68    1
    75    31    69    1
    76    32    33    1
    77    32    70    1
    78    32    71    1
    79    33    34    1
    80    33    72    1
    81    33    73    1
    82    34    35    1
    83    34    36    1
    84    35    74    1
    85    35    75    1
    86    35    76    1
    87    36    77    1
    88    36    78    1
    89    36    79    1
    90    39    40    2
    91    40    41    1
@<TRIPOS>SUBSTRUCTURE
     1 RES1       79 GROUP             0 ****  ****    0  
