@<TRIPOS>MOLECULE
ICIGOT_geomtry_0_nunpairedes_0_charge_3 Charge: 3 Unpaired_Electrons: 6 XTB_Unpaired_Electrons: 0 XTB_Charge: 3
   305   308     1     0     0
SMALL
NoCharges
****
Generated from Architector

@<TRIPOS>ATOM
     1 Tb1       0.0769    0.0039   -0.1120   Tb        1 RES1   0.0000
     2 C1        1.8768   -1.3470    4.9676   C.3       1 RES1   0.0000
     3 C2        2.1308   -2.8189    4.6637   C.3       1 RES1   0.0000
     4 C3        0.8389   -3.6307    4.5432   C.3       1 RES1   0.0000
     5 C4       -0.0870   -3.1959    3.4039   C.3       1 RES1   0.0000
     6 C5       -1.2993   -4.1153    3.2579   C.3       1 RES1   0.0000
     7 C6       -2.3503   -3.5636    2.2926   C.3       1 RES1   0.0000
     8 C7       -3.1564   -2.4056    2.8891   C.3       1 RES1   0.0000
     9 C8       -4.1797   -1.8091    1.9082   C.3       1 RES1   0.0000
    10 N1       -3.8998   -0.4923    1.3002   N.am      1 RES1   0.0000
    11 C9       -4.8529    0.5691    1.6400   C.3       1 RES1   0.0000
    12 C10      -4.7101    1.0090    3.1093   C.3       1 RES1   0.0000
    13 C11      -5.7555    2.0556    3.5433   C.3       1 RES1   0.0000
    14 C12      -5.6023    3.4819    2.9791   C.3       1 RES1   0.0000
    15 C13      -6.9873    4.1314    2.8029   C.3       1 RES1   0.0000
    16 C14      -7.9375    3.4685    1.8103   C.3       1 RES1   0.0000
    17 C15      -9.1844    4.3216    1.5526   C.3       1 RES1   0.0000
    18 C16     -10.0652    4.4947    2.7848   C.3       1 RES1   0.0000
    19 C17      -4.8301    4.4451    3.9045   C.3       1 RES1   0.0000
    20 C18      -3.4876    3.9931    4.4684   C.3       1 RES1   0.0000
    21 C19      -2.8320    5.0880    5.3285   C.3       1 RES1   0.0000
    22 C20      -1.8349    6.0202    4.6289   C.3       1 RES1   0.0000
    23 C21      -2.4375    7.0245    3.6462   C.3       1 RES1   0.0000
    24 C22      -1.3820    7.9990    3.1302   C.3       1 RES1   0.0000
    25 C23      -2.8926   -0.3705    0.4471   C.2       1 RES1   0.0000
    26 O1       -1.8653   -1.0910    0.4872   O.2       1 RES1   0.0000
    27 C24      -2.9192    0.6022   -0.7398   C.3       1 RES1   0.0000
    28 O2       -1.7455    1.4159   -0.6476   O.3       1 RES1   0.0000
    29 C25      -1.4789    2.2253   -1.7999   C.3       1 RES1   0.0000
    30 C26      -0.3889    1.5890   -2.6557   C.2       1 RES1   0.0000
    31 O3        0.0797    0.5098   -2.2220   O.2       1 RES1   0.0000
    32 N2        0.0140    2.1532   -3.7810   N.am      1 RES1   0.0000
    33 C27      -0.2658    3.5512   -4.1176   C.3       1 RES1   0.0000
    34 C28      -1.6771    3.9104   -4.6126   C.3       1 RES1   0.0000
    35 C29      -2.0161    3.5256   -6.0579   C.3       1 RES1   0.0000
    36 C30      -1.3148    4.3615   -7.1392   C.3       1 RES1   0.0000
    37 C31      -0.0259    3.7598   -7.7050   C.3       1 RES1   0.0000
    38 C32      -0.2655    2.5418   -8.5954   C.3       1 RES1   0.0000
    39 C33       1.0413    1.9612   -9.1354   C.3       1 RES1   0.0000
    40 C34       0.7950    0.7515  -10.0277   C.3       1 RES1   0.0000
    41 C35       0.9598    1.3815   -4.6013   C.3       1 RES1   0.0000
    42 C36       0.2571    0.3423   -5.4854   C.3       1 RES1   0.0000
    43 C37      -0.3388   -0.8177   -4.6909   C.3       1 RES1   0.0000
    44 C38      -1.1174   -1.8689   -5.5009   C.3       1 RES1   0.0000
    45 C39      -2.2987   -1.1617   -6.1803   C.3       1 RES1   0.0000
    46 C40      -3.3017   -2.0381   -6.9235   C.3       1 RES1   0.0000
    47 C41      -4.3101   -1.1778   -7.6865   C.3       1 RES1   0.0000
    48 C42      -5.3447   -2.0325   -8.4055   C.3       1 RES1   0.0000
    49 C43      -1.5500   -2.9688   -4.5153   C.3       1 RES1   0.0000
    50 C44      -1.8525   -4.3375   -5.1234   C.3       1 RES1   0.0000
    51 C45      -2.1573   -5.4154   -4.0772   C.3       1 RES1   0.0000
    52 C46      -3.6148   -5.4848   -3.6084   C.3       1 RES1   0.0000
    53 C47      -4.1193   -4.2812   -2.8103   C.3       1 RES1   0.0000
    54 C48      -5.4916   -4.5555   -2.2028   C.3       1 RES1   0.0000
    55 H1        2.8119   -0.7910    5.0185   H         1 RES1   0.0000
    56 H2        1.3818   -1.2625    5.9297   H         1 RES1   0.0000
    57 H3        1.2397   -0.8874    4.2117   H         1 RES1   0.0000
    58 H4        2.7234   -3.2319    5.4785   H         1 RES1   0.0000
    59 H5        2.7259   -2.9348    3.7574   H         1 RES1   0.0000
    60 H6        0.2945   -3.5387    5.4817   H         1 RES1   0.0000
    61 H7        1.0951   -4.6844    4.4135   H         1 RES1   0.0000
    62 H8        0.4487   -3.2142    2.4480   H         1 RES1   0.0000
    63 H9       -0.4177   -2.1683    3.5721   H         1 RES1   0.0000
    64 H10      -1.7642   -4.2937    4.2270   H         1 RES1   0.0000
    65 H11      -0.9442   -5.0809    2.8962   H         1 RES1   0.0000
    66 H12      -3.0441   -4.3680    2.0481   H         1 RES1   0.0000
    67 H13      -1.8626   -3.2384    1.3714   H         1 RES1   0.0000
    68 H14      -2.4963   -1.6168    3.2487   H         1 RES1   0.0000
    69 H15      -3.7042   -2.7965    3.7471   H         1 RES1   0.0000
    70 H16      -5.1359   -1.6965    2.4128   H         1 RES1   0.0000
    71 H17      -4.3182   -2.5111    1.0817   H         1 RES1   0.0000
    72 H18      -5.8637    0.1934    1.4628   H         1 RES1   0.0000
    73 H19      -4.6930    1.4374    1.0066   H         1 RES1   0.0000
    74 H20      -3.7073    1.4050    3.2785   H         1 RES1   0.0000
    75 H21      -4.8350    0.1362    3.7509   H         1 RES1   0.0000
    76 H22      -5.7352    2.1249    4.6325   H         1 RES1   0.0000
    77 H23      -6.7355    1.6633    3.2723   H         1 RES1   0.0000
    78 H24      -5.0963    3.4314    2.0070   H         1 RES1   0.0000
    79 H25      -6.8426    5.1655    2.4838   H         1 RES1   0.0000
    80 H26      -7.4650    4.1544    3.7819   H         1 RES1   0.0000
    81 H27      -8.2601    2.4904    2.1732   H         1 RES1   0.0000
    82 H28      -7.4200    3.3136    0.8614   H         1 RES1   0.0000
    83 H29      -9.7732    3.8414    0.7674   H         1 RES1   0.0000
    84 H30      -8.8820    5.3051    1.1833   H         1 RES1   0.0000
    85 H31     -10.3402    3.5288    3.2025   H         1 RES1   0.0000
    86 H32     -10.9780    5.0146    2.5106   H         1 RES1   0.0000
    87 H33      -9.5669    5.0787    3.5537   H         1 RES1   0.0000
    88 H34      -5.4699    4.6838    4.7549   H         1 RES1   0.0000
    89 H35      -4.6808    5.3779    3.3606   H         1 RES1   0.0000
    90 H36      -2.8205    3.7006    3.6545   H         1 RES1   0.0000
    91 H37      -3.6506    3.1182    5.0972   H         1 RES1   0.0000
    92 H38      -2.2965    4.6180    6.1561   H         1 RES1   0.0000
    93 H39      -3.6219    5.6959    5.7677   H         1 RES1   0.0000
    94 H40      -1.0729    5.4229    4.1176   H         1 RES1   0.0000
    95 H41      -1.3247    6.5971    5.4044   H         1 RES1   0.0000
    96 H42      -3.2246    7.5914    4.1440   H         1 RES1   0.0000
    97 H43      -2.8878    6.5080    2.7982   H         1 RES1   0.0000
    98 H44      -0.9780    8.5922    3.9463   H         1 RES1   0.0000
    99 H45      -1.8132    8.6812    2.4013   H         1 RES1   0.0000
   100 H46      -0.5541    7.4695    2.6568   H         1 RES1   0.0000
   101 H47      -3.8166    1.2200   -0.8023   H         1 RES1   0.0000
   102 H48      -2.8892   -0.0447   -1.6334   H         1 RES1   0.0000
   103 H49      -1.1175    3.1856   -1.4238   H         1 RES1   0.0000
   104 H50      -2.3938    2.3699   -2.3761   H         1 RES1   0.0000
   105 H51       0.4350    3.8432   -4.8979   H         1 RES1   0.0000
   106 H52      -0.0371    4.1415   -3.2212   H         1 RES1   0.0000
   107 H53      -1.7770    4.9938   -4.5231   H         1 RES1   0.0000
   108 H54      -2.4312    3.4691   -3.9641   H         1 RES1   0.0000
   109 H55      -3.0923    3.6700   -6.1702   H         1 RES1   0.0000
   110 H56      -1.8170    2.4667   -6.2100   H         1 RES1   0.0000
   111 H57      -1.1031    5.3537   -6.7370   H         1 RES1   0.0000
   112 H58      -2.0015    4.4939   -7.9768   H         1 RES1   0.0000
   113 H59       0.6659    3.4876   -6.9053   H         1 RES1   0.0000
   114 H60       0.4723    4.5191   -8.3084   H         1 RES1   0.0000
   115 H61      -0.8986    2.8322   -9.4353   H         1 RES1   0.0000
   116 H62      -0.7981    1.7610   -8.0451   H         1 RES1   0.0000
   117 H63       1.6886    1.6768   -8.2997   H         1 RES1   0.0000
   118 H64       1.5645    2.7293   -9.7066   H         1 RES1   0.0000
   119 H65       0.2897   -0.0399   -9.4771   H         1 RES1   0.0000
   120 H66       1.7351    0.3624  -10.4078   H         1 RES1   0.0000
   121 H67       0.1735    1.0275  -10.8747   H         1 RES1   0.0000
   122 H68       1.6515    0.8774   -3.9167   H         1 RES1   0.0000
   123 H69       1.5129    2.0736   -5.2368   H         1 RES1   0.0000
   124 H70       0.9840   -0.0534   -6.1960   H         1 RES1   0.0000
   125 H71      -0.5139    0.8419   -6.0660   H         1 RES1   0.0000
   126 H72      -1.0435   -0.4252   -3.9532   H         1 RES1   0.0000
   127 H73       0.4846   -1.2985   -4.1531   H         1 RES1   0.0000
   128 H74      -0.4680   -2.3073   -6.2622   H         1 RES1   0.0000
   129 H75      -1.9003   -0.4582   -6.9124   H         1 RES1   0.0000
   130 H76      -2.8413   -0.5803   -5.4262   H         1 RES1   0.0000
   131 H77      -3.8534   -2.6650   -6.2224   H         1 RES1   0.0000
   132 H78      -2.7749   -2.6862   -7.6256   H         1 RES1   0.0000
   133 H79      -3.7845   -0.5553   -8.4131   H         1 RES1   0.0000
   134 H80      -4.8144   -0.5062   -6.9857   H         1 RES1   0.0000
   135 H81      -4.8625   -2.6789   -9.1341   H         1 RES1   0.0000
   136 H82      -6.0601   -1.4007   -8.9245   H         1 RES1   0.0000
   137 H83      -5.8855   -2.6557   -7.6963   H         1 RES1   0.0000
   138 H84      -2.4026   -2.6004   -3.9461   H         1 RES1   0.0000
   139 H85      -0.7275   -3.1319   -3.8066   H         1 RES1   0.0000
   140 H86      -0.9742   -4.6426   -5.6917   H         1 RES1   0.0000
   141 H87      -2.6849   -4.2873   -5.8157   H         1 RES1   0.0000
   142 H88      -1.4997   -5.2948   -3.2112   H         1 RES1   0.0000
   143 H89      -1.9294   -6.3860   -4.5196   H         1 RES1   0.0000
   144 H90      -3.7196   -6.3718   -2.9781   H         1 RES1   0.0000
   145 H91      -4.2617   -5.6274   -4.4762   H         1 RES1   0.0000
   146 H92      -4.2045   -3.4094   -3.4607   H         1 RES1   0.0000
   147 H93      -3.4068   -4.0415   -2.0114   H         1 RES1   0.0000
   148 H94      -6.2085   -4.7913   -2.9846   H         1 RES1   0.0000
   149 H95      -5.8553   -3.6843   -1.6590   H         1 RES1   0.0000
   150 H96      -5.4517   -5.3999   -1.5194   H         1 RES1   0.0000
   151 C49      -6.3193    2.2792   -1.6156   C.3       1 RES1   0.0000
   152 C50      -5.7090    3.5389   -2.2212   C.3       1 RES1   0.0000
   153 C51      -5.1755    4.5545   -1.1971   C.3       1 RES1   0.0000
   154 C52      -3.7285    4.2963   -0.7621   C.3       1 RES1   0.0000
   155 C53      -3.1514    5.4289    0.0872   C.3       1 RES1   0.0000
   156 C54      -1.6347    5.3683    0.3219   C.3       1 RES1   0.0000
   157 C55      -1.1701    4.2622    1.2779   C.3       1 RES1   0.0000
   158 C56       0.3319    4.4010    1.5654   C.3       1 RES1   0.0000
   159 N3        0.9624    3.2746    2.2691   N.am      1 RES1   0.0000
   160 C57       1.1491    3.3528    3.7232   C.3       1 RES1   0.0000
   161 C58       0.0322    2.5951    4.4641   C.3       1 RES1   0.0000
   162 C59       0.0678    2.7364    5.9983   C.3       1 RES1   0.0000
   163 C60       0.4937    1.4592    6.7413   C.3       1 RES1   0.0000
   164 C61       1.0951    1.7944    8.1148   C.3       1 RES1   0.0000
   165 C62       2.4045    2.5785    8.0955   C.3       1 RES1   0.0000
   166 C63       3.0316    2.6699    9.4904   C.3       1 RES1   0.0000
   167 C64       2.1710    3.4268   10.4963   C.3       1 RES1   0.0000
   168 C65      -0.6754    0.4939    7.0158   C.3       1 RES1   0.0000
   169 C66      -1.5298    0.0466    5.8328   C.3       1 RES1   0.0000
   170 C67      -2.7201   -0.8214    6.2689   C.3       1 RES1   0.0000
   171 C68      -2.4606   -2.3286    6.3676   C.3       1 RES1   0.0000
   172 C69      -1.6796   -2.8247    7.5845   C.3       1 RES1   0.0000
   173 C70      -1.6502   -4.3517    7.6119   C.3       1 RES1   0.0000
   174 C71       1.2803    2.2118    1.5489   C.2       1 RES1   0.0000
   175 O4        0.9087    2.0612    0.3568   O.2       1 RES1   0.0000
   176 C72       2.1535    1.0885    2.1113   C.3       1 RES1   0.0000
   177 O5        1.5062   -0.1458    1.7642   O.3       1 RES1   0.0000
   178 C73       2.4030   -1.2488    1.6183   C.3       1 RES1   0.0000
   179 C74       2.7788   -1.4223    0.1472   C.2       1 RES1   0.0000
   180 O6        2.0896   -0.7534   -0.6565   O.2       1 RES1   0.0000
   181 N4        3.7198   -2.2686   -0.2267   N.am      1 RES1   0.0000
   182 C75       4.2781   -3.2778    0.6779   C.3       1 RES1   0.0000
   183 C76       5.3015   -2.8084    1.7254   C.3       1 RES1   0.0000
   184 C77       6.7256   -2.5650    1.2123   C.3       1 RES1   0.0000
   185 C78       7.5155   -3.8340    0.8605   C.3       1 RES1   0.0000
   186 C79       7.4632   -4.2563   -0.6096   C.3       1 RES1   0.0000
   187 C80       8.2167   -3.3054   -1.5372   C.3       1 RES1   0.0000
   188 C81       8.1422   -3.7460   -2.9987   C.3       1 RES1   0.0000
   189 C82       8.9059   -2.7947   -3.9108   C.3       1 RES1   0.0000
   190 C83       4.0263   -2.3196   -1.6647   C.3       1 RES1   0.0000
   191 C84       4.9773   -1.2072   -2.1261   C.3       1 RES1   0.0000
   192 C85       4.3561    0.1868   -2.0595   C.3       1 RES1   0.0000
   193 C86       5.2472    1.3390   -2.5531   C.3       1 RES1   0.0000
   194 C87       6.4809    1.4008   -1.6425   C.3       1 RES1   0.0000
   195 C88       7.4554    2.5535   -1.8603   C.3       1 RES1   0.0000
   196 C89       8.6943    2.3767   -0.9808   C.3       1 RES1   0.0000
   197 C90       9.6733    3.5310   -1.1433   C.3       1 RES1   0.0000
   198 C91       4.4052    2.6270   -2.5161   C.3       1 RES1   0.0000
   199 C92       4.8474    3.7318   -3.4759   C.3       1 RES1   0.0000
   200 C93       3.8680    4.9080   -3.5564   C.3       1 RES1   0.0000
   201 C94       4.0290    5.9749   -2.4683   C.3       1 RES1   0.0000
   202 C95       3.6924    5.5242   -1.0461   C.3       1 RES1   0.0000
   203 C96       3.6345    6.7069   -0.0845   C.3       1 RES1   0.0000
   204 H97      -6.6314    1.5925   -2.3972   H         1 RES1   0.0000
   205 H98      -7.1972    2.5281   -1.0276   H         1 RES1   0.0000
   206 H99      -5.6243    1.7498   -0.9672   H         1 RES1   0.0000
   207 H100     -6.4896    4.0193   -2.8100   H         1 RES1   0.0000
   208 H101     -4.9056    3.2672   -2.9134   H         1 RES1   0.0000
   209 H102     -5.8347    4.5841   -0.3295   H         1 RES1   0.0000
   210 H103     -5.2028    5.5422   -1.6587   H         1 RES1   0.0000
   211 H104     -3.1325    4.2179   -1.6705   H         1 RES1   0.0000
   212 H105     -3.6558    3.3559   -0.2088   H         1 RES1   0.0000
   213 H106     -3.6699    5.4597    1.0453   H         1 RES1   0.0000
   214 H107     -3.3620    6.3673   -0.4261   H         1 RES1   0.0000
   215 H108     -1.3344    6.3240    0.7523   H         1 RES1   0.0000
   216 H109     -1.1164    5.2728   -0.6361   H         1 RES1   0.0000
   217 H110     -1.3729    3.2739    0.8603   H         1 RES1   0.0000
   218 H111     -1.7237    4.3748    2.2078   H         1 RES1   0.0000
   219 H112      0.4969    5.3005    2.1584   H         1 RES1   0.0000
   220 H113      0.8598    4.5257    0.6148   H         1 RES1   0.0000
   221 H114      1.1337    4.4049    4.0093   H         1 RES1   0.0000
   222 H115      2.1300    2.9634    3.9961   H         1 RES1   0.0000
   223 H116      0.0995    1.5386    4.2130   H         1 RES1   0.0000
   224 H117     -0.9155    2.9829    4.0968   H         1 RES1   0.0000
   225 H118     -0.9186    3.0206    6.3641   H         1 RES1   0.0000
   226 H119      0.7431    3.5507    6.2517   H         1 RES1   0.0000
   227 H120      1.2575    0.9557    6.1411   H         1 RES1   0.0000
   228 H121      1.2784    0.8577    8.6434   H         1 RES1   0.0000
   229 H122      0.3513    2.3516    8.6827   H         1 RES1   0.0000
   230 H123      2.2407    3.5927    7.7253   H         1 RES1   0.0000
   231 H124      3.1166    2.0863    7.4260   H         1 RES1   0.0000
   232 H125      3.9935    3.1788    9.4023   H         1 RES1   0.0000
   233 H126      3.2241    1.6630    9.8673   H         1 RES1   0.0000
   234 H127      1.9235    4.4189   10.1248   H         1 RES1   0.0000
   235 H128      2.7148    3.5413   11.4297   H         1 RES1   0.0000
   236 H129      1.2476    2.8959   10.7123   H         1 RES1   0.0000
   237 H130     -1.3418    0.9666    7.7392   H         1 RES1   0.0000
   238 H131     -0.2642   -0.3905    7.5009   H         1 RES1   0.0000
   239 H132     -0.9174   -0.5074    5.1169   H         1 RES1   0.0000
   240 H133     -1.9291    0.9348    5.3422   H         1 RES1   0.0000
   241 H134     -3.5277   -0.6861    5.5430   H         1 RES1   0.0000
   242 H135     -3.0895   -0.4607    7.2276   H         1 RES1   0.0000
   243 H136     -1.9438   -2.6583    5.4667   H         1 RES1   0.0000
   244 H137     -3.4328   -2.8292    6.3910   H         1 RES1   0.0000
   245 H138     -2.1513   -2.4594    8.4968   H         1 RES1   0.0000
   246 H139     -0.6542   -2.4493    7.5654   H         1 RES1   0.0000
   247 H140     -2.6575   -4.7553    7.6840   H         1 RES1   0.0000
   248 H141     -1.0815   -4.7086    8.4661   H         1 RES1   0.0000
   249 H142     -1.1894   -4.7499    6.7084   H         1 RES1   0.0000
   250 H143      2.2814    1.1319    3.1931   H         1 RES1   0.0000
   251 H144      3.1361    1.1669    1.6253   H         1 RES1   0.0000
   252 H145      1.8337   -2.1294    1.9363   H         1 RES1   0.0000
   253 H146      3.2649   -1.1225    2.2719   H         1 RES1   0.0000
   254 H147      4.7678   -4.0290    0.0617   H         1 RES1   0.0000
   255 H148      3.4331   -3.7584    1.1867   H         1 RES1   0.0000
   256 H149      5.3458   -3.5811    2.4956   H         1 RES1   0.0000
   257 H150      4.9663   -1.8925    2.2101   H         1 RES1   0.0000
   258 H151      7.2598   -2.0531    2.0145   H         1 RES1   0.0000
   259 H152      6.6957   -1.8874    0.3605   H         1 RES1   0.0000
   260 H153      7.1612   -4.6561    1.4853   H         1 RES1   0.0000
   261 H154      8.5654   -3.6729    1.1103   H         1 RES1   0.0000
   262 H155      6.4321   -4.3514   -0.9564   H         1 RES1   0.0000
   263 H156      7.9171   -5.2436   -0.6992   H         1 RES1   0.0000
   264 H157      9.2631   -3.2638   -1.2305   H         1 RES1   0.0000
   265 H158      7.8153   -2.2913   -1.4557   H         1 RES1   0.0000
   266 H159      7.0952   -3.7969   -3.3145   H         1 RES1   0.0000
   267 H160      8.5606   -4.7489   -3.0919   H         1 RES1   0.0000
   268 H161      8.4950   -1.7885   -3.8530   H         1 RES1   0.0000
   269 H162      8.8511   -3.1321   -4.9415   H         1 RES1   0.0000
   270 H163      9.9518   -2.7526   -3.6208   H         1 RES1   0.0000
   271 H164      3.0770   -2.2146   -2.2007   H         1 RES1   0.0000
   272 H165      4.4757   -3.2863   -1.8922   H         1 RES1   0.0000
   273 H166      5.2626   -1.4177   -3.1583   H         1 RES1   0.0000
   274 H167      5.8847   -1.2494   -1.5282   H         1 RES1   0.0000
   275 H168      4.0928    0.4201   -1.0248   H         1 RES1   0.0000
   276 H169      3.4274    0.1703   -2.6355   H         1 RES1   0.0000
   277 H170      5.5600    1.1439   -3.5823   H         1 RES1   0.0000
   278 H171      7.0529    0.4812   -1.7737   H         1 RES1   0.0000
   279 H172      6.1421    1.4317   -0.6011   H         1 RES1   0.0000
   280 H173      6.9858    3.5034   -1.6027   H         1 RES1   0.0000
   281 H174      7.7563    2.5912   -2.9084   H         1 RES1   0.0000
   282 H175      9.1929    1.4397   -1.2365   H         1 RES1   0.0000
   283 H176      8.3850    2.3059    0.0659   H         1 RES1   0.0000
   284 H177     10.0214    3.5916   -2.1711   H         1 RES1   0.0000
   285 H178     10.5336    3.3884   -0.4952   H         1 RES1   0.0000
   286 H179      9.1983    4.4745   -0.8835   H         1 RES1   0.0000
   287 H180      4.3942    2.9902   -1.4906   H         1 RES1   0.0000
   288 H181      3.3703    2.3739   -2.7711   H         1 RES1   0.0000
   289 H182      4.9395    3.2927   -4.4695   H         1 RES1   0.0000
   290 H183      5.8239    4.1190   -3.2035   H         1 RES1   0.0000
   291 H184      2.8398    4.5335   -3.5488   H         1 RES1   0.0000
   292 H185      4.0253    5.4144   -4.5105   H         1 RES1   0.0000
   293 H186      3.3732    6.8133   -2.7200   H         1 RES1   0.0000
   294 H187      5.0538    6.3511   -2.4864   H         1 RES1   0.0000
   295 H188      4.4527    4.8319   -0.6848   H         1 RES1   0.0000
   296 H189      2.7315    4.9951   -1.0452   H         1 RES1   0.0000
   297 H190      4.5875    7.2292   -0.0759   H         1 RES1   0.0000
   298 H191      3.4232    6.3694    0.9293   H         1 RES1   0.0000
   299 H192      2.8669    7.4166   -0.3833   H         1 RES1   0.0000
   300 O7       -1.1331    0.8016    2.2221   O.3       1 RES1   0.0000
   301 H193     -1.7755    1.5064    2.4052   H         1 RES1   0.0000
   302 H194     -1.2721    0.1513    2.9256   H         1 RES1   0.0000
   303 O8       -0.0750   -2.2173   -1.2696   O.3       1 RES1   0.0000
   304 H195      0.0364   -2.1905   -2.2373   H         1 RES1   0.0000
   305 H196     -0.4312   -3.0911   -1.0683   H         1 RES1   0.0000
@<TRIPOS>BOND
     1     1    26    1
     2     1    28    1
     3     1    31    1
     4     1   175    1
     5     1   177    1
     6     1   180    1
     7     1   300    1
     8     1   303    1
     9     2     3    1
    10     2    55    1
    11     2    56    1
    12     2    57    1
    13     3     4    1
    14     3    58    1
    15     3    59    1
    16     4     5    1
    17     4    60    1
    18     4    61    1
    19     5     6    1
    20     5    62    1
    21     5    63    1
    22     6     7    1
    23     6    64    1
    24     6    65    1
    25     7     8    1
    26     7    66    1
    27     7    67    1
    28     8     9    1
    29     8    68    1
    30     8    69    1
    31     9    10    1
    32     9    70    1
    33     9    71    1
    34    10    11    1
    35    10    25    1
    36    11    12    1
    37    11    72    1
    38    11    73    1
    39    12    13    1
    40    12    74    1
    41    12    75    1
    42    13    14    1
    43    13    76    1
    44    13    77    1
    45    14    15    1
    46    14    19    1
    47    14    78    1
    48    15    16    1
    49    15    79    1
    50    15    80    1
    51    16    17    1
    52    16    81    1
    53    16    82    1
    54    17    18    1
    55    17    83    1
    56    17    84    1
    57    18    85    1
    58    18    86    1
    59    18    87    1
    60    19    20    1
    61    19    88    1
    62    19    89    1
    63    20    21    1
    64    20    90    1
    65    20    91    1
    66    21    22    1
    67    21    92    1
    68    21    93    1
    69    22    23    1
    70    22    94    1
    71    22    95    1
    72    23    24    1
    73    23    96    1
    74    23    97    1
    75    24    98    1
    76    24    99    1
    77    24   100    1
    78    25    26    2
    79    25    27    1
    80    27    28    1
    81    27   101    1
    82    27   102    1
    83    28    29    1
    84    29    30    1
    85    29   103    1
    86    29   104    1
    87    30    31    2
    88    30    32    1
    89    32    33    1
    90    32    41    1
    91    33    34    1
    92    33   105    1
    93    33   106    1
    94    34    35    1
    95    34   107    1
    96    34   108    1
    97    35    36    1
    98    35   109    1
    99    35   110    1
   100    36    37    1
   101    36   111    1
   102    36   112    1
   103    37    38    1
   104    37   113    1
   105    37   114    1
   106    38    39    1
   107    38   115    1
   108    38   116    1
   109    39    40    1
   110    39   117    1
   111    39   118    1
   112    40   119    1
   113    40   120    1
   114    40   121    1
   115    41    42    1
   116    41   122    1
   117    41   123    1
   118    42    43    1
   119    42   124    1
   120    42   125    1
   121    43    44    1
   122    43   126    1
   123    43   127    1
   124    44    45    1
   125    44    49    1
   126    44   128    1
   127    45    46    1
   128    45   129    1
   129    45   130    1
   130    46    47    1
   131    46   131    1
   132    46   132    1
   133    47    48    1
   134    47   133    1
   135    47   134    1
   136    48   135    1
   137    48   136    1
   138    48   137    1
   139    49    50    1
   140    49   138    1
   141    49   139    1
   142    50    51    1
   143    50   140    1
   144    50   141    1
   145    51    52    1
   146    51   142    1
   147    51   143    1
   148    52    53    1
   149    52   144    1
   150    52   145    1
   151    53    54    1
   152    53   146    1
   153    53   147    1
   154    54   148    1
   155    54   149    1
   156    54   150    1
   157   151   152    1
   158   151   204    1
   159   151   205    1
   160   151   206    1
   161   152   153    1
   162   152   207    1
   163   152   208    1
   164   153   154    1
   165   153   209    1
   166   153   210    1
   167   154   155    1
   168   154   211    1
   169   154   212    1
   170   155   156    1
   171   155   213    1
   172   155   214    1
   173   156   157    1
   174   156   215    1
   175   156   216    1
   176   157   158    1
   177   157   217    1
   178   157   218    1
   179   158   159    1
   180   158   219    1
   181   158   220    1
   182   159   160    1
   183   159   174    1
   184   160   161    1
   185   160   221    1
   186   160   222    1
   187   161   162    1
   188   161   223    1
   189   161   224    1
   190   162   163    1
   191   162   225    1
   192   162   226    1
   193   163   164    1
   194   163   168    1
   195   163   227    1
   196   164   165    1
   197   164   228    1
   198   164   229    1
   199   165   166    1
   200   165   230    1
   201   165   231    1
   202   166   167    1
   203   166   232    1
   204   166   233    1
   205   167   234    1
   206   167   235    1
   207   167   236    1
   208   168   169    1
   209   168   237    1
   210   168   238    1
   211   169   170    1
   212   169   239    1
   213   169   240    1
   214   170   171    1
   215   170   241    1
   216   170   242    1
   217   171   172    1
   218   171   243    1
   219   171   244    1
   220   172   173    1
   221   172   245    1
   222   172   246    1
   223   173   247    1
   224   173   248    1
   225   173   249    1
   226   174   175    2
   227   174   176    1
   228   176   177    1
   229   176   250    1
   230   176   251    1
   231   177   178    1
   232   178   179    1
   233   178   252    1
   234   178   253    1
   235   179   180    2
   236   179   181    1
   237   181   182    1
   238   181   190    1
   239   182   183    1
   240   182   254    1
   241   182   255    1
   242   183   184    1
   243   183   256    1
   244   183   257    1
   245   184   185    1
   246   184   258    1
   247   184   259    1
   248   185   186    1
   249   185   260    1
   250   185   261    1
   251   186   187    1
   252   186   262    1
   253   186   263    1
   254   187   188    1
   255   187   264    1
   256   187   265    1
   257   188   189    1
   258   188   266    1
   259   188   267    1
   260   189   268    1
   261   189   269    1
   262   189   270    1
   263   190   191    1
   264   190   271    1
   265   190   272    1
   266   191   192    1
   267   191   273    1
   268   191   274    1
   269   192   193    1
   270   192   275    1
   271   192   276    1
   272   193   194    1
   273   193   198    1
   274   193   277    1
   275   194   195    1
   276   194   278    1
   277   194   279    1
   278   195   196    1
   279   195   280    1
   280   195   281    1
   281   196   197    1
   282   196   282    1
   283   196   283    1
   284   197   284    1
   285   197   285    1
   286   197   286    1
   287   198   199    1
   288   198   287    1
   289   198   288    1
   290   199   200    1
   291   199   289    1
   292   199   290    1
   293   200   201    1
   294   200   291    1
   295   200   292    1
   296   201   202    1
   297   201   293    1
   298   201   294    1
   299   202   203    1
   300   202   295    1
   301   202   296    1
   302   203   297    1
   303   203   298    1
   304   203   299    1
   305   300   301    1
   306   300   302    1
   307   303   304    1
   308   303   305    1
@<TRIPOS>SUBSTRUCTURE
     1 RES1      305 GROUP             0 ****  ****    0  
