@<TRIPOS>MOLECULE
ICIGOT_geomtry_0_nunpairedes_0_charge_2 Charge: 2 Unpaired_Electrons: 6 XTB_Unpaired_Electrons: 0 XTB_Charge: 2
   135   139     1     0     0
SMALL
NoCharges
****
Generated from Architector

@<TRIPOS>ATOM
     1 Tb1      -0.2752   -0.2588   -0.1271   Tb        1 RES1   0.0000
     2 C1       -7.0827    0.9529   -0.8221   C.3       1 RES1   0.0000
     3 C2       -5.8544    1.4828   -0.0867   C.3       1 RES1   0.0000
     4 C3       -6.0751    1.4826    1.4250   C.3       1 RES1   0.0000
     5 C4       -4.8234    1.8306    2.2349   C.3       1 RES1   0.0000
     6 N1       -3.7455    0.8637    2.0780   N.am      1 RES1   0.0000
     7 C5       -3.8759   -0.4224    2.7691   C.3       1 RES1   0.0000
     8 C6       -3.8804   -1.6679    1.8752   C.3       1 RES1   0.0000
     9 C7       -5.1582   -1.9336    1.0861   C.3       1 RES1   0.0000
    10 C8       -5.1154   -3.3231    0.4609   C.3       1 RES1   0.0000
    11 C9       -2.6027    1.0999    1.4625   C.2       1 RES1   0.0000
    12 O1       -1.6725    0.2586    1.4647   O.2       1 RES1   0.0000
    13 C10      -2.3400    2.4282    0.7301   C.3       1 RES1   0.0000
    14 O2       -1.2043    2.2480   -0.1148   O.3       1 RES1   0.0000
    15 C11      -0.1867    3.2409   -0.0643   C.3       1 RES1   0.0000
    16 C12       0.9292    2.7348    0.8628   C.2       1 RES1   0.0000
    17 O3        0.9781    1.5033    1.0462   O.2       1 RES1   0.0000
    18 N2        1.7668    3.6050    1.4067   N.am      1 RES1   0.0000
    19 C13       2.7594    3.2181    2.4062   C.3       1 RES1   0.0000
    20 C14       4.1773    3.0771    1.8445   C.3       1 RES1   0.0000
    21 C15       5.1822    2.7407    2.9492   C.3       1 RES1   0.0000
    22 C16       6.5619    2.4287    2.3829   C.3       1 RES1   0.0000
    23 C17       1.7856    4.9988    0.9940   C.3       1 RES1   0.0000
    24 C18       0.8317    5.9131    1.7709   C.3       1 RES1   0.0000
    25 C19       0.7967    7.3122    1.1467   C.3       1 RES1   0.0000
    26 C20       0.1875    7.3460   -0.2511   C.3       1 RES1   0.0000
    27 H1       -6.9146    0.9660   -1.8960   H         1 RES1   0.0000
    28 H2       -7.9497    1.5722   -0.6058   H         1 RES1   0.0000
    29 H3       -7.3095   -0.0675   -0.5182   H         1 RES1   0.0000
    30 H4       -5.6523    2.5040   -0.4197   H         1 RES1   0.0000
    31 H5       -4.9846    0.8672   -0.3387   H         1 RES1   0.0000
    32 H6       -6.4547    0.5101    1.7367   H         1 RES1   0.0000
    33 H7       -6.8424    2.2188    1.6659   H         1 RES1   0.0000
    34 H8       -5.0965    1.8606    3.2938   H         1 RES1   0.0000
    35 H9       -4.4520    2.8163    1.9575   H         1 RES1   0.0000
    36 H10      -4.7931   -0.3832    3.3542   H         1 RES1   0.0000
    37 H11      -3.0207   -0.5188    3.4472   H         1 RES1   0.0000
    38 H12      -3.7362   -2.5088    2.5533   H         1 RES1   0.0000
    39 H13      -3.0272   -1.6488    1.1861   H         1 RES1   0.0000
    40 H14      -5.2764   -1.1991    0.2928   H         1 RES1   0.0000
    41 H15      -6.0176   -1.8705    1.7563   H         1 RES1   0.0000
    42 H16      -4.2305   -3.4320   -0.1611   H         1 RES1   0.0000
    43 H17      -5.9903   -3.4865   -0.1606   H         1 RES1   0.0000
    44 H18      -5.1000   -4.0911    1.2304   H         1 RES1   0.0000
    45 H19      -2.1707    3.2213    1.4651   H         1 RES1   0.0000
    46 H20      -3.1916    2.6942    0.0962   H         1 RES1   0.0000
    47 H21      -0.5853    4.2041    0.2568   H         1 RES1   0.0000
    48 H22       0.1958    3.3240   -1.0920   H         1 RES1   0.0000
    49 H23       2.4449    2.2730    2.8517   H         1 RES1   0.0000
    50 H24       2.7588    3.9913    3.1779   H         1 RES1   0.0000
    51 H25       4.4921    3.9989    1.3520   H         1 RES1   0.0000
    52 H26       4.1885    2.2843    1.0934   H         1 RES1   0.0000
    53 H27       4.8154    1.8814    3.5126   H         1 RES1   0.0000
    54 H28       5.2576    3.5783    3.6435   H         1 RES1   0.0000
    55 H29       6.5262    1.5464    1.7488   H         1 RES1   0.0000
    56 H30       7.2630    2.2349    3.1881   H         1 RES1   0.0000
    57 H31       6.9427    3.2638    1.8008   H         1 RES1   0.0000
    58 H32       1.5708    5.0489   -0.0748   H         1 RES1   0.0000
    59 H33       2.8023    5.3601    1.1444   H         1 RES1   0.0000
    60 H34       1.1679    5.9954    2.8055   H         1 RES1   0.0000
    61 H35      -0.1797    5.5000    1.7916   H         1 RES1   0.0000
    62 H36       1.8094    7.7163    1.1073   H         1 RES1   0.0000
    63 H37       0.2131    7.9587    1.8022   H         1 RES1   0.0000
    64 H38       0.8082    6.8303   -0.9798   H         1 RES1   0.0000
    65 H39       0.0888    8.3751   -0.5811   H         1 RES1   0.0000
    66 H40      -0.8041    6.8998   -0.2558   H         1 RES1   0.0000
    67 C21       2.0500   -3.5440    6.2220   C.3       1 RES1   0.0000
    68 C22       2.2510   -3.4103    4.7151   C.3       1 RES1   0.0000
    69 C23       2.1196   -4.7742    4.0407   C.3       1 RES1   0.0000
    70 C24       2.1512   -4.7140    2.5121   C.3       1 RES1   0.0000
    71 N3        1.0406   -3.9672    1.9425   N.am      1 RES1   0.0000
    72 C25      -0.2845   -4.5916    1.9193   C.3       1 RES1   0.0000
    73 C26      -1.3542   -3.8881    2.7627   C.3       1 RES1   0.0000
    74 C27      -1.3139   -4.1606    4.2643   C.3       1 RES1   0.0000
    75 C28      -2.5731   -3.6616    4.9631   C.3       1 RES1   0.0000
    76 C29       1.1466   -2.8016    1.3288   C.2       1 RES1   0.0000
    77 O4        0.1592   -2.2414    0.8093   O.2       1 RES1   0.0000
    78 C30       2.4998   -2.0861    1.2109   C.3       1 RES1   0.0000
    79 O5        2.2453   -0.7738    0.7135   O.3       1 RES1   0.0000
    80 C31       3.1645   -0.2631   -0.2419   C.3       1 RES1   0.0000
    81 C32       2.5303   -0.3593   -1.6400   C.2       1 RES1   0.0000
    82 O6        1.3242   -0.6752   -1.6823   O.2       1 RES1   0.0000
    83 N4        3.2552   -0.0700   -2.7059   N.am      1 RES1   0.0000
    84 C33       2.6546   -0.0970   -4.0357   C.3       1 RES1   0.0000
    85 C34       2.1551    1.2809   -4.4779   C.3       1 RES1   0.0000
    86 C35       1.5561    1.2152   -5.8843   C.3       1 RES1   0.0000
    87 C36       1.0792    2.5812   -6.3591   C.3       1 RES1   0.0000
    88 C37       4.6520    0.3190   -2.6149   C.3       1 RES1   0.0000
    89 C38       5.5920   -0.8882   -2.4985   C.3       1 RES1   0.0000
    90 C39       7.0490   -0.4803   -2.2566   C.3       1 RES1   0.0000
    91 C40       7.2747    0.2202   -0.9207   C.3       1 RES1   0.0000
    92 H41       2.1390   -2.5787    6.7129   H         1 RES1   0.0000
    93 H42       2.7944   -4.2150    6.6424   H         1 RES1   0.0000
    94 H43       1.0668   -3.9524    6.4468   H         1 RES1   0.0000
    95 H44       3.2442   -2.9977    4.5173   H         1 RES1   0.0000
    96 H45       1.5099   -2.7187    4.3017   H         1 RES1   0.0000
    97 H46       1.1974   -5.2514    4.3707   H         1 RES1   0.0000
    98 H47       2.9424   -5.4112    4.3657   H         1 RES1   0.0000
    99 H48       2.1007   -5.7364    2.1303   H         1 RES1   0.0000
   100 H49       3.0872   -4.2730    2.1716   H         1 RES1   0.0000
   101 H50      -0.1717   -5.6284    2.2318   H         1 RES1   0.0000
   102 H51      -0.6321   -4.5586    0.8820   H         1 RES1   0.0000
   103 H52      -2.3126   -4.2405    2.3789   H         1 RES1   0.0000
   104 H53      -1.3005   -2.8123    2.5803   H         1 RES1   0.0000
   105 H54      -0.4559   -3.6654    4.7129   H         1 RES1   0.0000
   106 H55      -1.2261   -5.2349    4.4305   H         1 RES1   0.0000
   107 H56      -2.6930   -2.5893    4.8305   H         1 RES1   0.0000
   108 H57      -2.5178   -3.8641    6.0286   H         1 RES1   0.0000
   109 H58      -3.4548   -4.1618    4.5733   H         1 RES1   0.0000
   110 H59       3.1457   -2.6453    0.5254   H         1 RES1   0.0000
   111 H60       2.9703   -2.0029    2.1973   H         1 RES1   0.0000
   112 H61       4.1308   -0.7649   -0.1714   H         1 RES1   0.0000
   113 H62       3.2982    0.8016   -0.0066   H         1 RES1   0.0000
   114 H63       1.8147   -0.7930   -4.0162   H         1 RES1   0.0000
   115 H64       3.4094   -0.4589   -4.7358   H         1 RES1   0.0000
   116 H65       2.9753    2.0026   -4.4725   H         1 RES1   0.0000
   117 H66       1.3959    1.6316   -3.7740   H         1 RES1   0.0000
   118 H67       0.7197    0.5153   -5.8822   H         1 RES1   0.0000
   119 H68       2.3072    0.8335   -6.5776   H         1 RES1   0.0000
   120 H69       0.3146    2.9727   -5.6933   H         1 RES1   0.0000
   121 H70       0.6536    2.5027   -7.3541   H         1 RES1   0.0000
   122 H71       1.9052    3.2868   -6.4008   H         1 RES1   0.0000
   123 H72       4.7842    0.9937   -1.7674   H         1 RES1   0.0000
   124 H73       4.8971    0.8751   -3.5195   H         1 RES1   0.0000
   125 H74       5.5380   -1.4672   -3.4212   H         1 RES1   0.0000
   126 H75       5.2694   -1.5432   -1.6854   H         1 RES1   0.0000
   127 H76       7.3903    0.1657   -3.0667   H         1 RES1   0.0000
   128 H77       7.6565   -1.3863   -2.2846   H         1 RES1   0.0000
   129 H78       6.7887    1.1924   -0.8911   H         1 RES1   0.0000
   130 H79       8.3369    0.3813   -0.7623   H         1 RES1   0.0000
   131 H80       6.9037   -0.3888   -0.0985   H         1 RES1   0.0000
   132 N5       -1.9585   -0.5565   -1.9857   N.3       1 RES1   0.0000
   133 O7       -2.7510   -0.6935   -2.8564   O.2       1 RES1   0.0000
   134 O8       -1.9005   -1.3385   -1.0149   O.co2     1 RES1   0.0000
   135 O9       -1.1414    0.3878   -1.9788   O.co2     1 RES1   0.0000
@<TRIPOS>BOND
     1     1    12    1
     2     1    14    1
     3     1    17    1
     4     1    77    1
     5     1    79    1
     6     1    82    1
     7     1   134    1
     8     1   135    1
     9     2     3    1
    10     2    27    1
    11     2    28    1
    12     2    29    1
    13     3     4    1
    14     3    30    1
    15     3    31    1
    16     4     5    1
    17     4    32    1
    18     4    33    1
    19     5     6    1
    20     5    34    1
    21     5    35    1
    22     6     7    1
    23     6    11    1
    24     7     8    1
    25     7    36    1
    26     7    37    1
    27     8     9    1
    28     8    38    1
    29     8    39    1
    30     9    10    1
    31     9    40    1
    32     9    41    1
    33    10    42    1
    34    10    43    1
    35    10    44    1
    36    11    12    2
    37    11    13    1
    38    13    14    1
    39    13    45    1
    40    13    46    1
    41    14    15    1
    42    15    16    1
    43    15    47    1
    44    15    48    1
    45    16    17    2
    46    16    18    1
    47    18    19    1
    48    18    23    1
    49    19    20    1
    50    19    49    1
    51    19    50    1
    52    20    21    1
    53    20    51    1
    54    20    52    1
    55    21    22    1
    56    21    53    1
    57    21    54    1
    58    22    55    1
    59    22    56    1
    60    22    57    1
    61    23    24    1
    62    23    58    1
    63    23    59    1
    64    24    25    1
    65    24    60    1
    66    24    61    1
    67    25    26    1
    68    25    62    1
    69    25    63    1
    70    26    64    1
    71    26    65    1
    72    26    66    1
    73    67    68    1
    74    67    92    1
    75    67    93    1
    76    67    94    1
    77    68    69    1
    78    68    95    1
    79    68    96    1
    80    69    70    1
    81    69    97    1
    82    69    98    1
    83    70    71    1
    84    70    99    1
    85    70   100    1
    86    71    72    1
    87    71    76    1
    88    72    73    1
    89    72   101    1
    90    72   102    1
    91    73    74    1
    92    73   103    1
    93    73   104    1
    94    74    75    1
    95    74   105    1
    96    74   106    1
    97    75   107    1
    98    75   108    1
    99    75   109    1
   100    76    77    2
   101    76    78    1
   102    78    79    1
   103    78   110    1
   104    78   111    1
   105    79    80    1
   106    80    81    1
   107    80   112    1
   108    80   113    1
   109    81    82    2
   110    81    83    1
   111    83    84    1
   112    83    88    1
   113    84    85    1
   114    84   114    1
   115    84   115    1
   116    85    86    1
   117    85   116    1
   118    85   117    1
   119    86    87    1
   120    86   118    1
   121    86   119    1
   122    87   120    1
   123    87   121    1
   124    87   122    1
   125    88    89    1
   126    88   123    1
   127    88   124    1
   128    89    90    1
   129    89   125    1
   130    89   126    1
   131    90    91    1
   132    90   127    1
   133    90   128    1
   134    91   129    1
   135    91   130    1
   136    91   131    1
   137   132   133    2
   138   132   134    1
   139   132   135    1
@<TRIPOS>SUBSTRUCTURE
     1 RES1      135 GROUP             0 ****  ****    0  
