@<TRIPOS>MOLECULE
YEMSEP_geometry_0_nunpairedes_0_charge_2 Charge: 2 Unpaired_Electrons: 6 XTB_Unpaired_Electrons: 0 XTB_Charge: 2
   119   129     1     0     0
SMALL
NoCharges
****
Generated from Architector

@<TRIPOS>ATOM
     1 Tb1      -0.1241   -0.0960    0.1483   Tb        1 RES1   0.0000
     2 C1       -1.2553    1.2359    4.5152   C.3       1 RES1   0.0000
     3 C2        0.0079    0.4752    4.8981   C.3       1 RES1   0.0000
     4 N1        1.1937    0.9169    4.1448   N.am      1 RES1   0.0000
     5 C3        1.2936    0.5167    2.8872   C.2       1 RES1   0.0000
     6 O1        0.3783   -0.1442    2.3470   O.2       1 RES1   0.0000
     7 C4        2.5127    0.7612    2.0244   C.ar      1 RES1   0.0000
     8 C5        3.8409    0.8609    2.4313   C.ar      1 RES1   0.0000
     9 C6        4.8176    0.9316    1.4510   C.ar      1 RES1   0.0000
    10 C7        4.4699    0.9374    0.1090   C.ar      1 RES1   0.0000
    11 C8        3.1213    0.8499   -0.2229   C.ar      1 RES1   0.0000
    12 C9        2.5062    0.7838   -1.6010   C.2       1 RES1   0.0000
    13 O2        1.3188    0.4074   -1.6485   O.2       1 RES1   0.0000
    14 N2        3.1869    1.0514   -2.7160   N.am      1 RES1   0.0000
    15 C10       2.5735    0.7433   -4.0133   C.3       1 RES1   0.0000
    16 C11       2.1932    2.0080   -4.7730   C.3       1 RES1   0.0000
    17 C12       4.4105    1.7740   -2.7668   C.ar      1 RES1   0.0000
    18 C13       5.4641    1.2039   -3.4733   C.ar      1 RES1   0.0000
    19 C14       6.6515    1.8877   -3.6268   C.ar      1 RES1   0.0000
    20 C15       6.8014    3.1361   -3.0484   C.ar      1 RES1   0.0000
    21 C16       5.7488    3.6973   -2.3491   C.ar      1 RES1   0.0000
    22 C17       4.5245    3.0507   -2.2084   C.ar      1 RES1   0.0000
    23 C18       3.3905    3.7423   -1.5076   C.3       1 RES1   0.0000
    24 N3        2.1895    0.7180    0.7289   N.ar      1 RES1   0.0000
    25 C19       2.1587    1.7662    4.7591   C.ar      1 RES1   0.0000
    26 C20       2.4632    2.9937    4.1717   C.ar      1 RES1   0.0000
    27 C21       3.4272    3.8057    4.7386   C.ar      1 RES1   0.0000
    28 C22       4.0787    3.4094    5.8971   C.ar      1 RES1   0.0000
    29 C23       3.7600    2.1984    6.4778   C.ar      1 RES1   0.0000
    30 C24       2.8140    1.3467    5.9167   C.ar      1 RES1   0.0000
    31 C25       2.5784    0.0229    6.5754   C.3       1 RES1   0.0000
    32 H1       -2.0975    0.8738    5.1004   H         1 RES1   0.0000
    33 H2       -1.5047    1.0953    3.4644   H         1 RES1   0.0000
    34 H3       -1.1221    2.2929    4.7227   H         1 RES1   0.0000
    35 H4       -0.1443   -0.5950    4.7157   H         1 RES1   0.0000
    36 H5        0.2131    0.6360    5.9543   H         1 RES1   0.0000
    37 H6        4.1076    0.8698    3.4741   H         1 RES1   0.0000
    38 H7        5.8568    0.9784    1.7313   H         1 RES1   0.0000
    39 H8        5.2364    1.0066   -0.6419   H         1 RES1   0.0000
    40 H9        1.6964    0.1218   -3.8175   H         1 RES1   0.0000
    41 H10       3.2828    0.1643   -4.6073   H         1 RES1   0.0000
    42 H11       1.4633    2.5691   -4.1987   H         1 RES1   0.0000
    43 H12       1.7616    1.7656   -5.7415   H         1 RES1   0.0000
    44 H13       3.0656    2.6345   -4.9427   H         1 RES1   0.0000
    45 H14       5.3477    0.2144   -3.8875   H         1 RES1   0.0000
    46 H15       7.4578    1.4498   -4.1855   H         1 RES1   0.0000
    47 H16       7.7308    3.6746   -3.1456   H         1 RES1   0.0000
    48 H17       5.8711    4.6687   -1.9000   H         1 RES1   0.0000
    49 H18       3.2489    4.7398   -1.9208   H         1 RES1   0.0000
    50 H19       3.5867    3.8643   -0.4419   H         1 RES1   0.0000
    51 H20       2.4586    3.1914   -1.6107   H         1 RES1   0.0000
    52 H21       1.9464    3.3036    3.2736   H         1 RES1   0.0000
    53 H22       3.6702    4.7526    4.2897   H         1 RES1   0.0000
    54 H23       4.8330    4.0367    6.3481   H         1 RES1   0.0000
    55 H24       4.2428    1.8812    7.3889   H         1 RES1   0.0000
    56 H25       3.5298   -0.4404    6.8284   H         1 RES1   0.0000
    57 H26       2.0266   -0.6647    5.9444   H         1 RES1   0.0000
    58 H27       2.0393    0.1692    7.5119   H         1 RES1   0.0000
    59 C26      -2.3477    6.0047   -1.3090   C.3       1 RES1   0.0000
    60 C27      -2.5734    4.8470   -0.3394   C.3       1 RES1   0.0000
    61 N4       -1.3757    4.0443   -0.1666   N.am      1 RES1   0.0000
    62 C28      -1.1289    2.7900   -0.5285   C.2       1 RES1   0.0000
    63 O3       -0.1529    2.1937   -0.0175   O.2       1 RES1   0.0000
    64 C29      -1.9034    2.0406   -1.5932   C.ar      1 RES1   0.0000
    65 C30      -2.7342    2.5573   -2.5875   C.ar      1 RES1   0.0000
    66 C31      -3.2309    1.6758   -3.5378   C.ar      1 RES1   0.0000
    67 C32      -2.8580    0.3387   -3.5259   C.ar      1 RES1   0.0000
    68 C33      -2.0158   -0.1087   -2.5081   C.ar      1 RES1   0.0000
    69 C34      -1.3507   -1.4689   -2.3531   C.2       1 RES1   0.0000
    70 O4       -0.3659   -1.5232   -1.5852   O.2       1 RES1   0.0000
    71 N5       -1.6979   -2.5569   -3.0289   N.am      1 RES1   0.0000
    72 C35      -2.9230   -2.8554   -3.7498   C.3       1 RES1   0.0000
    73 C36      -2.7377   -2.8123   -5.2660   C.3       1 RES1   0.0000
    74 C37      -0.7611   -3.6567   -2.9808   C.ar      1 RES1   0.0000
    75 C38       0.1122   -3.7787   -4.0521   C.ar      1 RES1   0.0000
    76 C39       0.9576   -4.8699   -4.1319   C.ar      1 RES1   0.0000
    77 C40       0.9628   -5.8029   -3.1082   C.ar      1 RES1   0.0000
    78 C41       0.1354   -5.6371   -2.0105   C.ar      1 RES1   0.0000
    79 C42      -0.7563   -4.5709   -1.9293   C.ar      1 RES1   0.0000
    80 C43      -1.6677   -4.4309   -0.7501   C.3       1 RES1   0.0000
    81 N6       -1.5830    0.7445   -1.5787   N.ar      1 RES1   0.0000
    82 C44      -0.3431    4.7170    0.5794   C.ar      1 RES1   0.0000
    83 C45       0.6767    5.3086   -0.1524   C.ar      1 RES1   0.0000
    84 C46       1.6411    6.0636    0.4897   C.ar      1 RES1   0.0000
    85 C47       1.5962    6.1928    1.8687   C.ar      1 RES1   0.0000
    86 C48       0.5929    5.5740    2.5961   C.ar      1 RES1   0.0000
    87 C49      -0.4046    4.8345    1.9656   C.ar      1 RES1   0.0000
    88 C50      -1.5082    4.2112    2.7639   C.3       1 RES1   0.0000
    89 H28      -3.2745    6.5545   -1.4530   H         1 RES1   0.0000
    90 H29      -1.9876    5.6515   -2.2737   H         1 RES1   0.0000
    91 H30      -1.6142    6.6927   -0.8928   H         1 RES1   0.0000
    92 H31      -3.3963    4.1987   -0.6368   H         1 RES1   0.0000
    93 H32      -2.8184    5.2738    0.6390   H         1 RES1   0.0000
    94 H33      -2.9900    3.6021   -2.6417   H         1 RES1   0.0000
    95 H34      -3.9169    2.0293   -4.2924   H         1 RES1   0.0000
    96 H35      -3.2122   -0.3137   -4.3030   H         1 RES1   0.0000
    97 H36      -3.7104   -2.1764   -3.4203   H         1 RES1   0.0000
    98 H37      -3.2122   -3.8743   -3.4686   H         1 RES1   0.0000
    99 H38      -2.2639   -1.8837   -5.5804   H         1 RES1   0.0000
   100 H39      -3.7025   -2.9046   -5.7583   H         1 RES1   0.0000
   101 H40      -2.1180   -3.6451   -5.5882   H         1 RES1   0.0000
   102 H41       0.1196   -3.0219   -4.8238   H         1 RES1   0.0000
   103 H42       1.5958   -4.9940   -4.9930   H         1 RES1   0.0000
   104 H43       1.6086   -6.6650   -3.1719   H         1 RES1   0.0000
   105 H44       0.1667   -6.3598   -1.2057   H         1 RES1   0.0000
   106 H45      -1.5324   -5.2579   -0.0585   H         1 RES1   0.0000
   107 H46      -2.7128   -4.4082   -1.0542   H         1 RES1   0.0000
   108 H47      -1.4504   -3.5100   -0.2106   H         1 RES1   0.0000
   109 H48       0.6858    5.1907   -1.2261   H         1 RES1   0.0000
   110 H49       2.4097    6.5619   -0.0812   H         1 RES1   0.0000
   111 H50       2.3384    6.7909    2.3754   H         1 RES1   0.0000
   112 H51       0.5663    5.6805    3.6734   H         1 RES1   0.0000
   113 H52      -1.2744    4.2488    3.8249   H         1 RES1   0.0000
   114 H53      -1.6741    3.1766    2.4636   H         1 RES1   0.0000
   115 H54      -2.4456    4.7509    2.6292   H         1 RES1   0.0000
   116 N7       -1.9914   -1.0583    1.4543   N.3       1 RES1   0.0000
   117 O5       -2.7409   -1.4282    2.2939   O.2       1 RES1   0.0000
   118 O6       -1.1276   -1.8014    0.9672   O.co2     1 RES1   0.0000
   119 O7       -2.0578    0.1082    0.9974   O.co2     1 RES1   0.0000
@<TRIPOS>BOND
     1     1     6    1
     2     1    13    1
     3     1    24    1
     4     1    63    1
     5     1    70    1
     6     1    81    1
     7     1   118    1
     8     1   119    1
     9     2     3    1
    10     2    32    1
    11     2    33    1
    12     2    34    1
    13     3     4    1
    14     3    35    1
    15     3    36    1
    16     4     5    1
    17     4    25    1
    18     5     6    2
    19     5     7    1
    20     7     8    1
    21     7    24    2
    22     8     9    2
    23     8    37    1
    24     9    10    1
    25     9    38    1
    26    10    11    2
    27    10    39    1
    28    11    12    1
    29    11    24    1
    30    12    13    2
    31    12    14    1
    32    14    15    1
    33    14    17    1
    34    15    16    1
    35    15    40    1
    36    15    41    1
    37    16    42    1
    38    16    43    1
    39    16    44    1
    40    17    18    1
    41    17    22    2
    42    18    19    2
    43    18    45    1
    44    19    20    1
    45    19    46    1
    46    20    21    2
    47    20    47    1
    48    21    22    1
    49    21    48    1
    50    22    23    1
    51    23    49    1
    52    23    50    1
    53    23    51    1
    54    25    26    1
    55    25    30    2
    56    26    27    2
    57    26    52    1
    58    27    28    1
    59    27    53    1
    60    28    29    2
    61    28    54    1
    62    29    30    1
    63    29    55    1
    64    30    31    1
    65    31    56    1
    66    31    57    1
    67    31    58    1
    68    59    60    1
    69    59    89    1
    70    59    90    1
    71    59    91    1
    72    60    61    1
    73    60    92    1
    74    60    93    1
    75    61    62    1
    76    61    82    1
    77    62    63    2
    78    62    64    1
    79    64    65    1
    80    64    81    2
    81    65    66    2
    82    65    94    1
    83    66    67    1
    84    66    95    1
    85    67    68    2
    86    67    96    1
    87    68    69    1
    88    68    81    1
    89    69    70    2
    90    69    71    1
    91    71    72    1
    92    71    74    1
    93    72    73    1
    94    72    97    1
    95    72    98    1
    96    73    99    1
    97    73   100    1
    98    73   101    1
    99    74    75    1
   100    74    79    2
   101    75    76    2
   102    75   102    1
   103    76    77    1
   104    76   103    1
   105    77    78    2
   106    77   104    1
   107    78    79    1
   108    78   105    1
   109    79    80    1
   110    80   106    1
   111    80   107    1
   112    80   108    1
   113    82    83    1
   114    82    87    2
   115    83    84    2
   116    83   109    1
   117    84    85    1
   118    84   110    1
   119    85    86    2
   120    85   111    1
   121    86    87    1
   122    86   112    1
   123    87    88    1
   124    88   113    1
   125    88   114    1
   126    88   115    1
   127   116   117    2
   128   116   118    1
   129   116   119    1
@<TRIPOS>SUBSTRUCTURE
     1 RES1      119 GROUP             0 ****  ****    0  
