@<TRIPOS>MOLECULE
bicapped_trigonal_prismatic_0_nunpairedes_0_charge_2 Charge: 2 Unpaired_Electrons: 6 XTB_Unpaired_Electrons: 0 XTB_Charge: 2
   231   235     1     0     0
SMALL
NoCharges
****
Generated from Architector

@<TRIPOS>ATOM
     1 Tb1       0.0442   -0.1432    0.1527   Tb        1 RES1   0.0000
     2 C1       -1.0360    3.3673   -4.9792   C.3       1 RES1   0.0000
     3 C2       -0.9097    2.0097   -4.2902   C.3       1 RES1   0.0000
     4 C3        0.5418    1.5691   -4.1662   C.3       1 RES1   0.0000
     5 C4        1.1588    1.4806   -5.5623   C.3       1 RES1   0.0000
     6 C5        2.3307    0.5187   -5.6339   C.3       1 RES1   0.0000
     7 C6        3.4555    0.9334   -4.6968   C.3       1 RES1   0.0000
     8 C7        4.6033   -0.0635   -4.7555   C.3       1 RES1   0.0000
     9 C8        5.8545    0.4280   -4.0360   C.3       1 RES1   0.0000
    10 C9        5.6413    0.8497   -2.5799   C.3       1 RES1   0.0000
    11 C10       5.3873   -0.3125   -1.6077   C.3       1 RES1   0.0000
    12 N1        4.0406   -0.8784   -1.6214   N.am      1 RES1   0.0000
    13 C11       3.9714   -2.2847   -2.0170   C.3       1 RES1   0.0000
    14 C12       4.6100   -3.1708   -0.9376   C.3       1 RES1   0.0000
    15 C13       4.7873   -4.6204   -1.4012   C.3       1 RES1   0.0000
    16 C14       3.5002   -5.4414   -1.3184   C.3       1 RES1   0.0000
    17 C15       3.1525   -5.8693    0.1095   C.3       1 RES1   0.0000
    18 C16       1.9852   -6.8583    0.1914   C.3       1 RES1   0.0000
    19 C17       0.5882   -6.2262    0.1802   C.3       1 RES1   0.0000
    20 C18       0.0599   -5.7036   -1.1611   C.3       1 RES1   0.0000
    21 C19      -0.5677   -6.7514   -2.0843   C.3       1 RES1   0.0000
    22 C20       0.3989   -7.8044   -2.6162   C.3       1 RES1   0.0000
    23 C21       2.9621   -0.2441   -1.1874   C.2       1 RES1   0.0000
    24 O1        1.7853   -0.6394   -1.3563   O.2       1 RES1   0.0000
    25 C22       3.1456    1.0526   -0.3890   C.3       1 RES1   0.0000
    26 O2        1.8624    1.4815    0.0584   O.3       1 RES1   0.0000
    27 C23       1.8952    2.4417    1.1224   C.3       1 RES1   0.0000
    28 C24       1.1273    1.8556    2.3086   C.2       1 RES1   0.0000
    29 O3        0.3844    0.8859    2.0708   O.2       1 RES1   0.0000
    30 N2        1.2813    2.3248    3.5423   N.am      1 RES1   0.0000
    31 C25       0.7369    1.4864    4.6091   C.3       1 RES1   0.0000
    32 C26       1.4486    0.1336    4.6684   C.3       1 RES1   0.0000
    33 C27       2.9429    0.2611    4.9611   C.3       1 RES1   0.0000
    34 C28       3.5693   -1.0849    5.3340   C.3       1 RES1   0.0000
    35 C29       3.5420   -2.1535    4.2386   C.3       1 RES1   0.0000
    36 C30       4.3763   -1.7844    3.0172   C.3       1 RES1   0.0000
    37 C31       1.6757    3.6863    3.8560   C.3       1 RES1   0.0000
    38 C32       0.5765    4.6967    3.4980   C.3       1 RES1   0.0000
    39 C33      -0.7820    4.4141    4.1361   C.3       1 RES1   0.0000
    40 C34      -1.6976    5.6397    4.1263   C.3       1 RES1   0.0000
    41 C35      -2.1015    6.1392    2.7351   C.3       1 RES1   0.0000
    42 C36      -1.1780    7.2093    2.1593   C.3       1 RES1   0.0000
    43 H1       -2.0225    3.7978   -4.8345   H         1 RES1   0.0000
    44 H2       -0.8690    3.2788   -6.0477   H         1 RES1   0.0000
    45 H3       -0.3057    4.0722   -4.5905   H         1 RES1   0.0000
    46 H4       -1.4453    1.2546   -4.8565   H         1 RES1   0.0000
    47 H5       -1.3493    2.0366   -3.2983   H         1 RES1   0.0000
    48 H6        0.5763    0.5949   -3.6592   H         1 RES1   0.0000
    49 H7        1.0912    2.2828   -3.5397   H         1 RES1   0.0000
    50 H8        1.4783    2.4747   -5.8768   H         1 RES1   0.0000
    51 H9        0.3921    1.1431   -6.2618   H         1 RES1   0.0000
    52 H10       2.6973    0.4847   -6.6602   H         1 RES1   0.0000
    53 H11       1.9886   -0.4831   -5.3667   H         1 RES1   0.0000
    54 H12       3.0581    0.9899   -3.6803   H         1 RES1   0.0000
    55 H13       3.8162    1.9247   -4.9790   H         1 RES1   0.0000
    56 H14       4.8596   -0.2398   -5.8008   H         1 RES1   0.0000
    57 H15       4.2666   -1.0124   -4.3445   H         1 RES1   0.0000
    58 H16       6.2399    1.2940   -4.5757   H         1 RES1   0.0000
    59 H17       6.6273   -0.3400   -4.0789   H         1 RES1   0.0000
    60 H18       4.8417    1.5860   -2.5343   H         1 RES1   0.0000
    61 H19       6.5551    1.3410   -2.2396   H         1 RES1   0.0000
    62 H20       5.6566   -0.0114   -0.5903   H         1 RES1   0.0000
    63 H21       6.0602   -1.1178   -1.9012   H         1 RES1   0.0000
    64 H22       4.5082   -2.4111   -2.9578   H         1 RES1   0.0000
    65 H23       2.9289   -2.5633   -2.1665   H         1 RES1   0.0000
    66 H24       3.9717   -3.1594   -0.0569   H         1 RES1   0.0000
    67 H25       5.5897   -2.7748   -0.6640   H         1 RES1   0.0000
    68 H26       5.5481   -5.0951   -0.7783   H         1 RES1   0.0000
    69 H27       5.1571   -4.6341   -2.4297   H         1 RES1   0.0000
    70 H28       3.6141   -6.3315   -1.9415   H         1 RES1   0.0000
    71 H29       2.6886   -4.8429   -1.7238   H         1 RES1   0.0000
    72 H30       2.9079   -4.9902    0.7075   H         1 RES1   0.0000
    73 H31       4.0337   -6.3431    0.5513   H         1 RES1   0.0000
    74 H32       2.0799   -7.4101    1.1307   H         1 RES1   0.0000
    75 H33       2.0815   -7.5839   -0.6112   H         1 RES1   0.0000
    76 H34       0.6004   -5.3949    0.8930   H         1 RES1   0.0000
    77 H35      -0.1152   -6.9719    0.5599   H         1 RES1   0.0000
    78 H36       0.8556   -5.1951   -1.6982   H         1 RES1   0.0000
    79 H37      -0.7066   -4.9479   -0.9525   H         1 RES1   0.0000
    80 H38      -0.9992   -6.2194   -2.9369   H         1 RES1   0.0000
    81 H39      -1.3875   -7.2524   -1.5653   H         1 RES1   0.0000
    82 H40       1.3158   -7.3421   -2.9765   H         1 RES1   0.0000
    83 H41      -0.0565   -8.3424   -3.4454   H         1 RES1   0.0000
    84 H42       0.6442   -8.5296   -1.8452   H         1 RES1   0.0000
    85 H43       3.6036    1.8268   -1.0154   H         1 RES1   0.0000
    86 H44       3.7862    0.8307    0.4749   H         1 RES1   0.0000
    87 H45       1.3818    3.3494    0.7823   H         1 RES1   0.0000
    88 H46       2.9285    2.6811    1.3805   H         1 RES1   0.0000
    89 H47      -0.3276    1.3244    4.4224   H         1 RES1   0.0000
    90 H48       0.8587    2.0150    5.5539   H         1 RES1   0.0000
    91 H49       1.2957   -0.4013    3.7281   H         1 RES1   0.0000
    92 H50       0.9789   -0.4451    5.4644   H         1 RES1   0.0000
    93 H51       3.0850    0.9438    5.8030   H         1 RES1   0.0000
    94 H52       3.4615    0.6910    4.1015   H         1 RES1   0.0000
    95 H53       3.0467   -1.4726    6.2112   H         1 RES1   0.0000
    96 H54       4.6080   -0.9127    5.6214   H         1 RES1   0.0000
    97 H55       2.5153   -2.3514    3.9245   H         1 RES1   0.0000
    98 H56       3.9393   -3.0751    4.6696   H         1 RES1   0.0000
    99 H57       3.9152   -0.9630    2.4698   H         1 RES1   0.0000
   100 H58       4.4523   -2.6371    2.3472   H         1 RES1   0.0000
   101 H59       5.3805   -1.4952    3.3195   H         1 RES1   0.0000
   102 H60       2.5964    3.9547    3.3313   H         1 RES1   0.0000
   103 H61       1.8849    3.7351    4.9256   H         1 RES1   0.0000
   104 H62       0.4433    4.7223    2.4168   H         1 RES1   0.0000
   105 H63       0.9249    5.6784    3.8202   H         1 RES1   0.0000
   106 H64      -0.6392    4.1085    5.1730   H         1 RES1   0.0000
   107 H65      -1.2700    3.5904    3.6081   H         1 RES1   0.0000
   108 H66      -1.2145    6.4485    4.6725   H         1 RES1   0.0000
   109 H67      -2.5984    5.3784    4.6802   H         1 RES1   0.0000
   110 H68      -3.1025    6.5681    2.7975   H         1 RES1   0.0000
   111 H69      -2.1593    5.2864    2.0545   H         1 RES1   0.0000
   112 H70      -1.0383    8.0120    2.8787   H         1 RES1   0.0000
   113 H71      -1.6208    7.6397    1.2630   H         1 RES1   0.0000
   114 H72      -0.2032    6.8090    1.8996   H         1 RES1   0.0000
   115 C37      -0.5320   -4.5643   -5.8684   C.3       1 RES1   0.0000
   116 C38       0.0368   -3.2057   -5.4775   C.3       1 RES1   0.0000
   117 C39      -1.0421   -2.1374   -5.2815   C.3       1 RES1   0.0000
   118 C40      -1.8646   -1.8699   -6.5454   C.3       1 RES1   0.0000
   119 C41      -2.5053   -0.4780   -6.5736   C.3       1 RES1   0.0000
   120 C42      -3.4674   -0.1491   -5.4229   C.3       1 RES1   0.0000
   121 C43      -3.9662    1.2982   -5.5536   C.3       1 RES1   0.0000
   122 C44      -4.7021    1.9033   -4.3444   C.3       1 RES1   0.0000
   123 C45      -4.0356    1.7290   -2.9642   C.3       1 RES1   0.0000
   124 C46      -3.6270    3.0524   -2.2871   C.3       1 RES1   0.0000
   125 N3       -2.3845    3.0094   -1.5029   N.am      1 RES1   0.0000
   126 C47      -1.3361    3.9993   -1.7970   C.3       1 RES1   0.0000
   127 C48      -0.8411    4.8337   -0.6149   C.3       1 RES1   0.0000
   128 C49       0.2515    5.8036   -1.1139   C.3       1 RES1   0.0000
   129 C50       1.7264    5.4064   -0.8931   C.3       1 RES1   0.0000
   130 C51       2.3025    5.9378    0.4309   C.3       1 RES1   0.0000
   131 C52       3.8287    6.1288    0.4976   C.3       1 RES1   0.0000
   132 C53       4.6342    4.9334    1.0226   C.3       1 RES1   0.0000
   133 C54       5.0971    3.9296   -0.0412   C.3       1 RES1   0.0000
   134 C55       6.5504    4.1374   -0.4723   C.3       1 RES1   0.0000
   135 C56       6.8192    5.4894   -1.1177   C.3       1 RES1   0.0000
   136 C57      -2.0255    2.0016   -0.7303   C.2       1 RES1   0.0000
   137 O4       -0.8434    1.8572   -0.3339   O.2       1 RES1   0.0000
   138 C58      -3.0157    0.9679   -0.2119   C.3       1 RES1   0.0000
   139 O5       -2.5265   -0.3085   -0.6385   O.3       1 RES1   0.0000
   140 C59      -3.1742   -1.3888    0.0285   C.3       1 RES1   0.0000
   141 C60      -2.5044   -1.5569    1.4003   C.2       1 RES1   0.0000
   142 O6       -1.4774   -0.8725    1.5941   O.2       1 RES1   0.0000
   143 N4       -2.9782   -2.3562    2.3395   N.am      1 RES1   0.0000
   144 C61      -2.1908   -2.4711    3.5673   C.3       1 RES1   0.0000
   145 C62      -2.2786   -1.2256    4.4487   C.3       1 RES1   0.0000
   146 C63      -3.7078   -0.9200    4.8919   C.3       1 RES1   0.0000
   147 C64      -3.8225    0.3770    5.6951   C.3       1 RES1   0.0000
   148 C65      -3.3809    1.6360    4.9434   C.3       1 RES1   0.0000
   149 C66      -4.0260    1.7929    3.5697   C.3       1 RES1   0.0000
   150 C67      -4.2008   -3.1319    2.2350   C.3       1 RES1   0.0000
   151 C68      -4.0288   -4.4645    1.5014   C.3       1 RES1   0.0000
   152 C69      -3.1735   -5.4875    2.2571   C.3       1 RES1   0.0000
   153 C70      -3.6425   -6.9306    2.0551   C.3       1 RES1   0.0000
   154 C71      -3.3240   -7.5475    0.6949   C.3       1 RES1   0.0000
   155 C72      -4.1717   -7.0162   -0.4562   C.3       1 RES1   0.0000
   156 H73       0.2453   -5.3237   -5.8276   H         1 RES1   0.0000
   157 H74      -0.9314   -4.5386   -6.8787   H         1 RES1   0.0000
   158 H75      -1.3299   -4.8511   -5.1866   H         1 RES1   0.0000
   159 H76       0.7405   -2.8760   -6.2462   H         1 RES1   0.0000
   160 H77       0.5950   -3.3070   -4.5418   H         1 RES1   0.0000
   161 H78      -0.5508   -1.2101   -4.9734   H         1 RES1   0.0000
   162 H79      -1.6993   -2.4504   -4.4665   H         1 RES1   0.0000
   163 H80      -2.6284   -2.6379   -6.6684   H         1 RES1   0.0000
   164 H81      -1.1951   -1.9291   -7.4075   H         1 RES1   0.0000
   165 H82      -3.0331   -0.3500   -7.5209   H         1 RES1   0.0000
   166 H83      -1.6892    0.2492   -6.5646   H         1 RES1   0.0000
   167 H84      -2.9453   -0.2995   -4.4735   H         1 RES1   0.0000
   168 H85      -4.3111   -0.8406   -5.4438   H         1 RES1   0.0000
   169 H86      -4.6506    1.3510   -6.4022   H         1 RES1   0.0000
   170 H87      -3.1255    1.9397   -5.8135   H         1 RES1   0.0000
   171 H88      -5.7020    1.4759   -4.2905   H         1 RES1   0.0000
   172 H89      -4.8173    2.9667   -4.5507   H         1 RES1   0.0000
   173 H90      -3.1576    1.1027   -3.0760   H         1 RES1   0.0000
   174 H91      -4.7311    1.1704   -2.3425   H         1 RES1   0.0000
   175 H92      -4.4436    3.4256   -1.6673   H         1 RES1   0.0000
   176 H93      -3.4535    3.7882   -3.0697   H         1 RES1   0.0000
   177 H94      -1.7155    4.6651   -2.5705   H         1 RES1   0.0000
   178 H95      -0.4665    3.4554   -2.1686   H         1 RES1   0.0000
   179 H96      -0.4585    4.1701    0.1607   H         1 RES1   0.0000
   180 H97      -1.6697    5.3999   -0.1924   H         1 RES1   0.0000
   181 H98       0.0881    6.7771   -0.6546   H         1 RES1   0.0000
   182 H99       0.0997    5.9408   -2.1843   H         1 RES1   0.0000
   183 H100      2.3140    5.8413   -1.7049   H         1 RES1   0.0000
   184 H101      1.8370    4.3223   -0.9712   H         1 RES1   0.0000
   185 H102      2.0075    5.2993    1.2648   H         1 RES1   0.0000
   186 H103      1.8505    6.9176    0.6008   H         1 RES1   0.0000
   187 H104      4.0098    6.9646    1.1758   H         1 RES1   0.0000
   188 H105      4.2052    6.4203   -0.4798   H         1 RES1   0.0000
   189 H106      4.0417    4.4241    1.7887   H         1 RES1   0.0000
   190 H107      5.5223    5.3176    1.5242   H         1 RES1   0.0000
   191 H108      4.4486    3.9946   -0.9172   H         1 RES1   0.0000
   192 H109      5.0288    2.9144    0.3614   H         1 RES1   0.0000
   193 H110      6.8123    3.3483   -1.1812   H         1 RES1   0.0000
   194 H111      7.1918    4.0230    0.4042   H         1 RES1   0.0000
   195 H112      6.1438    5.6627   -1.9531   H         1 RES1   0.0000
   196 H113      7.8383    5.5194   -1.4931   H         1 RES1   0.0000
   197 H114      6.7039    6.2937   -0.3971   H         1 RES1   0.0000
   198 H115     -4.0477    1.1146   -0.5354   H         1 RES1   0.0000
   199 H116     -2.9722    1.0659    0.8874   H         1 RES1   0.0000
   200 H117     -2.9960   -2.2801   -0.5832   H         1 RES1   0.0000
   201 H118     -4.2530   -1.2045    0.1027   H         1 RES1   0.0000
   202 H119     -1.1448   -2.6409    3.2981   H         1 RES1   0.0000
   203 H120     -2.5554   -3.3365    4.1132   H         1 RES1   0.0000
   204 H121     -1.8527   -0.3859    3.9008   H         1 RES1   0.0000
   205 H122     -1.6571   -1.4010    5.3275   H         1 RES1   0.0000
   206 H123     -4.0702   -1.7401    5.5158   H         1 RES1   0.0000
   207 H124     -4.3601   -0.8558    4.0198   H         1 RES1   0.0000
   208 H125     -3.2247    0.2916    6.6044   H         1 RES1   0.0000
   209 H126     -4.8627    0.4943    6.0024   H         1 RES1   0.0000
   210 H127     -2.2943    1.6294    4.8317   H         1 RES1   0.0000
   211 H128     -3.6350    2.5046    5.5535   H         1 RES1   0.0000
   212 H129     -3.6471    1.0381    2.8805   H         1 RES1   0.0000
   213 H130     -3.8039    2.7772    3.1616   H         1 RES1   0.0000
   214 H131     -5.1060    1.6927    3.6409   H         1 RES1   0.0000
   215 H132     -4.9695   -2.5348    1.7355   H         1 RES1   0.0000
   216 H133     -4.5364   -3.3273    3.2558   H         1 RES1   0.0000
   217 H134     -3.6153   -4.2893    0.5084   H         1 RES1   0.0000
   218 H135     -5.0313   -4.8726    1.3775   H         1 RES1   0.0000
   219 H136     -3.2339   -5.2839    3.3277   H         1 RES1   0.0000
   220 H137     -2.1263   -5.3952    1.9656   H         1 RES1   0.0000
   221 H138     -4.7188   -6.9822    2.2288   H         1 RES1   0.0000
   222 H139     -3.1671   -7.5424    2.8230   H         1 RES1   0.0000
   223 H140     -3.4907   -8.6225    0.7758   H         1 RES1   0.0000
   224 H141     -2.2660   -7.3996    0.4728   H         1 RES1   0.0000
   225 H142     -5.2210   -6.9800   -0.1714   H         1 RES1   0.0000
   226 H143     -4.0816   -7.6724   -1.3182   H         1 RES1   0.0000
   227 H144     -3.8554   -6.0220   -0.7597   H         1 RES1   0.0000
   228 N5        1.0198   -2.2791    0.1996   N.3       1 RES1   0.0000
   229 O7        1.7629   -3.1441   -0.1143   O.2       1 RES1   0.0000
   230 O8       -0.0930   -2.1473   -0.3346   O.co2     1 RES1   0.0000
   231 O9        1.3131   -1.4771    1.1034   O.co2     1 RES1   0.0000
@<TRIPOS>BOND
     1     1    24    1
     2     1    26    1
     3     1    29    1
     4     1   137    1
     5     1   139    1
     6     1   142    1
     7     1   230    1
     8     1   231    1
     9     2     3    1
    10     2    43    1
    11     2    44    1
    12     2    45    1
    13     3     4    1
    14     3    46    1
    15     3    47    1
    16     4     5    1
    17     4    48    1
    18     4    49    1
    19     5     6    1
    20     5    50    1
    21     5    51    1
    22     6     7    1
    23     6    52    1
    24     6    53    1
    25     7     8    1
    26     7    54    1
    27     7    55    1
    28     8     9    1
    29     8    56    1
    30     8    57    1
    31     9    10    1
    32     9    58    1
    33     9    59    1
    34    10    11    1
    35    10    60    1
    36    10    61    1
    37    11    12    1
    38    11    62    1
    39    11    63    1
    40    12    13    1
    41    12    23    1
    42    13    14    1
    43    13    64    1
    44    13    65    1
    45    14    15    1
    46    14    66    1
    47    14    67    1
    48    15    16    1
    49    15    68    1
    50    15    69    1
    51    16    17    1
    52    16    70    1
    53    16    71    1
    54    17    18    1
    55    17    72    1
    56    17    73    1
    57    18    19    1
    58    18    74    1
    59    18    75    1
    60    19    20    1
    61    19    76    1
    62    19    77    1
    63    20    21    1
    64    20    78    1
    65    20    79    1
    66    21    22    1
    67    21    80    1
    68    21    81    1
    69    22    82    1
    70    22    83    1
    71    22    84    1
    72    23    24    2
    73    23    25    1
    74    25    26    1
    75    25    85    1
    76    25    86    1
    77    26    27    1
    78    27    28    1
    79    27    87    1
    80    27    88    1
    81    28    29    2
    82    28    30    1
    83    30    31    1
    84    30    37    1
    85    31    32    1
    86    31    89    1
    87    31    90    1
    88    32    33    1
    89    32    91    1
    90    32    92    1
    91    33    34    1
    92    33    93    1
    93    33    94    1
    94    34    35    1
    95    34    95    1
    96    34    96    1
    97    35    36    1
    98    35    97    1
    99    35    98    1
   100    36    99    1
   101    36   100    1
   102    36   101    1
   103    37    38    1
   104    37   102    1
   105    37   103    1
   106    38    39    1
   107    38   104    1
   108    38   105    1
   109    39    40    1
   110    39   106    1
   111    39   107    1
   112    40    41    1
   113    40   108    1
   114    40   109    1
   115    41    42    1
   116    41   110    1
   117    41   111    1
   118    42   112    1
   119    42   113    1
   120    42   114    1
   121   115   116    1
   122   115   156    1
   123   115   157    1
   124   115   158    1
   125   116   117    1
   126   116   159    1
   127   116   160    1
   128   117   118    1
   129   117   161    1
   130   117   162    1
   131   118   119    1
   132   118   163    1
   133   118   164    1
   134   119   120    1
   135   119   165    1
   136   119   166    1
   137   120   121    1
   138   120   167    1
   139   120   168    1
   140   121   122    1
   141   121   169    1
   142   121   170    1
   143   122   123    1
   144   122   171    1
   145   122   172    1
   146   123   124    1
   147   123   173    1
   148   123   174    1
   149   124   125    1
   150   124   175    1
   151   124   176    1
   152   125   126    1
   153   125   136    1
   154   126   127    1
   155   126   177    1
   156   126   178    1
   157   127   128    1
   158   127   179    1
   159   127   180    1
   160   128   129    1
   161   128   181    1
   162   128   182    1
   163   129   130    1
   164   129   183    1
   165   129   184    1
   166   130   131    1
   167   130   185    1
   168   130   186    1
   169   131   132    1
   170   131   187    1
   171   131   188    1
   172   132   133    1
   173   132   189    1
   174   132   190    1
   175   133   134    1
   176   133   191    1
   177   133   192    1
   178   134   135    1
   179   134   193    1
   180   134   194    1
   181   135   195    1
   182   135   196    1
   183   135   197    1
   184   136   137    2
   185   136   138    1
   186   138   139    1
   187   138   198    1
   188   138   199    1
   189   139   140    1
   190   140   141    1
   191   140   200    1
   192   140   201    1
   193   141   142    2
   194   141   143    1
   195   143   144    1
   196   143   150    1
   197   144   145    1
   198   144   202    1
   199   144   203    1
   200   145   146    1
   201   145   204    1
   202   145   205    1
   203   146   147    1
   204   146   206    1
   205   146   207    1
   206   147   148    1
   207   147   208    1
   208   147   209    1
   209   148   149    1
   210   148   210    1
   211   148   211    1
   212   149   212    1
   213   149   213    1
   214   149   214    1
   215   150   151    1
   216   150   215    1
   217   150   216    1
   218   151   152    1
   219   151   217    1
   220   151   218    1
   221   152   153    1
   222   152   219    1
   223   152   220    1
   224   153   154    1
   225   153   221    1
   226   153   222    1
   227   154   155    1
   228   154   223    1
   229   154   224    1
   230   155   225    1
   231   155   226    1
   232   155   227    1
   233   228   229    2
   234   228   230    1
   235   228   231    1
@<TRIPOS>SUBSTRUCTURE
     1 RES1      231 GROUP             0 ****  ****    0  
