@<TRIPOS>MOLECULE
ICIGOT_geomtry_0_nunpairedes_0_charge_3 Charge: 3 Unpaired_Electrons: 6 XTB_Unpaired_Electrons: 0 XTB_Charge: 3
   233   236     1     0     0
SMALL
NoCharges
****
Generated from Architector

@<TRIPOS>ATOM
     1 Tb1       0.1417    0.0636    0.1291   Tb        1 RES1   0.0000
     2 C1       -1.2407    8.0169    1.9917   C.3       1 RES1   0.0000
     3 C2       -2.3893    8.1125    0.9944   C.3       1 RES1   0.0000
     4 C3       -2.9700    6.7558    0.5908   C.3       1 RES1   0.0000
     5 C4       -1.9701    5.8796   -0.1631   C.3       1 RES1   0.0000
     6 C5       -2.5942    4.6246   -0.7737   C.3       1 RES1   0.0000
     7 C6       -3.1395    3.6700    0.2876   C.3       1 RES1   0.0000
     8 N1       -3.5769    2.3909   -0.2647   N.am      1 RES1   0.0000
     9 C7       -4.9783    2.2547   -0.6481   C.3       1 RES1   0.0000
    10 C8       -5.1936    2.5118   -2.1474   C.3       1 RES1   0.0000
    11 C9       -6.6747    2.5480   -2.5829   C.3       1 RES1   0.0000
    12 C10      -7.5169    1.4783   -1.8896   C.3       1 RES1   0.0000
    13 C11      -7.3006    3.9599   -2.5315   C.3       1 RES1   0.0000
    14 C12      -7.0978    4.8581   -1.3065   C.3       1 RES1   0.0000
    15 C13      -7.9070    4.4684   -0.0714   C.3       1 RES1   0.0000
    16 C14      -7.5974    5.3143    1.1713   C.3       1 RES1   0.0000
    17 C15      -7.9351    6.7893    0.9694   C.3       1 RES1   0.0000
    18 C16      -8.3887    4.7610    2.3577   C.3       1 RES1   0.0000
    19 C17      -2.6782    1.4443   -0.4448   C.2       1 RES1   0.0000
    20 O1       -1.4425    1.6102   -0.2627   O.2       1 RES1   0.0000
    21 C18      -3.1645    0.0408   -0.8288   C.3       1 RES1   0.0000
    22 O2       -2.0593   -0.8676   -0.8728   O.3       1 RES1   0.0000
    23 C19      -1.8913   -1.5732   -2.1071   C.3       1 RES1   0.0000
    24 C20      -0.7081   -0.9637   -2.8867   C.2       1 RES1   0.0000
    25 O3        0.1766   -0.4194   -2.1716   O.2       1 RES1   0.0000
    26 N2       -0.6834   -1.0204   -4.2056   N.am      1 RES1   0.0000
    27 C21      -1.6763   -1.7890   -4.9493   C.3       1 RES1   0.0000
    28 C22      -1.3872   -3.2931   -4.8882   C.3       1 RES1   0.0000
    29 C23      -2.5454   -4.1611   -5.3863   C.3       1 RES1   0.0000
    30 C24      -3.7898   -4.0668   -4.5028   C.3       1 RES1   0.0000
    31 C25      -4.8559   -5.0948   -4.8804   C.3       1 RES1   0.0000
    32 C26      -6.0928   -4.9420   -4.0025   C.3       1 RES1   0.0000
    33 C27       0.2664   -0.2618   -5.0307   C.3       1 RES1   0.0000
    34 C28       1.7554   -0.3458   -4.7180   C.3       1 RES1   0.0000
    35 C29       2.4620   -1.6866   -5.0065   C.3       1 RES1   0.0000
    36 C30       3.9125   -1.4040   -5.4055   C.3       1 RES1   0.0000
    37 C31       2.3472   -2.6285   -3.7922   C.3       1 RES1   0.0000
    38 C32       3.3386   -3.7977   -3.7523   C.3       1 RES1   0.0000
    39 C33       3.2017   -4.8174   -4.8967   C.3       1 RES1   0.0000
    40 C34       2.4757   -6.1335   -4.5655   C.3       1 RES1   0.0000
    41 C35       0.9973   -5.9318   -4.2375   C.3       1 RES1   0.0000
    42 C36       3.1684   -6.9144   -3.4513   C.3       1 RES1   0.0000
    43 H1       -0.9619    9.0143    2.3210   H         1 RES1   0.0000
    44 H2       -0.3622    7.5549    1.5462   H         1 RES1   0.0000
    45 H3       -1.5339    7.4419    2.8685   H         1 RES1   0.0000
    46 H4       -2.0504    8.6447    0.1042   H         1 RES1   0.0000
    47 H5       -3.1902    8.7040    1.4394   H         1 RES1   0.0000
    48 H6       -3.8364    6.9342   -0.0496   H         1 RES1   0.0000
    49 H7       -3.3145    6.2403    1.4891   H         1 RES1   0.0000
    50 H8       -1.1599    5.5804    0.5030   H         1 RES1   0.0000
    51 H9       -1.5398    6.4645   -0.9765   H         1 RES1   0.0000
    52 H10      -1.8381    4.0874   -1.3504   H         1 RES1   0.0000
    53 H11      -3.3934    4.9246   -1.4516   H         1 RES1   0.0000
    54 H12      -3.9902    4.1216    0.7947   H         1 RES1   0.0000
    55 H13      -2.3543    3.4592    1.0206   H         1 RES1   0.0000
    56 H14      -5.5559    2.9740   -0.0715   H         1 RES1   0.0000
    57 H15      -5.3338    1.2560   -0.3899   H         1 RES1   0.0000
    58 H16      -4.6806    1.7263   -2.7096   H         1 RES1   0.0000
    59 H17      -4.7331    3.4591   -2.4217   H         1 RES1   0.0000
    60 H18      -6.6729    2.2866   -3.6498   H         1 RES1   0.0000
    61 H19      -7.6234    1.6541   -0.8272   H         1 RES1   0.0000
    62 H20      -7.0877    0.4895   -2.0406   H         1 RES1   0.0000
    63 H21      -8.5104    1.4812   -2.3251   H         1 RES1   0.0000
    64 H22      -8.3698    3.8497   -2.7060   H         1 RES1   0.0000
    65 H23      -6.9047    4.5090   -3.3892   H         1 RES1   0.0000
    66 H24      -7.4184    5.8549   -1.6116   H         1 RES1   0.0000
    67 H25      -6.0359    4.9317   -1.0615   H         1 RES1   0.0000
    68 H26      -7.7334    3.4218    0.1838   H         1 RES1   0.0000
    69 H27      -8.9670    4.5722   -0.3026   H         1 RES1   0.0000
    70 H28      -6.5246    5.2355    1.4010   H         1 RES1   0.0000
    71 H29      -8.9648    6.9001    0.6373   H         1 RES1   0.0000
    72 H30      -7.2797    7.2486    0.2325   H         1 RES1   0.0000
    73 H31      -7.8240    7.3317    1.9060   H         1 RES1   0.0000
    74 H32      -9.4562    4.8436    2.1668   H         1 RES1   0.0000
    75 H33      -8.1666    5.3186    3.2653   H         1 RES1   0.0000
    76 H34      -8.1538    3.7112    2.5335   H         1 RES1   0.0000
    77 H35      -3.6922    0.0743   -1.7852   H         1 RES1   0.0000
    78 H36      -3.8653   -0.3344   -0.0626   H         1 RES1   0.0000
    79 H37      -2.8198   -1.5738   -2.6797   H         1 RES1   0.0000
    80 H38      -1.6643   -2.6176   -1.8418   H         1 RES1   0.0000
    81 H39      -1.6443   -1.4534   -5.9843   H         1 RES1   0.0000
    82 H40      -2.6804   -1.5776   -4.5803   H         1 RES1   0.0000
    83 H41      -1.1553   -3.5853   -3.8622   H         1 RES1   0.0000
    84 H42      -0.5064   -3.4910   -5.4994   H         1 RES1   0.0000
    85 H43      -2.1963   -5.1955   -5.3801   H         1 RES1   0.0000
    86 H44      -2.7981   -3.8991   -6.4149   H         1 RES1   0.0000
    87 H45      -4.2339   -3.0710   -4.5792   H         1 RES1   0.0000
    88 H46      -3.4998   -4.2302   -3.4599   H         1 RES1   0.0000
    89 H47      -4.4483   -6.1005   -4.7723   H         1 RES1   0.0000
    90 H48      -5.1341   -4.9623   -5.9250   H         1 RES1   0.0000
    91 H49      -5.8379   -5.0867   -2.9534   H         1 RES1   0.0000
    92 H50      -6.8397   -5.6818   -4.2763   H         1 RES1   0.0000
    93 H51      -6.5343   -3.9542   -4.1247   H         1 RES1   0.0000
    94 H52      -0.0321    0.7880   -4.9741   H         1 RES1   0.0000
    95 H53       0.1192   -0.5909   -6.0553   H         1 RES1   0.0000
    96 H54       1.9235   -0.0536   -3.6833   H         1 RES1   0.0000
    97 H55       2.2108    0.4222   -5.3500   H         1 RES1   0.0000
    98 H56       1.9782   -2.1638   -5.8641   H         1 RES1   0.0000
    99 H57       4.4700   -0.9598   -4.5847   H         1 RES1   0.0000
   100 H58       3.9358   -0.7162   -6.2480   H         1 RES1   0.0000
   101 H59       4.4150   -2.3145   -5.7158   H         1 RES1   0.0000
   102 H60       1.3361   -3.0338   -3.7660   H         1 RES1   0.0000
   103 H61       2.4898   -2.0435   -2.8702   H         1 RES1   0.0000
   104 H62       3.2085   -4.3106   -2.7963   H         1 RES1   0.0000
   105 H63       4.3535   -3.4006   -3.7488   H         1 RES1   0.0000
   106 H64       4.2040   -5.0898   -5.2303   H         1 RES1   0.0000
   107 H65       2.7001   -4.3544   -5.7465   H         1 RES1   0.0000
   108 H66       2.5299   -6.7431   -5.4739   H         1 RES1   0.0000
   109 H67       0.8718   -5.2896   -3.3661   H         1 RES1   0.0000
   110 H68       0.5317   -6.8900   -4.0220   H         1 RES1   0.0000
   111 H69       0.4818   -5.4890   -5.0856   H         1 RES1   0.0000
   112 H70       3.0734   -6.4076   -2.4929   H         1 RES1   0.0000
   113 H71       4.2220   -7.0499   -3.6777   H         1 RES1   0.0000
   114 H72       2.7176   -7.8982   -3.3555   H         1 RES1   0.0000
   115 C37       2.0571    7.5484    3.5767   C.3       1 RES1   0.0000
   116 C38       3.1843    6.8334    4.3121   C.3       1 RES1   0.0000
   117 C39       3.6055    5.5150    3.6605   C.3       1 RES1   0.0000
   118 C40       2.4765    4.4849    3.6340   C.3       1 RES1   0.0000
   119 C41       2.9511    3.0480    3.4093   C.3       1 RES1   0.0000
   120 C42       3.5122    2.8275    2.0014   C.3       1 RES1   0.0000
   121 N3        3.8594    1.4282    1.7464   N.am      1 RES1   0.0000
   122 C43       5.2551    1.0287    1.8570   C.3       1 RES1   0.0000
   123 C44       5.5400    0.3115    3.1828   C.3       1 RES1   0.0000
   124 C45       7.0290   -0.0170    3.4211   C.3       1 RES1   0.0000
   125 C46       7.7409   -0.4719    2.1479   C.3       1 RES1   0.0000
   126 C47       7.7610    1.0952    4.2024   C.3       1 RES1   0.0000
   127 C48       7.5735    2.5608    3.7935   C.3       1 RES1   0.0000
   128 C49       8.3236    2.9851    2.5333   C.3       1 RES1   0.0000
   129 C50       8.0519    4.4329    2.1026   C.3       1 RES1   0.0000
   130 C51       8.5087    5.4448    3.1504   C.3       1 RES1   0.0000
   131 C52       8.7729    4.7004    0.7807   C.3       1 RES1   0.0000
   132 C53       2.8797    0.5958    1.4662   C.2       1 RES1   0.0000
   133 O4        1.6785    0.9735    1.4108   O.2       1 RES1   0.0000
   134 C54       3.1683   -0.8930    1.2353   C.3       1 RES1   0.0000
   135 O5        2.1271   -1.4843    0.4429   O.3       1 RES1   0.0000
   136 C55       1.7876   -2.8159    0.8455   C.3       1 RES1   0.0000
   137 C56       0.5448   -2.7430    1.7549   C.2       1 RES1   0.0000
   138 O6       -0.2018   -1.7557    1.5246   O.2       1 RES1   0.0000
   139 N4        0.3322   -3.6556    2.6827   N.am      1 RES1   0.0000
   140 C57       1.2264   -4.8057    2.8416   C.3       1 RES1   0.0000
   141 C58       0.9866   -5.8679    1.7584   C.3       1 RES1   0.0000
   142 C59       2.1802   -6.8018    1.5364   C.3       1 RES1   0.0000
   143 C60       3.3648   -6.1475    0.8193   C.3       1 RES1   0.0000
   144 C61       4.4166   -7.1804    0.4050   C.3       1 RES1   0.0000
   145 C62       5.6140   -6.5258   -0.2756   C.3       1 RES1   0.0000
   146 C63      -0.7393   -3.5608    3.6893   C.3       1 RES1   0.0000
   147 C64      -2.1300   -3.0851    3.2759   C.3       1 RES1   0.0000
   148 C65      -2.9968   -4.1095    2.5224   C.3       1 RES1   0.0000
   149 C66      -4.4684   -3.7839    2.7684   C.3       1 RES1   0.0000
   150 C67      -2.6391   -4.1156    1.0287   C.3       1 RES1   0.0000
   151 C68      -3.6340   -4.8464    0.1189   C.3       1 RES1   0.0000
   152 C69      -3.8286   -6.3419    0.4284   C.3       1 RES1   0.0000
   153 C70      -3.1356   -7.3268   -0.5272   C.3       1 RES1   0.0000
   154 C71      -1.6172   -7.1686   -0.5310   C.3       1 RES1   0.0000
   155 C72      -3.6875   -7.2318   -1.9464   C.3       1 RES1   0.0000
   156 H73       1.8836    8.5199    4.0319   H         1 RES1   0.0000
   157 H74       1.1274    6.9859    3.6292   H         1 RES1   0.0000
   158 H75       2.3138    7.7056    2.5306   H         1 RES1   0.0000
   159 H76       2.8783    6.6473    5.3430   H         1 RES1   0.0000
   160 H77       4.0531    7.4913    4.3446   H         1 RES1   0.0000
   161 H78       4.4454    5.1106    4.2283   H         1 RES1   0.0000
   162 H79       3.9518    5.7179    2.6459   H         1 RES1   0.0000
   163 H80       1.7560    4.7428    2.8581   H         1 RES1   0.0000
   164 H81       1.9621    4.5136    4.5949   H         1 RES1   0.0000
   165 H82       2.1066    2.3674    3.5453   H         1 RES1   0.0000
   166 H83       3.7084    2.8000    4.1538   H         1 RES1   0.0000
   167 H84       4.4054    3.4331    1.8580   H         1 RES1   0.0000
   168 H85       2.7554    3.1135    1.2631   H         1 RES1   0.0000
   169 H86       5.8646    1.9274    1.7824   H         1 RES1   0.0000
   170 H87       5.5078    0.3763    1.0185   H         1 RES1   0.0000
   171 H88       4.9668   -0.6178    3.2027   H         1 RES1   0.0000
   172 H89       5.1922    0.9357    4.0064   H         1 RES1   0.0000
   173 H90       7.0333   -0.8819    4.0968   H         1 RES1   0.0000
   174 H91       7.8199    0.3163    1.4097   H         1 RES1   0.0000
   175 H92       7.2222   -1.3218    1.7048   H         1 RES1   0.0000
   176 H93       8.7463   -0.7885    2.4038   H         1 RES1   0.0000
   177 H94       8.8254    0.8635    4.2036   H         1 RES1   0.0000
   178 H95       7.4256    1.0140    5.2402   H         1 RES1   0.0000
   179 H96       7.9556    3.1538    4.6244   H         1 RES1   0.0000
   180 H97       6.5100    2.7945    3.7024   H         1 RES1   0.0000
   181 H98       8.0653    2.3323    1.6977   H         1 RES1   0.0000
   182 H99       9.3931    2.8737    2.7124   H         1 RES1   0.0000
   183 H100      6.9717    4.5668    1.9429   H         1 RES1   0.0000
   184 H101      9.5497    5.2715    3.4133   H         1 RES1   0.0000
   185 H102      7.9052    5.3818    4.0533   H         1 RES1   0.0000
   186 H103      8.4243    6.4553    2.7567   H         1 RES1   0.0000
   187 H104      9.8472    4.5981    0.9145   H         1 RES1   0.0000
   188 H105      8.5740    5.7103    0.4283   H         1 RES1   0.0000
   189 H106      8.4568    3.9996    0.0083   H         1 RES1   0.0000
   190 H107      3.2021   -1.3543    2.2290   H         1 RES1   0.0000
   191 H108      4.1292   -1.0542    0.7302   H         1 RES1   0.0000
   192 H109      2.6461   -3.3088    1.3032   H         1 RES1   0.0000
   193 H110      1.5260   -3.3687   -0.0643   H         1 RES1   0.0000
   194 H111      1.0426   -5.2410    3.8239   H         1 RES1   0.0000
   195 H112      2.2667   -4.4709    2.8390   H         1 RES1   0.0000
   196 H113      0.7314   -5.3821    0.8166   H         1 RES1   0.0000
   197 H114      0.1230   -6.4645    2.0558   H         1 RES1   0.0000
   198 H115      1.8343   -7.6351    0.9229   H         1 RES1   0.0000
   199 H116      2.5101   -7.2056    2.4947   H         1 RES1   0.0000
   200 H117      3.8429   -5.4065    1.4678   H         1 RES1   0.0000
   201 H118      3.0055   -5.6351   -0.0801   H         1 RES1   0.0000
   202 H119      3.9588   -7.8981   -0.2768   H         1 RES1   0.0000
   203 H120      4.7541   -7.7272    1.2866   H         1 RES1   0.0000
   204 H121      5.3040   -5.9937   -1.1742   H         1 RES1   0.0000
   205 H122      6.3324   -7.2864   -0.5655   H         1 RES1   0.0000
   206 H123      6.1152   -5.8295    0.3932   H         1 RES1   0.0000
   207 H124     -0.3654   -2.9004    4.4787   H         1 RES1   0.0000
   208 H125     -0.8528   -4.5584    4.1122   H         1 RES1   0.0000
   209 H126     -2.0732   -2.1587    2.7036   H         1 RES1   0.0000
   210 H127     -2.6260   -2.8572    4.2217   H         1 RES1   0.0000
   211 H128     -2.8005   -5.1022    2.9382   H         1 RES1   0.0000
   212 H129     -4.7245   -2.8231    2.3298   H         1 RES1   0.0000
   213 H130     -4.6699   -3.7376    3.8341   H         1 RES1   0.0000
   214 H131     -5.1130   -4.5473    2.3492   H         1 RES1   0.0000
   215 H132     -1.6559   -4.5712    0.9081   H         1 RES1   0.0000
   216 H133     -2.5708   -3.0714    0.6913   H         1 RES1   0.0000
   217 H134     -3.2911   -4.7350   -0.9128   H         1 RES1   0.0000
   218 H135     -4.5965   -4.3396    0.1830   H         1 RES1   0.0000
   219 H136     -4.8960   -6.5655    0.3949   H         1 RES1   0.0000
   220 H137     -3.4919   -6.5512    1.4424   H         1 RES1   0.0000
   221 H138     -3.3607   -8.3319   -0.1544   H         1 RES1   0.0000
   222 H139     -1.3249   -6.1771   -0.8741   H         1 RES1   0.0000
   223 H140     -1.1704   -7.9016   -1.1972   H         1 RES1   0.0000
   224 H141     -1.2195   -7.3306    0.4668   H         1 RES1   0.0000
   225 H142     -3.4340   -6.2787   -2.4047   H         1 RES1   0.0000
   226 H143     -4.7676   -7.3454   -1.9451   H         1 RES1   0.0000
   227 H144     -3.2680   -8.0233   -2.5599   H         1 RES1   0.0000
   228 O7       -0.8502    0.7849    2.3343   O.3       1 RES1   0.0000
   229 H145     -0.3040    1.2632    2.9783   H         1 RES1   0.0000
   230 H146     -1.6885    0.5928    2.7761   H         1 RES1   0.0000
   231 O8        2.3638    0.8521   -1.2044   O.3       1 RES1   0.0000
   232 H147      2.7071    0.1643   -1.7956   H         1 RES1   0.0000
   233 H148      2.5758    1.6947   -1.6348   H         1 RES1   0.0000
@<TRIPOS>BOND
     1     1    20    1
     2     1    22    1
     3     1    25    1
     4     1   133    1
     5     1   135    1
     6     1   138    1
     7     1   228    1
     8     1   231    1
     9     2     3    1
    10     2    43    1
    11     2    44    1
    12     2    45    1
    13     3     4    1
    14     3    46    1
    15     3    47    1
    16     4     5    1
    17     4    48    1
    18     4    49    1
    19     5     6    1
    20     5    50    1
    21     5    51    1
    22     6     7    1
    23     6    52    1
    24     6    53    1
    25     7     8    1
    26     7    54    1
    27     7    55    1
    28     8     9    1
    29     8    19    1
    30     9    10    1
    31     9    56    1
    32     9    57    1
    33    10    11    1
    34    10    58    1
    35    10    59    1
    36    11    12    1
    37    11    13    1
    38    11    60    1
    39    12    61    1
    40    12    62    1
    41    12    63    1
    42    13    14    1
    43    13    64    1
    44    13    65    1
    45    14    15    1
    46    14    66    1
    47    14    67    1
    48    15    16    1
    49    15    68    1
    50    15    69    1
    51    16    17    1
    52    16    18    1
    53    16    70    1
    54    17    71    1
    55    17    72    1
    56    17    73    1
    57    18    74    1
    58    18    75    1
    59    18    76    1
    60    19    20    2
    61    19    21    1
    62    21    22    1
    63    21    77    1
    64    21    78    1
    65    22    23    1
    66    23    24    1
    67    23    79    1
    68    23    80    1
    69    24    25    2
    70    24    26    1
    71    26    27    1
    72    26    33    1
    73    27    28    1
    74    27    81    1
    75    27    82    1
    76    28    29    1
    77    28    83    1
    78    28    84    1
    79    29    30    1
    80    29    85    1
    81    29    86    1
    82    30    31    1
    83    30    87    1
    84    30    88    1
    85    31    32    1
    86    31    89    1
    87    31    90    1
    88    32    91    1
    89    32    92    1
    90    32    93    1
    91    33    34    1
    92    33    94    1
    93    33    95    1
    94    34    35    1
    95    34    96    1
    96    34    97    1
    97    35    36    1
    98    35    37    1
    99    35    98    1
   100    36    99    1
   101    36   100    1
   102    36   101    1
   103    37    38    1
   104    37   102    1
   105    37   103    1
   106    38    39    1
   107    38   104    1
   108    38   105    1
   109    39    40    1
   110    39   106    1
   111    39   107    1
   112    40    41    1
   113    40    42    1
   114    40   108    1
   115    41   109    1
   116    41   110    1
   117    41   111    1
   118    42   112    1
   119    42   113    1
   120    42   114    1
   121   115   116    1
   122   115   156    1
   123   115   157    1
   124   115   158    1
   125   116   117    1
   126   116   159    1
   127   116   160    1
   128   117   118    1
   129   117   161    1
   130   117   162    1
   131   118   119    1
   132   118   163    1
   133   118   164    1
   134   119   120    1
   135   119   165    1
   136   119   166    1
   137   120   121    1
   138   120   167    1
   139   120   168    1
   140   121   122    1
   141   121   132    1
   142   122   123    1
   143   122   169    1
   144   122   170    1
   145   123   124    1
   146   123   171    1
   147   123   172    1
   148   124   125    1
   149   124   126    1
   150   124   173    1
   151   125   174    1
   152   125   175    1
   153   125   176    1
   154   126   127    1
   155   126   177    1
   156   126   178    1
   157   127   128    1
   158   127   179    1
   159   127   180    1
   160   128   129    1
   161   128   181    1
   162   128   182    1
   163   129   130    1
   164   129   131    1
   165   129   183    1
   166   130   184    1
   167   130   185    1
   168   130   186    1
   169   131   187    1
   170   131   188    1
   171   131   189    1
   172   132   133    2
   173   132   134    1
   174   134   135    1
   175   134   190    1
   176   134   191    1
   177   135   136    1
   178   136   137    1
   179   136   192    1
   180   136   193    1
   181   137   138    2
   182   137   139    1
   183   139   140    1
   184   139   146    1
   185   140   141    1
   186   140   194    1
   187   140   195    1
   188   141   142    1
   189   141   196    1
   190   141   197    1
   191   142   143    1
   192   142   198    1
   193   142   199    1
   194   143   144    1
   195   143   200    1
   196   143   201    1
   197   144   145    1
   198   144   202    1
   199   144   203    1
   200   145   204    1
   201   145   205    1
   202   145   206    1
   203   146   147    1
   204   146   207    1
   205   146   208    1
   206   147   148    1
   207   147   209    1
   208   147   210    1
   209   148   149    1
   210   148   150    1
   211   148   211    1
   212   149   212    1
   213   149   213    1
   214   149   214    1
   215   150   151    1
   216   150   215    1
   217   150   216    1
   218   151   152    1
   219   151   217    1
   220   151   218    1
   221   152   153    1
   222   152   219    1
   223   152   220    1
   224   153   154    1
   225   153   155    1
   226   153   221    1
   227   154   222    1
   228   154   223    1
   229   154   224    1
   230   155   225    1
   231   155   226    1
   232   155   227    1
   233   228   229    1
   234   228   230    1
   235   231   232    1
   236   231   233    1
@<TRIPOS>SUBSTRUCTURE
     1 RES1      233 GROUP             0 ****  ****    0  
