@<TRIPOS>MOLECULE
ICIGOT_geomtry_0_nunpairedes_0_charge_2 Charge: 2 Unpaired_Electrons: 6 XTB_Unpaired_Electrons: 0 XTB_Charge: 2
    91    99     1     0     0
SMALL
NoCharges
****
Generated from Architector

@<TRIPOS>ATOM
     1 Tb1      -0.1699    0.0801    0.2456   Tb        1 RES1   0.0000
     2 C1       -1.3040   -4.7907    2.0789   C.3       1 RES1   0.0000
     3 N1       -0.7533   -3.4957    2.4452   N.am      1 RES1   0.0000
     4 C2       -0.2754   -2.6963    1.4994   C.2       1 RES1   0.0000
     5 O1        0.2747   -1.5899    1.6752   O.2       1 RES1   0.0000
     6 C3       -0.3847   -3.2139    0.0548   C.3       1 RES1   0.0000
     7 O2        0.0252   -2.1828   -0.8335   O.3       1 RES1   0.0000
     8 C4        1.0001   -2.5192   -1.8124   C.3       1 RES1   0.0000
     9 C5        2.2283   -1.6234   -1.5653   C.2       1 RES1   0.0000
    10 O3        2.0354   -0.6722   -0.7833   O.2       1 RES1   0.0000
    11 N2        3.3590   -1.9029   -2.2155   N.am      1 RES1   0.0000
    12 C6        3.4067   -2.9652   -3.2146   C.3       1 RES1   0.0000
    13 C7        4.6025   -1.2061   -2.0278   C.ar      1 RES1   0.0000
    14 C8        5.7152   -1.5330   -2.8059   C.ar      1 RES1   0.0000
    15 C9        6.9209   -0.8778   -2.6245   C.ar      1 RES1   0.0000
    16 C10       7.0573    0.1141   -1.6708   C.ar      1 RES1   0.0000
    17 C11       5.9622    0.4340   -0.8886   C.ar      1 RES1   0.0000
    18 C12       4.7514   -0.2145   -1.0602   C.ar      1 RES1   0.0000
    19 C13      -0.7406   -3.1505    3.8352   C.ar      1 RES1   0.0000
    20 C14      -0.9537   -1.8462    4.2674   C.ar      1 RES1   0.0000
    21 C15      -0.9415   -1.5729    5.6267   C.ar      1 RES1   0.0000
    22 C16      -0.7457   -2.5838    6.5534   C.ar      1 RES1   0.0000
    23 C17      -0.5602   -3.8838    6.1151   C.ar      1 RES1   0.0000
    24 C18      -0.5406   -4.1673    4.7634   C.ar      1 RES1   0.0000
    25 H1       -2.1109   -4.6795    1.3547   H         1 RES1   0.0000
    26 H2       -1.7210   -5.2622    2.9620   H         1 RES1   0.0000
    27 H3       -0.5332   -5.4432    1.6651   H         1 RES1   0.0000
    28 H4       -1.4280   -3.4669   -0.1780   H         1 RES1   0.0000
    29 H5        0.2308   -4.1139   -0.0541   H         1 RES1   0.0000
    30 H6        0.5736   -2.2705   -2.7928   H         1 RES1   0.0000
    31 H7        1.2447   -3.5808   -1.7620   H         1 RES1   0.0000
    32 H8        2.4499   -3.4449   -3.3821   H         1 RES1   0.0000
    33 H9        4.1261   -3.7243   -2.9021   H         1 RES1   0.0000
    34 H10       3.7239   -2.5272   -4.1616   H         1 RES1   0.0000
    35 H11       5.6981   -2.2965   -3.5630   H         1 RES1   0.0000
    36 H12       7.7622   -1.1609   -3.2370   H         1 RES1   0.0000
    37 H13       7.9980    0.6206   -1.5271   H         1 RES1   0.0000
    38 H14       6.0547    1.1859   -0.1230   H         1 RES1   0.0000
    39 H15       3.9305    0.0487   -0.4196   H         1 RES1   0.0000
    40 H16      -1.1485   -1.0497    3.5595   H         1 RES1   0.0000
    41 H17      -1.0957   -0.5593    5.9616   H         1 RES1   0.0000
    42 H18      -0.7318   -2.3697    7.6101   H         1 RES1   0.0000
    43 H19      -0.4325   -4.6792    6.8282   H         1 RES1   0.0000
    44 H20      -0.3611   -5.1819    4.4468   H         1 RES1   0.0000
    45 C19       3.7644    3.6292   -1.1003   C.3       1 RES1   0.0000
    46 N3        3.1582    2.8403   -0.0406   N.am      1 RES1   0.0000
    47 C20       1.9965    2.2175   -0.2325   C.2       1 RES1   0.0000
    48 O4        1.3428    1.6481    0.6604   O.2       1 RES1   0.0000
    49 C21       1.4887    2.2033   -1.6822   C.3       1 RES1   0.0000
    50 O5        0.3809    1.3214   -1.8593   O.3       1 RES1   0.0000
    51 C22      -0.7877    1.9298   -2.4018   C.3       1 RES1   0.0000
    52 C23      -1.7393    2.3180   -1.2507   C.2       1 RES1   0.0000
    53 O6       -1.3247    2.0405   -0.1064   O.2       1 RES1   0.0000
    54 N4       -2.9293    2.8281   -1.5540   N.am      1 RES1   0.0000
    55 C24      -3.2350    3.2751   -2.9096   C.3       1 RES1   0.0000
    56 C25      -4.0041    2.9728   -0.6072   C.ar      1 RES1   0.0000
    57 C26      -5.2125    3.5329   -1.0257   C.ar      1 RES1   0.0000
    58 C27      -6.2786    3.6515   -0.1527   C.ar      1 RES1   0.0000
    59 C28      -6.1756    3.2156    1.1550   C.ar      1 RES1   0.0000
    60 C29      -4.9786    2.6669    1.5782   C.ar      1 RES1   0.0000
    61 C30      -3.9021    2.5463    0.7168   C.ar      1 RES1   0.0000
    62 C31       3.8421    2.7734    1.2142   C.ar      1 RES1   0.0000
    63 C32       3.8150    1.6126    1.9808   C.ar      1 RES1   0.0000
    64 C33       4.5190    1.5649    3.1716   C.ar      1 RES1   0.0000
    65 C34       5.2627    2.6535    3.5960   C.ar      1 RES1   0.0000
    66 C35       5.2969    3.8012    2.8223   C.ar      1 RES1   0.0000
    67 C36       4.5818    3.8696    1.6416   C.ar      1 RES1   0.0000
    68 H21       3.9716    3.0141   -1.9761   H         1 RES1   0.0000
    69 H22       4.7085    4.0313   -0.7472   H         1 RES1   0.0000
    70 H23       3.1176    4.4623   -1.3815   H         1 RES1   0.0000
    71 H24       2.2941    1.8326   -2.3286   H         1 RES1   0.0000
    72 H25       1.2379    3.2238   -1.9868   H         1 RES1   0.0000
    73 H26      -1.2878    1.1570   -2.9960   H         1 RES1   0.0000
    74 H27      -0.5109    2.7795   -3.0300   H         1 RES1   0.0000
    75 H28      -2.4228    3.1117   -3.6085   H         1 RES1   0.0000
    76 H29      -3.4440    4.3470   -2.8815   H         1 RES1   0.0000
    77 H30      -4.1134    2.7458   -3.2818   H         1 RES1   0.0000
    78 H31      -5.3709    3.8892   -2.0275   H         1 RES1   0.0000
    79 H32      -7.1944    4.0967   -0.5096   H         1 RES1   0.0000
    80 H33      -7.0040    3.3059    1.8388   H         1 RES1   0.0000
    81 H34      -4.8728    2.3352    2.5961   H         1 RES1   0.0000
    82 H35      -2.9905    2.1285    1.1117   H         1 RES1   0.0000
    83 H36       3.2522    0.7461    1.6627   H         1 RES1   0.0000
    84 H37       4.4824    0.6658    3.7661   H         1 RES1   0.0000
    85 H38       5.8099    2.6187    4.5240   H         1 RES1   0.0000
    86 H39       5.8803    4.6478    3.1405   H         1 RES1   0.0000
    87 H40       4.6016    4.7865    1.0742   H         1 RES1   0.0000
    88 N5       -2.5817   -0.5968    0.0881   N.3       1 RES1   0.0000
    89 O7       -3.6878   -1.0119   -0.0097   O.2       1 RES1   0.0000
    90 O8       -1.8664   -0.4290   -0.9236   O.co2     1 RES1   0.0000
    91 O9       -2.0612   -0.3516    1.1891   O.co2     1 RES1   0.0000
@<TRIPOS>BOND
     1     1     5    1
     2     1     7    1
     3     1    10    1
     4     1    48    1
     5     1    50    1
     6     1    53    1
     7     1    90    1
     8     1    91    1
     9     2     3    1
    10     2    25    1
    11     2    26    1
    12     2    27    1
    13     3     4    1
    14     3    19    1
    15     4     5    2
    16     4     6    1
    17     6     7    1
    18     6    28    1
    19     6    29    1
    20     7     8    1
    21     8     9    1
    22     8    30    1
    23     8    31    1
    24     9    10    2
    25     9    11    1
    26    11    12    1
    27    11    13    1
    28    12    32    1
    29    12    33    1
    30    12    34    1
    31    13    14    1
    32    13    18    2
    33    14    15    2
    34    14    35    1
    35    15    16    1
    36    15    36    1
    37    16    17    2
    38    16    37    1
    39    17    18    1
    40    17    38    1
    41    18    39    1
    42    19    20    1
    43    19    24    2
    44    20    21    2
    45    20    40    1
    46    21    22    1
    47    21    41    1
    48    22    23    2
    49    22    42    1
    50    23    24    1
    51    23    43    1
    52    24    44    1
    53    45    46    1
    54    45    68    1
    55    45    69    1
    56    45    70    1
    57    46    47    1
    58    46    62    1
    59    47    48    2
    60    47    49    1
    61    49    50    1
    62    49    71    1
    63    49    72    1
    64    50    51    1
    65    51    52    1
    66    51    73    1
    67    51    74    1
    68    52    53    2
    69    52    54    1
    70    54    55    1
    71    54    56    1
    72    55    75    1
    73    55    76    1
    74    55    77    1
    75    56    57    1
    76    56    61    2
    77    57    58    2
    78    57    78    1
    79    58    59    1
    80    58    79    1
    81    59    60    2
    82    59    80    1
    83    60    61    1
    84    60    81    1
    85    61    82    1
    86    62    63    1
    87    62    67    2
    88    63    64    2
    89    63    83    1
    90    64    65    1
    91    64    84    1
    92    65    66    2
    93    65    85    1
    94    66    67    1
    95    66    86    1
    96    67    87    1
    97    88    89    2
    98    88    90    1
    99    88    91    1
@<TRIPOS>SUBSTRUCTURE
     1 RES1       91 GROUP             0 ****  ****    0  
