@<TRIPOS>MOLECULE
YEMSEP_geometry_0_nunpairedes_0_charge_2 Charge: 2 Unpaired_Electrons: 6 XTB_Unpaired_Electrons: 0 XTB_Charge: 2
   249   253     1     0     0
SMALL
NoCharges
****
Generated from Architector

@<TRIPOS>ATOM
     1 Tb1      -0.2242    0.1916    0.1742   Tb        1 RES1   0.0000
     2 C1       -1.9181   -8.1511   -4.1026   C.3       1 RES1   0.0000
     3 C2       -1.1531   -8.5228   -2.8352   C.3       1 RES1   0.0000
     4 C3        0.3217   -8.1326   -2.9336   C.3       1 RES1   0.0000
     5 C4        1.0687   -8.3761   -1.6241   C.3       1 RES1   0.0000
     6 C5        2.5699   -8.0968   -1.7261   C.3       1 RES1   0.0000
     7 C6        2.9510   -6.6738   -2.1573   C.3       1 RES1   0.0000
     8 C7        2.3251   -5.6082   -1.2592   C.3       1 RES1   0.0000
     9 C8        3.0200   -4.2430   -1.3757   C.3       1 RES1   0.0000
    10 N1        2.3733   -3.2750   -0.5035   N.am      1 RES1   0.0000
    11 C9        2.9430   -3.1671    0.8508   C.3       1 RES1   0.0000
    12 C10       3.3487   -4.4356    1.6049   C.3       1 RES1   0.0000
    13 C11       3.8676   -4.0883    3.0144   C.3       1 RES1   0.0000
    14 C12       2.7408   -4.0571    4.0426   C.3       1 RES1   0.0000
    15 C13       3.1006   -3.4812    5.4175   C.3       1 RES1   0.0000
    16 C14       1.8151   -3.1291    6.1639   C.3       1 RES1   0.0000
    17 C15       1.9647   -2.5855    7.5801   C.3       1 RES1   0.0000
    18 C16       0.5991   -2.1478    8.1080   C.3       1 RES1   0.0000
    19 C17       1.3298   -2.4896   -0.7859   C.2       1 RES1   0.0000
    20 O1        0.6822   -1.9639    0.1385   O.2       1 RES1   0.0000
    21 C18       0.9149   -2.0100   -2.2168   C.3       1 RES1   0.0000
    22 C19       0.9698   -3.0013   -3.3765   C.3       1 RES1   0.0000
    23 O2       -0.4004   -1.4857   -1.9468   O.3       1 RES1   0.0000
    24 C20      -1.1924   -0.8305   -2.9452   C.3       1 RES1   0.0000
    25 C21      -2.6430   -1.2218   -2.6117   C.3       1 RES1   0.0000
    26 C22      -3.1108   -0.5740   -1.3093   C.3       1 RES1   0.0000
    27 C23      -1.0186    0.6937   -2.7823   C.2       1 RES1   0.0000
    28 O3       -0.2960    1.0678   -1.8287   O.2       1 RES1   0.0000
    29 N2       -1.6507    1.5727   -3.5462   N.am      1 RES1   0.0000
    30 C24      -2.5573    1.2581   -4.6407   C.3       1 RES1   0.0000
    31 C25      -4.0483    1.3059   -4.2528   C.3       1 RES1   0.0000
    32 C26      -4.6609    2.7029   -4.1700   C.3       1 RES1   0.0000
    33 C27      -6.1029    2.6651   -3.6611   C.3       1 RES1   0.0000
    34 C28      -6.2778    2.1216   -2.2390   C.3       1 RES1   0.0000
    35 C29      -5.3336    2.6950   -1.1786   C.3       1 RES1   0.0000
    36 C30      -5.5005    4.1951   -0.9449   C.3       1 RES1   0.0000
    37 C31      -4.5273    4.6957    0.1153   C.3       1 RES1   0.0000
    38 C32      -1.4746    2.9905   -3.2103   C.3       1 RES1   0.0000
    39 C33      -0.0447    3.5062   -3.4270   C.3       1 RES1   0.0000
    40 C34       0.3719    4.4964   -2.3404   C.3       1 RES1   0.0000
    41 C35       1.8687    4.7743   -2.3698   C.3       1 RES1   0.0000
    42 C36       2.3232    5.6605   -1.2136   C.3       1 RES1   0.0000
    43 C37       2.3130    4.9547    0.1417   C.3       1 RES1   0.0000
    44 C38       2.9579    5.8314    1.2144   C.3       1 RES1   0.0000
    45 C39       2.9965    5.1611    2.5822   C.3       1 RES1   0.0000
    46 H1       -2.9914   -8.1579   -3.9252   H         1 RES1   0.0000
    47 H2       -1.6995   -8.8521   -4.9018   H         1 RES1   0.0000
    48 H3       -1.6411   -7.1573   -4.4482   H         1 RES1   0.0000
    49 H4       -1.2409   -9.5967   -2.6665   H         1 RES1   0.0000
    50 H5       -1.6019   -8.0294   -1.9685   H         1 RES1   0.0000
    51 H6        0.3849   -7.0754   -3.2049   H         1 RES1   0.0000
    52 H7        0.7886   -8.7083   -3.7352   H         1 RES1   0.0000
    53 H8        0.9441   -9.4185   -1.3231   H         1 RES1   0.0000
    54 H9        0.6271   -7.7639   -0.8330   H         1 RES1   0.0000
    55 H10       3.0131   -8.7939   -2.4395   H         1 RES1   0.0000
    56 H11       3.0257   -8.3098   -0.7556   H         1 RES1   0.0000
    57 H12       2.6624   -6.5074   -3.1971   H         1 RES1   0.0000
    58 H13       4.0380   -6.5916   -2.0983   H         1 RES1   0.0000
    59 H14       2.3836   -5.9560   -0.2305   H         1 RES1   0.0000
    60 H15       1.2704   -5.4927   -1.5031   H         1 RES1   0.0000
    61 H16       3.0189   -3.8961   -2.4046   H         1 RES1   0.0000
    62 H17       4.0591   -4.3117   -1.0537   H         1 RES1   0.0000
    63 H18       2.2186   -2.6128    1.4479   H         1 RES1   0.0000
    64 H19       3.8466   -2.5594    0.7306   H         1 RES1   0.0000
    65 H20       4.1401   -4.9566    1.0670   H         1 RES1   0.0000
    66 H21       2.5052   -5.1160    1.7030   H         1 RES1   0.0000
    67 H22       4.3635   -3.1176    2.9976   H         1 RES1   0.0000
    68 H23       4.6127   -4.8265    3.3080   H         1 RES1   0.0000
    69 H24       2.3666   -5.0723    4.1781   H         1 RES1   0.0000
    70 H25       1.9275   -3.4624    3.6190   H         1 RES1   0.0000
    71 H26       3.7120   -2.5834    5.3143   H         1 RES1   0.0000
    72 H27       3.6762   -4.2063    5.9895   H         1 RES1   0.0000
    73 H28       1.1802   -4.0161    6.2024   H         1 RES1   0.0000
    74 H29       1.2937   -2.3615    5.5880   H         1 RES1   0.0000
    75 H30       2.6454   -1.7318    7.5783   H         1 RES1   0.0000
    76 H31       2.3803   -3.3541    8.2318   H         1 RES1   0.0000
    77 H32       0.1881   -1.3409    7.5003   H         1 RES1   0.0000
    78 H33       0.6765   -1.7935    9.1312   H         1 RES1   0.0000
    79 H34      -0.1015   -2.9811    8.0877   H         1 RES1   0.0000
    80 H35       1.5926   -1.1672   -2.4467   H         1 RES1   0.0000
    81 H36       0.6990   -3.9999   -3.0589   H         1 RES1   0.0000
    82 H37       1.9576   -3.0076   -3.8278   H         1 RES1   0.0000
    83 H38       0.2870   -2.7060   -4.1684   H         1 RES1   0.0000
    84 H39      -0.9114   -1.1641   -3.9504   H         1 RES1   0.0000
    85 H40      -2.6788   -2.3022   -2.5100   H         1 RES1   0.0000
    86 H41      -3.2991   -0.9500   -3.4317   H         1 RES1   0.0000
    87 H42      -2.4336   -0.8274   -0.4777   H         1 RES1   0.0000
    88 H43      -4.1049   -0.9305   -1.0538   H         1 RES1   0.0000
    89 H44      -3.1703    0.5134   -1.3764   H         1 RES1   0.0000
    90 H45      -2.3116    0.2689   -5.0315   H         1 RES1   0.0000
    91 H46      -2.3803    1.9830   -5.4367   H         1 RES1   0.0000
    92 H47      -4.1985    0.8277   -3.2902   H         1 RES1   0.0000
    93 H48      -4.6010    0.7362   -5.0039   H         1 RES1   0.0000
    94 H49      -4.6575    3.1585   -5.1608   H         1 RES1   0.0000
    95 H50      -4.0889    3.3402   -3.4999   H         1 RES1   0.0000
    96 H51      -6.7070    2.0519   -4.3313   H         1 RES1   0.0000
    97 H52      -6.5025    3.6775   -3.7094   H         1 RES1   0.0000
    98 H53      -6.1696    1.0337   -2.2507   H         1 RES1   0.0000
    99 H54      -7.3044    2.3347   -1.9361   H         1 RES1   0.0000
   100 H55      -4.2893    2.4927   -1.4345   H         1 RES1   0.0000
   101 H56      -5.5323    2.1740   -0.2370   H         1 RES1   0.0000
   102 H57      -6.5257    4.3915   -0.6247   H         1 RES1   0.0000
   103 H58      -5.3320    4.7418   -1.8745   H         1 RES1   0.0000
   104 H59      -4.6792    4.1589    1.0486   H         1 RES1   0.0000
   105 H60      -4.6746    5.7555    0.3003   H         1 RES1   0.0000
   106 H61      -3.4964    4.5493   -0.1992   H         1 RES1   0.0000
   107 H62      -1.7535    3.1256   -2.1602   H         1 RES1   0.0000
   108 H63      -2.1681    3.5536   -3.8268   H         1 RES1   0.0000
   109 H64       0.0255    3.9759   -4.4076   H         1 RES1   0.0000
   110 H65       0.6451    2.6642   -3.4152   H         1 RES1   0.0000
   111 H66       0.1185    4.0837   -1.3675   H         1 RES1   0.0000
   112 H67      -0.1814    5.4289   -2.4509   H         1 RES1   0.0000
   113 H68       2.1247    5.2552   -3.3146   H         1 RES1   0.0000
   114 H69       2.4033    3.8260   -2.3205   H         1 RES1   0.0000
   115 H70       1.6830    6.5416   -1.1673   H         1 RES1   0.0000
   116 H71       3.3393    6.0028   -1.4170   H         1 RES1   0.0000
   117 H72       2.8547    4.0053    0.0636   H         1 RES1   0.0000
   118 H73       1.2871    4.7330    0.4368   H         1 RES1   0.0000
   119 H74       2.3947    6.7627    1.2920   H         1 RES1   0.0000
   120 H75       3.9773    6.0837    0.9121   H         1 RES1   0.0000
   121 H76       1.9997    4.8460    2.8829   H         1 RES1   0.0000
   122 H77       3.3740    5.8507    3.3323   H         1 RES1   0.0000
   123 H78       3.6496    4.2912    2.5676   H         1 RES1   0.0000
   124 C40       8.4046   -2.7906   -3.3657   C.3       1 RES1   0.0000
   125 C41       8.5618   -3.0605   -1.8742   C.3       1 RES1   0.0000
   126 C42       7.2875   -3.6140   -1.2361   C.3       1 RES1   0.0000
   127 C43       7.4943   -4.0400    0.2187   C.3       1 RES1   0.0000
   128 C44       7.8307   -2.9232    1.2084   C.3       1 RES1   0.0000
   129 C45       6.6382   -2.0444    1.6105   C.3       1 RES1   0.0000
   130 C46       6.5197   -0.7580    0.7960   C.3       1 RES1   0.0000
   131 C47       5.3046    0.1122    1.1771   C.3       1 RES1   0.0000
   132 N3        4.1363   -0.0200    0.3063   N.am      1 RES1   0.0000
   133 C48       4.3752   -0.1466   -1.1410   C.3       1 RES1   0.0000
   134 C49       5.3929    0.8335   -1.7253   C.3       1 RES1   0.0000
   135 C50       4.7904    2.1909   -2.0995   C.3       1 RES1   0.0000
   136 C51       4.4371    2.3346   -3.5817   C.3       1 RES1   0.0000
   137 C52       3.1692    1.5865   -4.0248   C.3       1 RES1   0.0000
   138 C53       3.4030    0.2850   -4.8083   C.3       1 RES1   0.0000
   139 C54       3.2489    0.4666   -6.3219   C.3       1 RES1   0.0000
   140 C55       4.2644    1.4301   -6.9224   C.3       1 RES1   0.0000
   141 C56       2.8657    0.1272    0.6952   C.2       1 RES1   0.0000
   142 O4        1.9614    0.2428   -0.1537   O.2       1 RES1   0.0000
   143 C57       2.4315    0.1082    2.1879   C.3       1 RES1   0.0000
   144 C58       2.7094    1.4867    2.7958   C.3       1 RES1   0.0000
   145 O5        1.0186   -0.1722    2.1668   O.3       1 RES1   0.0000
   146 C59       0.4061   -0.8921    3.2573   C.3       1 RES1   0.0000
   147 C60      -0.0465    0.0621    4.3798   C.3       1 RES1   0.0000
   148 C61      -0.8789    1.2278    3.8491   C.3       1 RES1   0.0000
   149 C62      -0.8067   -1.6075    2.5963   C.2       1 RES1   0.0000
   150 O6       -1.3436   -0.9863    1.6507   O.2       1 RES1   0.0000
   151 N4       -1.2409   -2.8221    2.9468   N.am      1 RES1   0.0000
   152 C63      -2.0279   -3.5619    1.9554   C.3       1 RES1   0.0000
   153 C64      -1.2658   -4.7700    1.4010   C.3       1 RES1   0.0000
   154 C65      -1.8913   -5.2562    0.0899   C.3       1 RES1   0.0000
   155 C66      -1.4664   -4.3530   -1.0580   C.3       1 RES1   0.0000
   156 C67      -1.9509   -4.7694   -2.4446   C.3       1 RES1   0.0000
   157 C68      -3.4663   -4.7254   -2.6625   C.3       1 RES1   0.0000
   158 C69      -3.7945   -4.4466   -4.1328   C.3       1 RES1   0.0000
   159 C70      -5.2881   -4.5342   -4.4167   C.3       1 RES1   0.0000
   160 C71      -0.8757   -3.5371    4.1665   C.3       1 RES1   0.0000
   161 C72      -1.9922   -4.3453    4.8490   C.3       1 RES1   0.0000
   162 C73      -3.1160   -3.5180    5.4737   C.3       1 RES1   0.0000
   163 C74      -4.0780   -2.9603    4.4327   C.3       1 RES1   0.0000
   164 C75      -5.2780   -2.2479    5.0437   C.3       1 RES1   0.0000
   165 C76      -6.3058   -1.8404    3.9857   C.3       1 RES1   0.0000
   166 C77      -5.7372   -0.9256    2.9003   C.3       1 RES1   0.0000
   167 C78      -6.8264   -0.4173    1.9664   C.3       1 RES1   0.0000
   168 H79       9.3387   -2.4162   -3.7752   H         1 RES1   0.0000
   169 H80       7.6306   -2.0477   -3.5515   H         1 RES1   0.0000
   170 H81       8.1424   -3.7028   -3.8957   H         1 RES1   0.0000
   171 H82       8.8554   -2.1338   -1.3777   H         1 RES1   0.0000
   172 H83       9.3656   -3.7840   -1.7265   H         1 RES1   0.0000
   173 H84       6.9683   -4.4922   -1.8049   H         1 RES1   0.0000
   174 H85       6.4823   -2.8775   -1.3112   H         1 RES1   0.0000
   175 H86       8.3105   -4.7627    0.2401   H         1 RES1   0.0000
   176 H87       6.5994   -4.5581    0.5742   H         1 RES1   0.0000
   177 H88       8.6319   -2.3020    0.8128   H         1 RES1   0.0000
   178 H89       8.2130   -3.3972    2.1128   H         1 RES1   0.0000
   179 H90       6.7483   -1.7666    2.6612   H         1 RES1   0.0000
   180 H91       5.7276   -2.6335    1.5100   H         1 RES1   0.0000
   181 H92       6.5108   -0.9984   -0.2615   H         1 RES1   0.0000
   182 H93       7.4230   -0.1748    0.9776   H         1 RES1   0.0000
   183 H94       5.6110    1.1646    1.1448   H         1 RES1   0.0000
   184 H95       5.0017   -0.1113    2.2009   H         1 RES1   0.0000
   185 H96       3.4100    0.0071   -1.6226   H         1 RES1   0.0000
   186 H97       4.6740   -1.1839   -1.3389   H         1 RES1   0.0000
   187 H98       5.8271    0.3732   -2.6137   H         1 RES1   0.0000
   188 H99       6.2007    0.9951   -1.0176   H         1 RES1   0.0000
   189 H100      5.5195    2.9671   -1.8612   H         1 RES1   0.0000
   190 H101      3.9085    2.3779   -1.4823   H         1 RES1   0.0000
   191 H102      5.2938    2.0109   -4.1741   H         1 RES1   0.0000
   192 H103      4.3010    3.3996   -3.7762   H         1 RES1   0.0000
   193 H104      2.5875    2.2525   -4.6634   H         1 RES1   0.0000
   194 H105      2.5545    1.3708   -3.1443   H         1 RES1   0.0000
   195 H106      2.6704   -0.4648   -4.4904   H         1 RES1   0.0000
   196 H107      4.3933   -0.1227   -4.5982   H         1 RES1   0.0000
   197 H108      2.2406    0.8306   -6.5391   H         1 RES1   0.0000
   198 H109      3.3547   -0.5078   -6.8060   H         1 RES1   0.0000
   199 H110      4.1460    2.4293   -6.5114   H         1 RES1   0.0000
   200 H111      4.1321    1.4895   -7.9999   H         1 RES1   0.0000
   201 H112      5.2781    1.0905   -6.7241   H         1 RES1   0.0000
   202 H113      2.9565   -0.6926    2.7303   H         1 RES1   0.0000
   203 H114      2.0704    2.2195    2.3020   H         1 RES1   0.0000
   204 H115      3.7466    1.7724    2.6404   H         1 RES1   0.0000
   205 H116      2.5105    1.4993    3.8654   H         1 RES1   0.0000
   206 H117      1.1208   -1.6270    3.6472   H         1 RES1   0.0000
   207 H118      0.8382    0.4439    4.8948   H         1 RES1   0.0000
   208 H119     -0.6315   -0.5076    5.1050   H         1 RES1   0.0000
   209 H120     -0.2605    1.9335    3.2953   H         1 RES1   0.0000
   210 H121     -1.3268    1.7665    4.6814   H         1 RES1   0.0000
   211 H122     -1.6843    0.8682    3.2052   H         1 RES1   0.0000
   212 H123     -2.2578   -2.8502    1.1649   H         1 RES1   0.0000
   213 H124     -2.9701   -3.8955    2.3822   H         1 RES1   0.0000
   214 H125     -1.2692   -5.5805    2.1293   H         1 RES1   0.0000
   215 H126     -0.2263   -4.4877    1.2171   H         1 RES1   0.0000
   216 H127     -2.9768   -5.2753    0.1770   H         1 RES1   0.0000
   217 H128     -1.5630   -6.2746   -0.1195   H         1 RES1   0.0000
   218 H129     -0.3746   -4.3523   -1.0765   H         1 RES1   0.0000
   219 H130     -1.7772   -3.3301   -0.8438   H         1 RES1   0.0000
   220 H131     -1.5878   -5.7693   -2.6697   H         1 RES1   0.0000
   221 H132     -1.4800   -4.1042   -3.1718   H         1 RES1   0.0000
   222 H133     -3.9254   -3.9575   -2.0347   H         1 RES1   0.0000
   223 H134     -3.9114   -5.6769   -2.3767   H         1 RES1   0.0000
   224 H135     -3.2673   -5.1668   -4.7615   H         1 RES1   0.0000
   225 H136     -3.4341   -3.4490   -4.4058   H         1 RES1   0.0000
   226 H137     -5.6527   -5.5345   -4.1942   H         1 RES1   0.0000
   227 H138     -5.4877   -4.3191   -5.4646   H         1 RES1   0.0000
   228 H139     -5.8346   -3.8190   -3.8038   H         1 RES1   0.0000
   229 H140     -0.5195   -2.8099    4.8921   H         1 RES1   0.0000
   230 H141     -0.0660   -4.2382    3.9372   H         1 RES1   0.0000
   231 H142     -1.4954   -4.9001    5.6484   H         1 RES1   0.0000
   232 H143     -2.4124   -5.0857    4.1688   H         1 RES1   0.0000
   233 H144     -2.6948   -2.7056    6.0683   H         1 RES1   0.0000
   234 H145     -3.6767   -4.1562    6.1577   H         1 RES1   0.0000
   235 H146     -4.4519   -3.7927    3.8310   H         1 RES1   0.0000
   236 H147     -3.5455   -2.2602    3.7896   H         1 RES1   0.0000
   237 H148     -4.9328   -1.3664    5.5861   H         1 RES1   0.0000
   238 H149     -5.7587   -2.9151    5.7608   H         1 RES1   0.0000
   239 H150     -7.1273   -1.3264    4.4874   H         1 RES1   0.0000
   240 H151     -6.7193   -2.7380    3.5184   H         1 RES1   0.0000
   241 H152     -4.9913   -1.4640    2.3090   H         1 RES1   0.0000
   242 H153     -5.2395   -0.0764    3.3742   H         1 RES1   0.0000
   243 H154     -7.3379   -1.2500    1.4909   H         1 RES1   0.0000
   244 H155     -6.4014    0.2170    1.1925   H         1 RES1   0.0000
   245 H156     -7.5599    0.1625    2.5174   H         1 RES1   0.0000
   246 N5       -0.8715    2.4974    0.5040   N.3       1 RES1   0.0000
   247 O7       -1.1536    3.6395    0.3177   O.2       1 RES1   0.0000
   248 O8       -1.7275    1.6036    0.4141   O.co2     1 RES1   0.0000
   249 O9        0.2784    2.1551    0.8029   O.co2     1 RES1   0.0000
@<TRIPOS>BOND
     1     1    20    1
     2     1    23    1
     3     1    28    1
     4     1   142    1
     5     1   145    1
     6     1   150    1
     7     1   248    1
     8     1   249    1
     9     2     3    1
    10     2    46    1
    11     2    47    1
    12     2    48    1
    13     3     4    1
    14     3    49    1
    15     3    50    1
    16     4     5    1
    17     4    51    1
    18     4    52    1
    19     5     6    1
    20     5    53    1
    21     5    54    1
    22     6     7    1
    23     6    55    1
    24     6    56    1
    25     7     8    1
    26     7    57    1
    27     7    58    1
    28     8     9    1
    29     8    59    1
    30     8    60    1
    31     9    10    1
    32     9    61    1
    33     9    62    1
    34    10    11    1
    35    10    19    1
    36    11    12    1
    37    11    63    1
    38    11    64    1
    39    12    13    1
    40    12    65    1
    41    12    66    1
    42    13    14    1
    43    13    67    1
    44    13    68    1
    45    14    15    1
    46    14    69    1
    47    14    70    1
    48    15    16    1
    49    15    71    1
    50    15    72    1
    51    16    17    1
    52    16    73    1
    53    16    74    1
    54    17    18    1
    55    17    75    1
    56    17    76    1
    57    18    77    1
    58    18    78    1
    59    18    79    1
    60    19    20    2
    61    19    21    1
    62    21    22    1
    63    21    23    1
    64    21    80    1
    65    22    81    1
    66    22    82    1
    67    22    83    1
    68    23    24    1
    69    24    25    1
    70    24    27    1
    71    24    84    1
    72    25    26    1
    73    25    85    1
    74    25    86    1
    75    26    87    1
    76    26    88    1
    77    26    89    1
    78    27    28    2
    79    27    29    1
    80    29    30    1
    81    29    38    1
    82    30    31    1
    83    30    90    1
    84    30    91    1
    85    31    32    1
    86    31    92    1
    87    31    93    1
    88    32    33    1
    89    32    94    1
    90    32    95    1
    91    33    34    1
    92    33    96    1
    93    33    97    1
    94    34    35    1
    95    34    98    1
    96    34    99    1
    97    35    36    1
    98    35   100    1
    99    35   101    1
   100    36    37    1
   101    36   102    1
   102    36   103    1
   103    37   104    1
   104    37   105    1
   105    37   106    1
   106    38    39    1
   107    38   107    1
   108    38   108    1
   109    39    40    1
   110    39   109    1
   111    39   110    1
   112    40    41    1
   113    40   111    1
   114    40   112    1
   115    41    42    1
   116    41   113    1
   117    41   114    1
   118    42    43    1
   119    42   115    1
   120    42   116    1
   121    43    44    1
   122    43   117    1
   123    43   118    1
   124    44    45    1
   125    44   119    1
   126    44   120    1
   127    45   121    1
   128    45   122    1
   129    45   123    1
   130   124   125    1
   131   124   168    1
   132   124   169    1
   133   124   170    1
   134   125   126    1
   135   125   171    1
   136   125   172    1
   137   126   127    1
   138   126   173    1
   139   126   174    1
   140   127   128    1
   141   127   175    1
   142   127   176    1
   143   128   129    1
   144   128   177    1
   145   128   178    1
   146   129   130    1
   147   129   179    1
   148   129   180    1
   149   130   131    1
   150   130   181    1
   151   130   182    1
   152   131   132    1
   153   131   183    1
   154   131   184    1
   155   132   133    1
   156   132   141    1
   157   133   134    1
   158   133   185    1
   159   133   186    1
   160   134   135    1
   161   134   187    1
   162   134   188    1
   163   135   136    1
   164   135   189    1
   165   135   190    1
   166   136   137    1
   167   136   191    1
   168   136   192    1
   169   137   138    1
   170   137   193    1
   171   137   194    1
   172   138   139    1
   173   138   195    1
   174   138   196    1
   175   139   140    1
   176   139   197    1
   177   139   198    1
   178   140   199    1
   179   140   200    1
   180   140   201    1
   181   141   142    2
   182   141   143    1
   183   143   144    1
   184   143   145    1
   185   143   202    1
   186   144   203    1
   187   144   204    1
   188   144   205    1
   189   145   146    1
   190   146   147    1
   191   146   149    1
   192   146   206    1
   193   147   148    1
   194   147   207    1
   195   147   208    1
   196   148   209    1
   197   148   210    1
   198   148   211    1
   199   149   150    2
   200   149   151    1
   201   151   152    1
   202   151   160    1
   203   152   153    1
   204   152   212    1
   205   152   213    1
   206   153   154    1
   207   153   214    1
   208   153   215    1
   209   154   155    1
   210   154   216    1
   211   154   217    1
   212   155   156    1
   213   155   218    1
   214   155   219    1
   215   156   157    1
   216   156   220    1
   217   156   221    1
   218   157   158    1
   219   157   222    1
   220   157   223    1
   221   158   159    1
   222   158   224    1
   223   158   225    1
   224   159   226    1
   225   159   227    1
   226   159   228    1
   227   160   161    1
   228   160   229    1
   229   160   230    1
   230   161   162    1
   231   161   231    1
   232   161   232    1
   233   162   163    1
   234   162   233    1
   235   162   234    1
   236   163   164    1
   237   163   235    1
   238   163   236    1
   239   164   165    1
   240   164   237    1
   241   164   238    1
   242   165   166    1
   243   165   239    1
   244   165   240    1
   245   166   167    1
   246   166   241    1
   247   166   242    1
   248   167   243    1
   249   167   244    1
   250   167   245    1
   251   246   247    2
   252   246   248    1
   253   246   249    1
@<TRIPOS>SUBSTRUCTURE
     1 RES1      249 GROUP             0 ****  ****    0  
