@<TRIPOS>MOLECULE
YEMSEP_geometry_0_nunpairedes_0_charge_3 Charge: 3 Unpaired_Electrons: 6 XTB_Unpaired_Electrons: 0 XTB_Charge: 3
   233   236     1     0     0
SMALL
NoCharges
****
Generated from Architector

@<TRIPOS>ATOM
     1 Tb1      -0.0681    0.1463    0.0134   Tb        1 RES1   0.0000
     2 C1        2.8257    5.3633   -4.8595   C.3       1 RES1   0.0000
     3 C2        2.9705    4.3530   -5.9934   C.3       1 RES1   0.0000
     4 C3        4.2743    3.5329   -5.9724   C.3       1 RES1   0.0000
     5 C4        4.7897    2.9968   -4.6202   C.3       1 RES1   0.0000
     6 C5        4.8267    1.4692   -4.5399   C.3       1 RES1   0.0000
     7 C6        5.5172    0.9044   -3.2914   C.3       1 RES1   0.0000
     8 C7        4.6674    0.7046   -2.0205   C.3       1 RES1   0.0000
     9 C8        4.4124    1.9849   -1.2108   C.3       1 RES1   0.0000
    10 N1        4.0744    1.7694    0.2097   N.am      1 RES1   0.0000
    11 C9        4.9973    2.3001    1.2047   C.3       1 RES1   0.0000
    12 C10       4.5816    3.7041    1.6654   C.3       1 RES1   0.0000
    13 C11       4.9296    4.8344    0.6878   C.3       1 RES1   0.0000
    14 C12       3.9785    6.0246    0.8400   C.3       1 RES1   0.0000
    15 C13       2.6397    5.7853    0.1375   C.3       1 RES1   0.0000
    16 C14       1.6494    6.9216    0.4060   C.3       1 RES1   0.0000
    17 C15       0.4592    6.9329   -0.5528   C.3       1 RES1   0.0000
    18 C16      -0.3473    5.6418   -0.4976   C.3       1 RES1   0.0000
    19 C17       2.8851    1.2889    0.5372   C.2       1 RES1   0.0000
    20 O1        2.0586    0.9331   -0.3315   O.2       1 RES1   0.0000
    21 C18       2.4477    1.1233    2.0059   C.3       1 RES1   0.0000
    22 O2        1.0508    0.7981    1.9863   O.3       1 RES1   0.0000
    23 C19       0.2792    1.1355    3.1485   C.3       1 RES1   0.0000
    24 C20      -1.1793    1.2369    2.6728   C.2       1 RES1   0.0000
    25 O3       -1.4355    0.6786    1.5839   O.2       1 RES1   0.0000
    26 N2       -2.1060    1.8954    3.3514   N.am      1 RES1   0.0000
    27 C21      -1.8571    2.5226    4.6478   C.3       1 RES1   0.0000
    28 C22      -1.5021    1.5849    5.8060   C.3       1 RES1   0.0000
    29 C23      -2.5766    0.5426    6.1243   C.3       1 RES1   0.0000
    30 C24      -2.4726   -0.7546    5.3220   C.3       1 RES1   0.0000
    31 C25      -1.2725   -1.6116    5.7209   C.3       1 RES1   0.0000
    32 C26      -1.2964   -2.9710    5.0243   C.3       1 RES1   0.0000
    33 C27      -0.0141   -3.7758    5.2388   C.3       1 RES1   0.0000
    34 C28       0.1884   -4.1942    6.6903   C.3       1 RES1   0.0000
    35 C29      -3.3714    2.2278    2.6568   C.3       1 RES1   0.0000
    36 C30      -4.2026    1.0959    2.0307   C.3       1 RES1   0.0000
    37 C31      -5.0714    0.2965    3.0037   C.3       1 RES1   0.0000
    38 C32      -5.3907   -1.1253    2.5284   C.3       1 RES1   0.0000
    39 C33      -6.4154   -1.2424    1.3955   C.3       1 RES1   0.0000
    40 C34      -5.9617   -0.8359   -0.0086   C.3       1 RES1   0.0000
    41 C35      -4.6992   -1.5243   -0.5305   C.3       1 RES1   0.0000
    42 C36      -4.8444   -3.0385   -0.6360   C.3       1 RES1   0.0000
    43 H1        1.9024    5.9293   -4.9635   H         1 RES1   0.0000
    44 H2        3.6603    6.0550   -4.8701   H         1 RES1   0.0000
    45 H3        2.8197    4.8835   -3.8858   H         1 RES1   0.0000
    46 H4        2.9601    4.9025   -6.9365   H         1 RES1   0.0000
    47 H5        2.0999    3.6935   -6.0287   H         1 RES1   0.0000
    48 H6        5.0520    4.1626   -6.3994   H         1 RES1   0.0000
    49 H7        4.1407    2.7005   -6.6644   H         1 RES1   0.0000
    50 H8        4.2210    3.4058   -3.7885   H         1 RES1   0.0000
    51 H9        5.8097    3.3526   -4.4836   H         1 RES1   0.0000
    52 H10       5.3889    1.1118   -5.4026   H         1 RES1   0.0000
    53 H11       3.8258    1.0484   -4.6222   H         1 RES1   0.0000
    54 H12       6.3848    1.5219   -3.0569   H         1 RES1   0.0000
    55 H13       5.8945   -0.0856   -3.5547   H         1 RES1   0.0000
    56 H14       5.2267    0.0192   -1.3787   H         1 RES1   0.0000
    57 H15       3.7157    0.2313   -2.2785   H         1 RES1   0.0000
    58 H16       3.6078    2.5583   -1.6762   H         1 RES1   0.0000
    59 H17       5.3250    2.5797   -1.2355   H         1 RES1   0.0000
    60 H18       5.9920    2.3416    0.7633   H         1 RES1   0.0000
    61 H19       5.0299    1.6217    2.0588   H         1 RES1   0.0000
    62 H20       5.0589    3.8999    2.6250   H         1 RES1   0.0000
    63 H21       3.5015    3.7132    1.8264   H         1 RES1   0.0000
    64 H22       4.8640    4.4896   -0.3424   H         1 RES1   0.0000
    65 H23       5.9514    5.1672    0.8585   H         1 RES1   0.0000
    66 H24       4.4403    6.9120    0.4069   H         1 RES1   0.0000
    67 H25       3.8070    6.2259    1.8986   H         1 RES1   0.0000
    68 H26       2.2172    4.8272    0.4706   H         1 RES1   0.0000
    69 H27       2.8096    5.7126   -0.9411   H         1 RES1   0.0000
    70 H28       2.1802    7.8657    0.2943   H         1 RES1   0.0000
    71 H29       1.2950    6.8693    1.4390   H         1 RES1   0.0000
    72 H30       0.8184    7.0822   -1.5717   H         1 RES1   0.0000
    73 H31      -0.1886    7.7714   -0.2978   H         1 RES1   0.0000
    74 H32       0.2628    4.8270   -0.8831   H         1 RES1   0.0000
    75 H33      -1.2361    5.7258   -1.1156   H         1 RES1   0.0000
    76 H34      -0.6621    5.4469    0.5288   H         1 RES1   0.0000
    77 H35       2.6099    2.0318    2.5889   H         1 RES1   0.0000
    78 H36       3.0228    0.3028    2.4534   H         1 RES1   0.0000
    79 H37       0.6230    2.0771    3.5820   H         1 RES1   0.0000
    80 H38       0.3472    0.3392    3.8981   H         1 RES1   0.0000
    81 H39      -2.7729    3.0436    4.9242   H         1 RES1   0.0000
    82 H40      -1.0655    3.2734    4.5447   H         1 RES1   0.0000
    83 H41      -1.3889    2.2284    6.6779   H         1 RES1   0.0000
    84 H42      -0.5411    1.1006    5.6477   H         1 RES1   0.0000
    85 H43      -3.5570    0.9878    5.9592   H         1 RES1   0.0000
    86 H44      -2.5194    0.2844    7.1827   H         1 RES1   0.0000
    87 H45      -2.4272   -0.5478    4.2488   H         1 RES1   0.0000
    88 H46      -3.3762   -1.3382    5.5088   H         1 RES1   0.0000
    89 H47      -1.2844   -1.7604    6.8003   H         1 RES1   0.0000
    90 H48      -0.3356   -1.1030    5.4689   H         1 RES1   0.0000
    91 H49      -1.4485   -2.8113    3.9482   H         1 RES1   0.0000
    92 H50      -2.1487   -3.5464    5.3874   H         1 RES1   0.0000
    93 H51       0.8442   -3.1790    4.9145   H         1 RES1   0.0000
    94 H52      -0.0553   -4.6720    4.6147   H         1 RES1   0.0000
    95 H53       0.3358   -3.3317    7.3348   H         1 RES1   0.0000
    96 H54       1.0629   -4.8338    6.7743   H         1 RES1   0.0000
    97 H55      -0.6728   -4.7505    7.0500   H         1 RES1   0.0000
    98 H56      -3.1076    2.9187    1.8445   H         1 RES1   0.0000
    99 H57      -4.0057    2.7550    3.3679   H         1 RES1   0.0000
   100 H58      -3.5417    0.4235    1.4903   H         1 RES1   0.0000
   101 H59      -4.8434    1.5793    1.2935   H         1 RES1   0.0000
   102 H60      -6.0070    0.8238    3.1892   H         1 RES1   0.0000
   103 H61      -4.5504    0.2152    3.9542   H         1 RES1   0.0000
   104 H62      -5.8081   -1.6656    3.3819   H         1 RES1   0.0000
   105 H63      -4.4637   -1.6328    2.2481   H         1 RES1   0.0000
   106 H64      -7.2858   -0.6337    1.6476   H         1 RES1   0.0000
   107 H65      -6.7544   -2.2797    1.3626   H         1 RES1   0.0000
   108 H66      -5.8081    0.2416   -0.0510   H         1 RES1   0.0000
   109 H67      -6.7821   -1.0654   -0.6898   H         1 RES1   0.0000
   110 H68      -3.8417   -1.2740    0.1039   H         1 RES1   0.0000
   111 H69      -4.4871   -1.1172   -1.5248   H         1 RES1   0.0000
   112 H70      -5.0018   -3.4895    0.3397   H         1 RES1   0.0000
   113 H71      -3.9566   -3.4927   -1.0791   H         1 RES1   0.0000
   114 H72      -5.7002   -3.2883   -1.2576   H         1 RES1   0.0000
   115 C37      -0.6918    7.1122   -4.0538   C.3       1 RES1   0.0000
   116 C38      -2.0994    7.5125   -3.6281   C.3       1 RES1   0.0000
   117 C39      -3.1851    6.7283   -4.3666   C.3       1 RES1   0.0000
   118 C40      -3.3096    5.2436   -4.0028   C.3       1 RES1   0.0000
   119 C41      -3.8798    5.0188   -2.5985   C.3       1 RES1   0.0000
   120 C42      -4.6498    3.7085   -2.3957   C.3       1 RES1   0.0000
   121 C43      -3.8361    2.4344   -2.1325   C.3       1 RES1   0.0000
   122 C44      -3.1621    1.8964   -3.3981   C.3       1 RES1   0.0000
   123 N3       -2.8550    0.4546   -3.4197   N.am      1 RES1   0.0000
   124 C45      -3.5554   -0.3728   -4.4072   C.3       1 RES1   0.0000
   125 C46      -2.8143   -0.9983   -5.6023   C.3       1 RES1   0.0000
   126 C47      -2.1763   -0.0671   -6.6462   C.3       1 RES1   0.0000
   127 C48      -0.6658    0.1222   -6.4865   C.3       1 RES1   0.0000
   128 C49      -0.3309    1.1300   -5.3907   C.3       1 RES1   0.0000
   129 C50       1.1261    1.1318   -4.9384   C.3       1 RES1   0.0000
   130 C51       1.3857    2.1903   -3.8632   C.3       1 RES1   0.0000
   131 C52       0.6102    1.9724   -2.5712   C.3       1 RES1   0.0000
   132 C53      -2.0236   -0.0231   -2.5048   C.2       1 RES1   0.0000
   133 O4       -1.6810    0.6353   -1.4953   O.2       1 RES1   0.0000
   134 C54      -1.3258   -1.3769   -2.7137   C.3       1 RES1   0.0000
   135 O5       -0.2977   -1.4591   -1.7246   O.3       1 RES1   0.0000
   136 C55       0.7188   -2.4264   -2.0041   C.3       1 RES1   0.0000
   137 C56       1.7450   -2.3017   -0.8671   C.2       1 RES1   0.0000
   138 O6        1.4047   -1.5798    0.0935   O.2       1 RES1   0.0000
   139 N4        2.9263   -2.8972   -0.9434   N.am      1 RES1   0.0000
   140 C57       3.3436   -3.7209   -2.0824   C.3       1 RES1   0.0000
   141 C58       2.6888   -5.1013   -2.2124   C.3       1 RES1   0.0000
   142 C59       2.8216   -5.9969   -0.9804   C.3       1 RES1   0.0000
   143 C60       1.8451   -5.6945    0.1560   C.3       1 RES1   0.0000
   144 C61       0.3840   -5.9803   -0.1879   C.3       1 RES1   0.0000
   145 C62      -0.5326   -5.6271    0.9835   C.3       1 RES1   0.0000
   146 C63      -2.0202   -5.7433    0.6434   C.3       1 RES1   0.0000
   147 C64      -2.4367   -7.1710    0.3074   C.3       1 RES1   0.0000
   148 C65       4.0045   -2.4729   -0.0262   C.3       1 RES1   0.0000
   149 C66       3.7429   -2.4173    1.4877   C.3       1 RES1   0.0000
   150 C67       4.1847   -3.6665    2.2461   C.3       1 RES1   0.0000
   151 C68       3.8095   -3.6502    3.7323   C.3       1 RES1   0.0000
   152 C69       4.7205   -2.8185    4.6429   C.3       1 RES1   0.0000
   153 C70       4.5536   -1.2974    4.6285   C.3       1 RES1   0.0000
   154 C71       3.1486   -0.7880    4.9516   C.3       1 RES1   0.0000
   155 C72       2.7198   -1.0865    6.3836   C.3       1 RES1   0.0000
   156 H73       0.0451    7.7745   -3.6070   H         1 RES1   0.0000
   157 H74      -0.5968    7.1821   -5.1342   H         1 RES1   0.0000
   158 H75      -0.4600    6.0919   -3.7542   H         1 RES1   0.0000
   159 H76      -2.2389    8.5695   -3.8604   H         1 RES1   0.0000
   160 H77      -2.2091    7.4029   -2.5465   H         1 RES1   0.0000
   161 H78      -2.9819    6.7999   -5.4368   H         1 RES1   0.0000
   162 H79      -4.1457    7.2113   -4.1818   H         1 RES1   0.0000
   163 H80      -2.3404    4.7536   -4.1164   H         1 RES1   0.0000
   164 H81      -3.9910    4.7960   -4.7283   H         1 RES1   0.0000
   165 H82      -4.5904    5.8241   -2.4072   H         1 RES1   0.0000
   166 H83      -3.0919    5.1074   -1.8481   H         1 RES1   0.0000
   167 H84      -5.2910    3.5484   -3.2628   H         1 RES1   0.0000
   168 H85      -5.3058    3.8479   -1.5351   H         1 RES1   0.0000
   169 H86      -4.5206    1.6762   -1.7526   H         1 RES1   0.0000
   170 H87      -3.0897    2.6176   -1.3545   H         1 RES1   0.0000
   171 H88      -2.2325    2.4451   -3.5651   H         1 RES1   0.0000
   172 H89      -3.8054    2.0957   -4.2522   H         1 RES1   0.0000
   173 H90      -4.3407    0.2610   -4.8157   H         1 RES1   0.0000
   174 H91      -4.0361   -1.1973   -3.8717   H         1 RES1   0.0000
   175 H92      -3.5988   -1.5676   -6.1048   H         1 RES1   0.0000
   176 H93      -2.0791   -1.7311   -5.2717   H         1 RES1   0.0000
   177 H94      -2.6634    0.9072   -6.6428   H         1 RES1   0.0000
   178 H95      -2.3525   -0.4973   -7.6323   H         1 RES1   0.0000
   179 H96      -0.2607    0.4759   -7.4312   H         1 RES1   0.0000
   180 H97      -0.1870   -0.8375   -6.2744   H         1 RES1   0.0000
   181 H98      -0.9410    0.8983   -4.5239   H         1 RES1   0.0000
   182 H99      -0.5958    2.1329   -5.7337   H         1 RES1   0.0000
   183 H100      1.7761    1.3457   -5.7871   H         1 RES1   0.0000
   184 H101      1.3973    0.1410   -4.5523   H         1 RES1   0.0000
   185 H102      1.1384    3.1759   -4.2523   H         1 RES1   0.0000
   186 H103      2.4443    2.1796   -3.6261   H         1 RES1   0.0000
   187 H104     -0.4254    2.2688   -2.7022   H         1 RES1   0.0000
   188 H105      1.0413    2.5803   -1.7745   H         1 RES1   0.0000
   189 H106      0.6909    0.9073   -2.2999   H         1 RES1   0.0000
   190 H107     -0.8642   -1.3882   -3.7063   H         1 RES1   0.0000
   191 H108     -2.0398   -2.2043   -2.6173   H         1 RES1   0.0000
   192 H109      1.2050   -2.2052   -2.9620   H         1 RES1   0.0000
   193 H110      0.2860   -3.4301   -2.0382   H         1 RES1   0.0000
   194 H111      4.4177   -3.8762   -1.9880   H         1 RES1   0.0000
   195 H112      3.1785   -3.1684   -3.0135   H         1 RES1   0.0000
   196 H113      3.2026   -5.5969   -3.0372   H         1 RES1   0.0000
   197 H114      1.6449   -5.0117   -2.5036   H         1 RES1   0.0000
   198 H115      3.8387   -5.9211   -0.5976   H         1 RES1   0.0000
   199 H116      2.6692   -7.0329   -1.2870   H         1 RES1   0.0000
   200 H117      1.9322   -4.6546    0.4781   H         1 RES1   0.0000
   201 H118      2.1174   -6.3250    1.0049   H         1 RES1   0.0000
   202 H119      0.2738   -7.0349   -0.4384   H         1 RES1   0.0000
   203 H120      0.0739   -5.3992   -1.0633   H         1 RES1   0.0000
   204 H121     -0.3077   -4.6010    1.2980   H         1 RES1   0.0000
   205 H122     -0.3058   -6.2832    1.8252   H         1 RES1   0.0000
   206 H123     -2.2562   -5.0905   -0.2057   H         1 RES1   0.0000
   207 H124     -2.6032   -5.4014    1.5037   H         1 RES1   0.0000
   208 H125     -1.9712   -7.5134   -0.6129   H         1 RES1   0.0000
   209 H126     -3.5144   -7.2278    0.1815   H         1 RES1   0.0000
   210 H127     -2.1515   -7.8469    1.1092   H         1 RES1   0.0000
   211 H128      4.2946   -1.4675   -0.3540   H         1 RES1   0.0000
   212 H129      4.8523   -3.1400   -0.1827   H         1 RES1   0.0000
   213 H130      2.6944   -2.2166    1.6927   H         1 RES1   0.0000
   214 H131      4.3212   -1.5727    1.8592   H         1 RES1   0.0000
   215 H132      5.2651   -3.7818    2.1594   H         1 RES1   0.0000
   216 H133      3.7213   -4.5390    1.7904   H         1 RES1   0.0000
   217 H134      3.8699   -4.6799    4.0931   H         1 RES1   0.0000
   218 H135      2.7684   -3.3389    3.8410   H         1 RES1   0.0000
   219 H136      5.7588   -3.0396    4.3895   H         1 RES1   0.0000
   220 H137      4.5660   -3.1640    5.6652   H         1 RES1   0.0000
   221 H138      4.8692   -0.8929    3.6642   H         1 RES1   0.0000
   222 H139      5.2412   -0.8937    5.3711   H         1 RES1   0.0000
   223 H140      2.4261   -1.2271    4.2558   H         1 RES1   0.0000
   224 H141      3.1367    0.2987    4.8113   H         1 RES1   0.0000
   225 H142      2.6329   -2.1547    6.5577   H         1 RES1   0.0000
   226 H143      1.7541   -0.6302    6.6006   H         1 RES1   0.0000
   227 H144      3.4494   -0.6863    7.0823   H         1 RES1   0.0000
   228 O7       -0.3046    2.7353    0.3689   O.3       1 RES1   0.0000
   229 H145     -0.9862    3.1243   -0.1976   H         1 RES1   0.0000
   230 H146      0.1695    3.4972    0.7418   H         1 RES1   0.0000
   231 O8       -1.1992   -1.9796    1.1969   O.3       1 RES1   0.0000
   232 H147     -1.9635   -2.5353    0.9856   H         1 RES1   0.0000
   233 H148     -0.9018   -2.2901    2.0663   H         1 RES1   0.0000
@<TRIPOS>BOND
     1     1    20    1
     2     1    22    1
     3     1    25    1
     4     1   133    1
     5     1   135    1
     6     1   138    1
     7     1   228    1
     8     1   231    1
     9     2     3    1
    10     2    43    1
    11     2    44    1
    12     2    45    1
    13     3     4    1
    14     3    46    1
    15     3    47    1
    16     4     5    1
    17     4    48    1
    18     4    49    1
    19     5     6    1
    20     5    50    1
    21     5    51    1
    22     6     7    1
    23     6    52    1
    24     6    53    1
    25     7     8    1
    26     7    54    1
    27     7    55    1
    28     8     9    1
    29     8    56    1
    30     8    57    1
    31     9    10    1
    32     9    58    1
    33     9    59    1
    34    10    11    1
    35    10    19    1
    36    11    12    1
    37    11    60    1
    38    11    61    1
    39    12    13    1
    40    12    62    1
    41    12    63    1
    42    13    14    1
    43    13    64    1
    44    13    65    1
    45    14    15    1
    46    14    66    1
    47    14    67    1
    48    15    16    1
    49    15    68    1
    50    15    69    1
    51    16    17    1
    52    16    70    1
    53    16    71    1
    54    17    18    1
    55    17    72    1
    56    17    73    1
    57    18    74    1
    58    18    75    1
    59    18    76    1
    60    19    20    2
    61    19    21    1
    62    21    22    1
    63    21    77    1
    64    21    78    1
    65    22    23    1
    66    23    24    1
    67    23    79    1
    68    23    80    1
    69    24    25    2
    70    24    26    1
    71    26    27    1
    72    26    35    1
    73    27    28    1
    74    27    81    1
    75    27    82    1
    76    28    29    1
    77    28    83    1
    78    28    84    1
    79    29    30    1
    80    29    85    1
    81    29    86    1
    82    30    31    1
    83    30    87    1
    84    30    88    1
    85    31    32    1
    86    31    89    1
    87    31    90    1
    88    32    33    1
    89    32    91    1
    90    32    92    1
    91    33    34    1
    92    33    93    1
    93    33    94    1
    94    34    95    1
    95    34    96    1
    96    34    97    1
    97    35    36    1
    98    35    98    1
    99    35    99    1
   100    36    37    1
   101    36   100    1
   102    36   101    1
   103    37    38    1
   104    37   102    1
   105    37   103    1
   106    38    39    1
   107    38   104    1
   108    38   105    1
   109    39    40    1
   110    39   106    1
   111    39   107    1
   112    40    41    1
   113    40   108    1
   114    40   109    1
   115    41    42    1
   116    41   110    1
   117    41   111    1
   118    42   112    1
   119    42   113    1
   120    42   114    1
   121   115   116    1
   122   115   156    1
   123   115   157    1
   124   115   158    1
   125   116   117    1
   126   116   159    1
   127   116   160    1
   128   117   118    1
   129   117   161    1
   130   117   162    1
   131   118   119    1
   132   118   163    1
   133   118   164    1
   134   119   120    1
   135   119   165    1
   136   119   166    1
   137   120   121    1
   138   120   167    1
   139   120   168    1
   140   121   122    1
   141   121   169    1
   142   121   170    1
   143   122   123    1
   144   122   171    1
   145   122   172    1
   146   123   124    1
   147   123   132    1
   148   124   125    1
   149   124   173    1
   150   124   174    1
   151   125   126    1
   152   125   175    1
   153   125   176    1
   154   126   127    1
   155   126   177    1
   156   126   178    1
   157   127   128    1
   158   127   179    1
   159   127   180    1
   160   128   129    1
   161   128   181    1
   162   128   182    1
   163   129   130    1
   164   129   183    1
   165   129   184    1
   166   130   131    1
   167   130   185    1
   168   130   186    1
   169   131   187    1
   170   131   188    1
   171   131   189    1
   172   132   133    2
   173   132   134    1
   174   134   135    1
   175   134   190    1
   176   134   191    1
   177   135   136    1
   178   136   137    1
   179   136   192    1
   180   136   193    1
   181   137   138    2
   182   137   139    1
   183   139   140    1
   184   139   148    1
   185   140   141    1
   186   140   194    1
   187   140   195    1
   188   141   142    1
   189   141   196    1
   190   141   197    1
   191   142   143    1
   192   142   198    1
   193   142   199    1
   194   143   144    1
   195   143   200    1
   196   143   201    1
   197   144   145    1
   198   144   202    1
   199   144   203    1
   200   145   146    1
   201   145   204    1
   202   145   205    1
   203   146   147    1
   204   146   206    1
   205   146   207    1
   206   147   208    1
   207   147   209    1
   208   147   210    1
   209   148   149    1
   210   148   211    1
   211   148   212    1
   212   149   150    1
   213   149   213    1
   214   149   214    1
   215   150   151    1
   216   150   215    1
   217   150   216    1
   218   151   152    1
   219   151   217    1
   220   151   218    1
   221   152   153    1
   222   152   219    1
   223   152   220    1
   224   153   154    1
   225   153   221    1
   226   153   222    1
   227   154   155    1
   228   154   223    1
   229   154   224    1
   230   155   225    1
   231   155   226    1
   232   155   227    1
   233   228   229    1
   234   228   230    1
   235   231   232    1
   236   231   233    1
@<TRIPOS>SUBSTRUCTURE
     1 RES1      233 GROUP             0 ****  ****    0  
