@<TRIPOS>MOLECULE
YEMSEP_geometry_0_nunpairedes_0_charge_3 Charge: 3 Unpaired_Electrons: 6 XTB_Unpaired_Electrons: 0 XTB_Charge: 3
    65    73     1     0     0
SMALL
NoCharges
****
Generated from Architector

@<TRIPOS>ATOM
     1 Tb1      -1.3490   -0.1146   -0.8605   Tb        1 RES1   0.0000
     2 C1       -3.8289    0.6455    4.5308   C.3       1 RES1   0.0000
     3 C2       -2.3923    0.2416    4.2438   C.3       1 RES1   0.0000
     4 C3       -1.6772    1.3097    3.3698   C.3       1 RES1   0.0000
     5 C4       -2.3735    1.2959    2.0704   C.ar      1 RES1   0.0000
     6 N1       -2.2292    0.1905    1.3313   N.ar      1 RES1   0.0000
     7 N2       -3.1007   -0.0603    0.3378   N.ar      1 RES1   0.0000
     8 C5       -3.9949    0.8904   -0.0312   C.ar      1 RES1   0.0000
     9 C6       -4.4837    0.5364   -1.4090   C.ar      1 RES1   0.0000
    10 C7       -5.7144    0.4042   -2.0278   C.ar      1 RES1   0.0000
    11 C8       -5.7383   -0.1672   -3.3050   C.ar      1 RES1   0.0000
    12 C9       -4.5863   -0.6926   -3.8994   C.ar      1 RES1   0.0000
    13 C10      -3.3948   -0.5100   -3.2210   C.ar      1 RES1   0.0000
    14 C11      -1.9906   -1.0788   -3.2183   C.ar      1 RES1   0.0000
    15 N3       -1.0229   -0.1646   -3.1458   N.ar      1 RES1   0.0000
    16 N4        0.1492   -0.4983   -2.6229   N.ar      1 RES1   0.0000
    17 C12       0.3151   -1.6407   -1.9547   C.ar      1 RES1   0.0000
    18 C13       1.6437   -1.9362   -1.3634   C.3       1 RES1   0.0000
    19 C14       2.1960   -3.2605   -1.9734   C.3       1 RES1   0.0000
    20 C15       2.6070   -3.0507   -3.4193   C.3       1 RES1   0.0000
    21 C16      -0.8604   -2.4733   -1.7859   C.ar      1 RES1   0.0000
    22 C17      -1.0548   -3.3842   -0.6013   C.3       1 RES1   0.0000
    23 C18      -2.1639   -4.4186   -0.8380   C.3       1 RES1   0.0000
    24 C19      -3.5626   -3.8336   -0.7102   C.3       1 RES1   0.0000
    25 N5       -1.9146   -2.2413   -2.5449   N.ar      1 RES1   0.0000
    26 N6       -3.3628    0.1592   -2.0557   N.ar      1 RES1   0.0000
    27 N7       -4.0009    2.0896    0.4996   N.ar      1 RES1   0.0000
    28 C20      -3.1892    2.3463    1.5268   C.ar      1 RES1   0.0000
    29 C21      -2.9701    3.7520    1.8869   C.3       1 RES1   0.0000
    30 C22      -4.1641    4.3764    2.6784   C.3       1 RES1   0.0000
    31 C23      -5.3857    4.5772    1.8182   C.3       1 RES1   0.0000
    32 H1       -4.3002   -0.1028    5.1633   H         1 RES1   0.0000
    33 H2       -4.4123    0.7431    3.6123   H         1 RES1   0.0000
    34 H3       -3.8548    1.5942    5.0649   H         1 RES1   0.0000
    35 H4       -2.3447   -0.7213    3.7304   H         1 RES1   0.0000
    36 H5       -1.8440    0.1506    5.1792   H         1 RES1   0.0000
    37 H6       -0.6332    1.0161    3.2485   H         1 RES1   0.0000
    38 H7       -1.7250    2.2731    3.8729   H         1 RES1   0.0000
    39 H8       -6.6223    0.6949   -1.5222   H         1 RES1   0.0000
    40 H9       -6.6861   -0.2837   -3.8098   H         1 RES1   0.0000
    41 H10      -4.6346   -1.2284   -4.8349   H         1 RES1   0.0000
    42 H11       1.5695   -2.0422   -0.2714   H         1 RES1   0.0000
    43 H12       2.3416   -1.1318   -1.6094   H         1 RES1   0.0000
    44 H13       1.4386   -4.0424   -1.9033   H         1 RES1   0.0000
    45 H14       3.0647   -3.5702   -1.3895   H         1 RES1   0.0000
    46 H15       1.7664   -2.7703   -4.0507   H         1 RES1   0.0000
    47 H16       3.0336   -3.9699   -3.8115   H         1 RES1   0.0000
    48 H17       3.3616   -2.2724   -3.4878   H         1 RES1   0.0000
    49 H18      -1.3608   -2.7066    0.2537   H         1 RES1   0.0000
    50 H19      -0.1190   -3.8797   -0.3266   H         1 RES1   0.0000
    51 H20      -2.0556   -5.2301   -0.1186   H         1 RES1   0.0000
    52 H21      -2.0336   -4.8396   -1.8357   H         1 RES1   0.0000
    53 H22      -3.7177   -3.3914    0.2737   H         1 RES1   0.0000
    54 H23      -4.2863   -4.6333   -0.8404   H         1 RES1   0.0000
    55 H24      -3.7539   -3.0751   -1.4700   H         1 RES1   0.0000
    56 H25      -2.8778    4.3315    0.9661   H         1 RES1   0.0000
    57 H26      -2.0668    3.8514    2.4857   H         1 RES1   0.0000
    58 H27      -3.7924    5.3391    3.0349   H         1 RES1   0.0000
    59 H28      -4.3877    3.7617    3.5492   H         1 RES1   0.0000
    60 H29      -5.1906    5.2714    1.0060   H         1 RES1   0.0000
    61 H30      -6.1892    4.9873    2.4282   H         1 RES1   0.0000
    62 H31      -5.7432    3.6375    1.4000   H         1 RES1   0.0000
    63 O1       -0.1911    1.9702   -0.7564   O.3       1 RES1   0.0000
    64 H32       0.1100    2.3051   -1.6280   H         1 RES1   0.0000
    65 H33       0.2192    2.5844   -0.1163   H         1 RES1   0.0000
@<TRIPOS>BOND
     1     1     6    1
     2     1     7    1
     3     1    15    1
     4     1    16    1
     5     1    25    1
     6     1    26    1
     7     1    27    1
     8     1    63    1
     9     2     3    1
    10     2    32    1
    11     2    33    1
    12     2    34    1
    13     3     4    1
    14     3    35    1
    15     3    36    1
    16     4     5    1
    17     4    37    1
    18     4    38    1
    19     5     6    1
    20     5    28    2
    21     6     7    2
    22     7     8    1
    23     8     9    1
    24     8    27    2
    25     9    10    1
    26     9    26    2
    27    10    11    2
    28    10    39    1
    29    11    12    1
    30    11    40    1
    31    12    13    2
    32    12    41    1
    33    13    14    1
    34    13    26    1
    35    14    15    1
    36    14    25    2
    37    15    16    2
    38    16    17    1
    39    17    18    1
    40    17    21    2
    41    18    19    1
    42    18    42    1
    43    18    43    1
    44    19    20    1
    45    19    44    1
    46    19    45    1
    47    20    46    1
    48    20    47    1
    49    20    48    1
    50    21    22    1
    51    21    25    1
    52    22    23    1
    53    22    49    1
    54    22    50    1
    55    23    24    1
    56    23    51    1
    57    23    52    1
    58    24    53    1
    59    24    54    1
    60    24    55    1
    61    27    28    1
    62    28    29    1
    63    29    30    1
    64    29    56    1
    65    29    57    1
    66    30    31    1
    67    30    58    1
    68    30    59    1
    69    31    60    1
    70    31    61    1
    71    31    62    1
    72    63    64    1
    73    63    65    1
@<TRIPOS>SUBSTRUCTURE
     1 RES1       65 GROUP             0 ****  ****    0  
