@<TRIPOS>MOLECULE
ICIGOT_geomtry_0_nunpairedes_0_charge_2 Charge: 2 Unpaired_Electrons: 6 XTB_Unpaired_Electrons: 0 XTB_Charge: 2
   291   295     1     0     0
SMALL
NoCharges
****
Generated from Architector

@<TRIPOS>ATOM
     1 Tb1      -0.0428    0.0240   -0.1993   Tb        1 RES1   0.0000
     2 C1        6.1515    3.0319    0.1152   C.3       1 RES1   0.0000
     3 C2        7.4336    2.2095    0.2065   C.3       1 RES1   0.0000
     4 C3        7.6149    1.4776    1.5388   C.3       1 RES1   0.0000
     5 C4        6.6020    0.3533    1.7587   C.3       1 RES1   0.0000
     6 C5        6.6406   -0.1683    3.1975   C.3       1 RES1   0.0000
     7 C6        5.6474   -1.3095    3.4303   C.3       1 RES1   0.0000
     8 C7        5.3308   -1.5791    4.9085   C.3       1 RES1   0.0000
     9 C8        4.4825   -0.5252    5.6470   C.3       1 RES1   0.0000
    10 C9        2.9543   -0.7418    5.5844   C.3       1 RES1   0.0000
    11 C10       2.0415    0.4570    5.2198   C.3       1 RES1   0.0000
    12 N1        2.0749    0.9154    3.8329   N.am      1 RES1   0.0000
    13 C11       3.3038    1.5847    3.4018   C.3       1 RES1   0.0000
    14 C12       3.7264    2.6931    4.3655   C.3       1 RES1   0.0000
    15 C13       2.6800    3.7952    4.5440   C.3       1 RES1   0.0000
    16 C14       2.7932    4.9100    3.5035   C.3       1 RES1   0.0000
    17 C15       4.1510    5.6168    3.4865   C.3       1 RES1   0.0000
    18 C16       4.5539    6.2208    4.8312   C.3       1 RES1   0.0000
    19 C17       5.9235    6.9092    4.8109   C.3       1 RES1   0.0000
    20 C18       7.1032    5.9952    5.1574   C.3       1 RES1   0.0000
    21 C19       7.4666    4.9261    4.1254   C.3       1 RES1   0.0000
    22 C20       7.8176    5.5007    2.7591   C.3       1 RES1   0.0000
    23 C21       1.0959    0.8162    2.9290   C.2       1 RES1   0.0000
    24 O1        1.3217    0.9494    1.7056   O.2       1 RES1   0.0000
    25 C22      -0.3981    0.6847    3.3319   C.3       1 RES1   0.0000
    26 C23      -0.8641   -0.6284    3.9493   C.3       1 RES1   0.0000
    27 O2       -1.0982    0.7664    2.0892   O.3       1 RES1   0.0000
    28 C24      -2.2234    1.6447    1.9768   C.3       1 RES1   0.0000
    29 C25      -3.4528    0.7748    1.7096   C.3       1 RES1   0.0000
    30 C26      -1.9272    2.4665    0.7096   C.2       1 RES1   0.0000
    31 O3       -1.0519    2.0032   -0.0473   O.2       1 RES1   0.0000
    32 N2       -2.6103    3.5467    0.3903   N.am      1 RES1   0.0000
    33 C27      -3.4830    4.2340    1.3242   C.3       1 RES1   0.0000
    34 C28      -2.7019    5.2338    2.1938   C.3       1 RES1   0.0000
    35 C29      -3.5231    6.4725    2.5669   C.3       1 RES1   0.0000
    36 C30      -3.4397    7.6050    1.5367   C.3       1 RES1   0.0000
    37 C31      -4.2665    7.3727    0.2735   C.3       1 RES1   0.0000
    38 C32      -3.9895    8.4039   -0.8178   C.3       1 RES1   0.0000
    39 C33      -4.8144    8.0891   -2.0652   C.3       1 RES1   0.0000
    40 C34      -4.4055    8.9018   -3.2928   C.3       1 RES1   0.0000
    41 C35      -3.0319    8.5437   -3.8658   C.3       1 RES1   0.0000
    42 C36      -2.9504    7.1215   -4.4117   C.3       1 RES1   0.0000
    43 C37      -2.3959    4.1010   -0.9500   C.3       1 RES1   0.0000
    44 C38      -1.1885    5.0298   -1.1108   C.3       1 RES1   0.0000
    45 C39       0.1535    4.3140   -1.2703   C.3       1 RES1   0.0000
    46 C40       1.2909    5.2938   -1.5593   C.3       1 RES1   0.0000
    47 C41       2.5923    4.5847   -1.9416   C.3       1 RES1   0.0000
    48 C42       2.5495    4.0082   -3.3565   C.3       1 RES1   0.0000
    49 C43       3.9077    3.5251   -3.8670   C.3       1 RES1   0.0000
    50 C44       4.3646    2.2149   -3.2279   C.3       1 RES1   0.0000
    51 C45       5.6922    1.7377   -3.8180   C.3       1 RES1   0.0000
    52 C46       6.1594    0.4043   -3.2443   C.3       1 RES1   0.0000
    53 H1        6.1629    3.6337   -0.7903   H         1 RES1   0.0000
    54 H2        6.0624    3.7025    0.9661   H         1 RES1   0.0000
    55 H3        5.2674    2.3971    0.0846   H         1 RES1   0.0000
    56 H4        8.2828    2.8798    0.0656   H         1 RES1   0.0000
    57 H5        7.4581    1.4837   -0.6085   H         1 RES1   0.0000
    58 H6        7.5398    2.1963    2.3584   H         1 RES1   0.0000
    59 H7        8.6225    1.0577    1.5742   H         1 RES1   0.0000
    60 H8        6.8028   -0.4547    1.0493   H         1 RES1   0.0000
    61 H9        5.5985    0.7351    1.5530   H         1 RES1   0.0000
    62 H10       6.4172    0.6633    3.8694   H         1 RES1   0.0000
    63 H11       7.6480   -0.5111    3.4319   H         1 RES1   0.0000
    64 H12       6.0632   -2.2207    2.9931   H         1 RES1   0.0000
    65 H13       4.7318   -1.0903    2.8858   H         1 RES1   0.0000
    66 H14       6.2869   -1.6685    5.4254   H         1 RES1   0.0000
    67 H15       4.8309   -2.5466    4.9968   H         1 RES1   0.0000
    68 H16       4.7415    0.4621    5.2881   H         1 RES1   0.0000
    69 H17       4.7805   -0.5560    6.6949   H         1 RES1   0.0000
    70 H18       2.6271   -1.0483    6.5809   H         1 RES1   0.0000
    71 H19       2.7504   -1.5821    4.9338   H         1 RES1   0.0000
    72 H20       2.2941    1.2777    5.8911   H         1 RES1   0.0000
    73 H21       1.0209    0.1696    5.4483   H         1 RES1   0.0000
    74 H22       3.0929    2.0194    2.4239   H         1 RES1   0.0000
    75 H23       4.1065    0.8547    3.3058   H         1 RES1   0.0000
    76 H24       4.6369    3.1306    3.9630   H         1 RES1   0.0000
    77 H25       3.9817    2.2750    5.3378   H         1 RES1   0.0000
    78 H26       2.7897    4.2315    5.5359   H         1 RES1   0.0000
    79 H27       1.6785    3.3598    4.4892   H         1 RES1   0.0000
    80 H28       2.0172    5.6523    3.7000   H         1 RES1   0.0000
    81 H29       2.6040    4.4885    2.5128   H         1 RES1   0.0000
    82 H30       4.1014    6.4226    2.7524   H         1 RES1   0.0000
    83 H31       4.9176    4.9262    3.1431   H         1 RES1   0.0000
    84 H32       4.5711    5.4585    5.6109   H         1 RES1   0.0000
    85 H33       3.7913    6.9520    5.1050   H         1 RES1   0.0000
    86 H34       5.9169    7.7094    5.5535   H         1 RES1   0.0000
    87 H35       6.0861    7.3809    3.8429   H         1 RES1   0.0000
    88 H36       6.8874    5.4999    6.1078   H         1 RES1   0.0000
    89 H37       7.9841    6.6217    5.3134   H         1 RES1   0.0000
    90 H38       6.6499    4.2062    4.0315   H         1 RES1   0.0000
    91 H39       8.3308    4.3734    4.5022   H         1 RES1   0.0000
    92 H40       6.9617    5.9917    2.3029   H         1 RES1   0.0000
    93 H41       8.1544    4.7124    2.0900   H         1 RES1   0.0000
    94 H42       8.6193    6.2277    2.8536   H         1 RES1   0.0000
    95 H43      -0.6427    1.5508    3.9710   H         1 RES1   0.0000
    96 H44      -1.9388   -0.5664    4.0934   H         1 RES1   0.0000
    97 H45      -0.4197   -0.8804    4.9037   H         1 RES1   0.0000
    98 H46      -0.6637   -1.4163    3.2271   H         1 RES1   0.0000
    99 H47      -2.3154    2.2725    2.8711   H         1 RES1   0.0000
   100 H48      -3.2302    0.1335    0.8512   H         1 RES1   0.0000
   101 H49      -4.3328    1.3648    1.4792   H         1 RES1   0.0000
   102 H50      -3.6744    0.1497    2.5699   H         1 RES1   0.0000
   103 H51      -3.9930    3.5177    1.9700   H         1 RES1   0.0000
   104 H52      -4.2459    4.7537    0.7482   H         1 RES1   0.0000
   105 H53      -1.8047    5.5512    1.6633   H         1 RES1   0.0000
   106 H54      -2.3701    4.7271    3.1028   H         1 RES1   0.0000
   107 H55      -3.1563    6.8545    3.5205   H         1 RES1   0.0000
   108 H56      -4.5632    6.1844    2.7220   H         1 RES1   0.0000
   109 H57      -2.3920    7.7605    1.2653   H         1 RES1   0.0000
   110 H58      -3.7909    8.5239    2.0089   H         1 RES1   0.0000
   111 H59      -5.3277    7.3739    0.5337   H         1 RES1   0.0000
   112 H60      -4.0299    6.4010   -0.1577   H         1 RES1   0.0000
   113 H61      -2.9241    8.3733   -1.0566   H         1 RES1   0.0000
   114 H62      -4.2244    9.4106   -0.4686   H         1 RES1   0.0000
   115 H63      -5.8648    8.2896   -1.8456   H         1 RES1   0.0000
   116 H64      -4.7334    7.0247   -2.2970   H         1 RES1   0.0000
   117 H65      -4.4155    9.9623   -3.0327   H         1 RES1   0.0000
   118 H66      -5.1516    8.7489   -4.0752   H         1 RES1   0.0000
   119 H67      -2.2586    8.6885   -3.1084   H         1 RES1   0.0000
   120 H68      -2.8177    9.2367   -4.6815   H         1 RES1   0.0000
   121 H69      -3.0878    6.3811   -3.6259   H         1 RES1   0.0000
   122 H70      -1.9784    6.9500   -4.8695   H         1 RES1   0.0000
   123 H71      -3.7136    6.9595   -5.1691   H         1 RES1   0.0000
   124 H72      -3.3073    4.6329   -1.2195   H         1 RES1   0.0000
   125 H73      -2.2797    3.2587   -1.6377   H         1 RES1   0.0000
   126 H74      -1.1497    5.7436   -0.2882   H         1 RES1   0.0000
   127 H75      -1.3579    5.6048   -2.0209   H         1 RES1   0.0000
   128 H76       0.0703    3.6023   -2.0935   H         1 RES1   0.0000
   129 H77       0.4051    3.7484   -0.3685   H         1 RES1   0.0000
   130 H78       1.4613    5.9084   -0.6717   H         1 RES1   0.0000
   131 H79       1.0068    5.9672   -2.3702   H         1 RES1   0.0000
   132 H80       2.7991    3.7977   -1.2125   H         1 RES1   0.0000
   133 H81       3.4087    5.3070   -1.8919   H         1 RES1   0.0000
   134 H82       2.1956    4.7918   -4.0280   H         1 RES1   0.0000
   135 H83       1.8390    3.1813   -3.4049   H         1 RES1   0.0000
   136 H84       4.6597    4.2973   -3.6918   H         1 RES1   0.0000
   137 H85       3.8411    3.3735   -4.9465   H         1 RES1   0.0000
   138 H86       3.5909    1.4574   -3.3944   H         1 RES1   0.0000
   139 H87       4.4763    2.3566   -2.1518   H         1 RES1   0.0000
   140 H88       6.4562    2.4944   -3.6311   H         1 RES1   0.0000
   141 H89       5.5843    1.6368   -4.9000   H         1 RES1   0.0000
   142 H90       6.3180    0.4740   -2.1691   H         1 RES1   0.0000
   143 H91       7.0993    0.1092   -3.7033   H         1 RES1   0.0000
   144 H92       5.4258   -0.3751   -3.4434   H         1 RES1   0.0000
   145 C47      -5.1411   -4.5244   -0.2783   C.3       1 RES1   0.0000
   146 C48      -6.2254   -4.5091    0.7945   C.3       1 RES1   0.0000
   147 C49      -5.6999   -4.8671    2.1879   C.3       1 RES1   0.0000
   148 C50      -4.8139   -3.7738    2.7878   C.3       1 RES1   0.0000
   149 C51      -4.0784   -4.2392    4.0480   C.3       1 RES1   0.0000
   150 C52      -3.0548   -3.2022    4.5206   C.3       1 RES1   0.0000
   151 C53      -2.1029   -3.7078    5.6096   C.3       1 RES1   0.0000
   152 C54      -1.0256   -4.7074    5.1602   C.3       1 RES1   0.0000
   153 C55       0.2624   -4.0770    4.5926   C.3       1 RES1   0.0000
   154 C56       0.6766   -4.5603    3.1874   C.3       1 RES1   0.0000
   155 N3       -0.0873   -3.9801    2.0911   N.am      1 RES1   0.0000
   156 C57      -1.3512   -4.6206    1.7279   C.3       1 RES1   0.0000
   157 C58      -1.2352   -6.1396    1.6427   C.3       1 RES1   0.0000
   158 C59      -0.1240   -6.6244    0.7087   C.3       1 RES1   0.0000
   159 C60      -0.5963   -6.8129   -0.7330   C.3       1 RES1   0.0000
   160 C61      -1.7507   -7.8052   -0.8882   C.3       1 RES1   0.0000
   161 C62      -1.4556   -9.1924   -0.3193   C.3       1 RES1   0.0000
   162 C63      -2.6482  -10.1519   -0.4001   C.3       1 RES1   0.0000
   163 C64      -3.5534  -10.1449    0.8359   C.3       1 RES1   0.0000
   164 C65      -4.3726   -8.8756    1.0769   C.3       1 RES1   0.0000
   165 C66      -5.3063   -8.5287   -0.0753   C.3       1 RES1   0.0000
   166 C67       0.2872   -2.9111    1.3927   C.2       1 RES1   0.0000
   167 O4       -0.5158   -2.2066    0.7419   O.2       1 RES1   0.0000
   168 C68       1.7881   -2.5507    1.3099   C.3       1 RES1   0.0000
   169 C69       2.3605   -2.0708    2.6418   C.3       1 RES1   0.0000
   170 O5        1.8804   -1.4574    0.4003   O.3       1 RES1   0.0000
   171 C70       2.8634   -1.4958   -0.6391   C.3       1 RES1   0.0000
   172 C71       3.4710   -0.0945   -0.6789   C.3       1 RES1   0.0000
   173 C72       2.0536   -1.6256   -1.9421   C.2       1 RES1   0.0000
   174 O6        0.8723   -1.2413   -1.8492   O.2       1 RES1   0.0000
   175 N4        2.6016   -1.9445   -3.0987   N.am      1 RES1   0.0000
   176 C73       3.8474   -2.6786   -3.2079   C.3       1 RES1   0.0000
   177 C74       3.6056   -4.1968   -3.1702   C.3       1 RES1   0.0000
   178 C75       4.5627   -4.9786   -4.0767   C.3       1 RES1   0.0000
   179 C76       4.0961   -5.0997   -5.5331   C.3       1 RES1   0.0000
   180 C77       4.3050   -3.8478   -6.3841   C.3       1 RES1   0.0000
   181 C78       3.6279   -3.9497   -7.7489   C.3       1 RES1   0.0000
   182 C79       3.8151   -2.6579   -8.5430   C.3       1 RES1   0.0000
   183 C80       2.9686   -2.5971   -9.8142   C.3       1 RES1   0.0000
   184 C81       1.4602   -2.4910   -9.5753   C.3       1 RES1   0.0000
   185 C82       1.0425   -1.2060   -8.8674   C.3       1 RES1   0.0000
   186 C83       1.8553   -1.6109   -4.3156   C.3       1 RES1   0.0000
   187 C84       0.8182   -2.6290   -4.7953   C.3       1 RES1   0.0000
   188 C85      -0.4742   -2.6042   -3.9832   C.3       1 RES1   0.0000
   189 C86      -1.5366   -3.5757   -4.4924   C.3       1 RES1   0.0000
   190 C87      -2.8673   -3.3502   -3.7708   C.3       1 RES1   0.0000
   191 C88      -3.6216   -2.1342   -4.3055   C.3       1 RES1   0.0000
   192 C89      -4.9655   -1.9100   -3.6144   C.3       1 RES1   0.0000
   193 C90      -4.8334   -1.3071   -2.2170   C.3       1 RES1   0.0000
   194 C91      -6.2040   -1.1274   -1.5662   C.3       1 RES1   0.0000
   195 C92      -6.1131   -0.5214   -0.1713   C.3       1 RES1   0.0000
   196 H93      -5.5814   -4.3551   -1.2573   H         1 RES1   0.0000
   197 H94      -4.6353   -5.4870   -0.2963   H         1 RES1   0.0000
   198 H95      -4.3983   -3.7485   -0.1060   H         1 RES1   0.0000
   199 H96      -6.9957   -5.2312    0.5163   H         1 RES1   0.0000
   200 H97      -6.6979   -3.5253    0.8241   H         1 RES1   0.0000
   201 H98      -5.1362   -5.8014    2.1212   H         1 RES1   0.0000
   202 H99      -6.5460   -5.0439    2.8551   H         1 RES1   0.0000
   203 H100     -5.4332   -2.9032    3.0167   H         1 RES1   0.0000
   204 H101     -4.0805   -3.4625    2.0402   H         1 RES1   0.0000
   205 H102     -3.5874   -5.1927    3.8383   H         1 RES1   0.0000
   206 H103     -4.8012   -4.4203    4.8447   H         1 RES1   0.0000
   207 H104     -3.6106   -2.3474    4.9143   H         1 RES1   0.0000
   208 H105     -2.4709   -2.8451    3.6701   H         1 RES1   0.0000
   209 H106     -2.7064   -4.1720    6.3900   H         1 RES1   0.0000
   210 H107     -1.6025   -2.8525    6.0683   H         1 RES1   0.0000
   211 H108     -1.4399   -5.4001    4.4347   H         1 RES1   0.0000
   212 H109     -0.7600   -5.3038    6.0331   H         1 RES1   0.0000
   213 H110      1.0887   -4.3371    5.2571   H         1 RES1   0.0000
   214 H111      0.1748   -2.9945    4.6187   H         1 RES1   0.0000
   215 H112      0.5670   -5.6414    3.1727   H         1 RES1   0.0000
   216 H113      1.7298   -4.3517    3.0304   H         1 RES1   0.0000
   217 H114     -1.6388   -4.2112    0.7579   H         1 RES1   0.0000
   218 H115     -2.1123   -4.3686    2.4581   H         1 RES1   0.0000
   219 H116     -2.1945   -6.4985    1.2789   H         1 RES1   0.0000
   220 H117     -1.1083   -6.5642    2.6392   H         1 RES1   0.0000
   221 H118      0.2756   -7.5687    1.0766   H         1 RES1   0.0000
   222 H119      0.6937   -5.8990    0.7146   H         1 RES1   0.0000
   223 H120      0.2477   -7.1601   -1.3323   H         1 RES1   0.0000
   224 H121     -0.9115   -5.8440   -1.1289   H         1 RES1   0.0000
   225 H122     -1.9650   -7.9100   -1.9532   H         1 RES1   0.0000
   226 H123     -2.6468   -7.3973   -0.4272   H         1 RES1   0.0000
   227 H124     -1.1457   -9.1273    0.7242   H         1 RES1   0.0000
   228 H125     -0.6190   -9.6083   -0.8835   H         1 RES1   0.0000
   229 H126     -2.2672  -11.1694   -0.5067   H         1 RES1   0.0000
   230 H127     -3.2321   -9.9398   -1.2944   H         1 RES1   0.0000
   231 H128     -2.9323  -10.3270    1.7172   H         1 RES1   0.0000
   232 H129     -4.2489  -10.9827    0.7518   H         1 RES1   0.0000
   233 H130     -3.7038   -8.0372    1.2837   H         1 RES1   0.0000
   234 H131     -4.9736   -9.0268    1.9772   H         1 RES1   0.0000
   235 H132     -4.7515   -8.2956   -0.9806   H         1 RES1   0.0000
   236 H133     -5.9197   -7.6679    0.1797   H         1 RES1   0.0000
   237 H134     -5.9684   -9.3639   -0.2861   H         1 RES1   0.0000
   238 H135      2.3324   -3.4155    0.9042   H         1 RES1   0.0000
   239 H136      2.8548   -1.1236    2.4500   H         1 RES1   0.0000
   240 H137      1.5643   -1.8824    3.3504   H         1 RES1   0.0000
   241 H138      3.0797   -2.7617    3.0685   H         1 RES1   0.0000
   242 H139      3.6093   -2.2733   -0.4515   H         1 RES1   0.0000
   243 H140      2.6481    0.6163   -0.8594   H         1 RES1   0.0000
   244 H141      4.2055    0.0033   -1.4715   H         1 RES1   0.0000
   245 H142      3.9369    0.1311    0.2770   H         1 RES1   0.0000
   246 H143      4.5320   -2.3953   -2.4068   H         1 RES1   0.0000
   247 H144      4.3113   -2.4058   -4.1532   H         1 RES1   0.0000
   248 H145      2.5800   -4.4018   -3.4746   H         1 RES1   0.0000
   249 H146      3.7037   -4.5458   -2.1398   H         1 RES1   0.0000
   250 H147      4.6657   -5.9859   -3.6715   H         1 RES1   0.0000
   251 H148      5.5527   -4.5221   -4.0408   H         1 RES1   0.0000
   252 H149      3.0392   -5.3796   -5.5472   H         1 RES1   0.0000
   253 H150      4.6506   -5.9158   -5.9993   H         1 RES1   0.0000
   254 H151      5.3760   -3.6685   -6.5042   H         1 RES1   0.0000
   255 H152      3.8758   -2.9758   -5.8925   H         1 RES1   0.0000
   256 H153      2.5638   -4.1354   -7.5888   H         1 RES1   0.0000
   257 H154      4.0310   -4.7886   -8.3182   H         1 RES1   0.0000
   258 H155      4.8677   -2.5675   -8.8188   H         1 RES1   0.0000
   259 H156      3.5749   -1.8008   -7.9096   H         1 RES1   0.0000
   260 H157      3.1689   -3.4885  -10.4125   H         1 RES1   0.0000
   261 H158      3.2830   -1.7312  -10.4006   H         1 RES1   0.0000
   262 H159      1.1077   -3.3525   -9.0045   H         1 RES1   0.0000
   263 H160      0.9639   -2.5243  -10.5470   H         1 RES1   0.0000
   264 H161      1.4532   -1.1513   -7.8608   H         1 RES1   0.0000
   265 H162     -0.0416   -1.1546   -8.7917   H         1 RES1   0.0000
   266 H163      1.3840   -0.3361   -9.4235   H         1 RES1   0.0000
   267 H164      2.6003   -1.4519   -5.0945   H         1 RES1   0.0000
   268 H165      1.3468   -0.6604   -4.1265   H         1 RES1   0.0000
   269 H166      1.2491   -3.6293   -4.8169   H         1 RES1   0.0000
   270 H167      0.5701   -2.3660   -5.8239   H         1 RES1   0.0000
   271 H168     -0.8742   -1.5891   -4.0195   H         1 RES1   0.0000
   272 H169     -0.2730   -2.8453   -2.9371   H         1 RES1   0.0000
   273 H170     -1.1923   -4.5989   -4.3216   H         1 RES1   0.0000
   274 H171     -1.6850   -3.4572   -5.5673   H         1 RES1   0.0000
   275 H172     -2.6720   -3.2374   -2.7019   H         1 RES1   0.0000
   276 H173     -3.5012   -4.2283   -3.9031   H         1 RES1   0.0000
   277 H174     -3.7998   -2.2900   -5.3707   H         1 RES1   0.0000
   278 H175     -3.0236   -1.2286   -4.1989   H         1 RES1   0.0000
   279 H176     -5.5082   -2.8568   -3.5557   H         1 RES1   0.0000
   280 H177     -5.5638   -1.2266   -4.2207   H         1 RES1   0.0000
   281 H178     -4.3312   -0.3391   -2.2947   H         1 RES1   0.0000
   282 H179     -4.2123   -1.9488   -1.5874   H         1 RES1   0.0000
   283 H180     -6.7022   -2.0971   -1.5062   H         1 RES1   0.0000
   284 H181     -6.8175   -0.4817   -2.1981   H         1 RES1   0.0000
   285 H182     -5.5043   -1.1465    0.4804   H         1 RES1   0.0000
   286 H183     -7.1044   -0.4298    0.2660   H         1 RES1   0.0000
   287 H184     -5.6686    0.4707   -0.2243   H         1 RES1   0.0000
   288 N5       -1.2601    0.6114   -2.2656   N.3       1 RES1   0.0000
   289 O7       -1.9230    0.9442   -3.1965   O.2       1 RES1   0.0000
   290 O8       -0.0887    0.9981   -2.1305   O.co2     1 RES1   0.0000
   291 O9       -1.7234   -0.1333   -1.3825   O.co2     1 RES1   0.0000
@<TRIPOS>BOND
     1     1    24    1
     2     1    27    1
     3     1    31    1
     4     1   167    1
     5     1   170    1
     6     1   174    1
     7     1   290    1
     8     1   291    1
     9     2     3    1
    10     2    53    1
    11     2    54    1
    12     2    55    1
    13     3     4    1
    14     3    56    1
    15     3    57    1
    16     4     5    1
    17     4    58    1
    18     4    59    1
    19     5     6    1
    20     5    60    1
    21     5    61    1
    22     6     7    1
    23     6    62    1
    24     6    63    1
    25     7     8    1
    26     7    64    1
    27     7    65    1
    28     8     9    1
    29     8    66    1
    30     8    67    1
    31     9    10    1
    32     9    68    1
    33     9    69    1
    34    10    11    1
    35    10    70    1
    36    10    71    1
    37    11    12    1
    38    11    72    1
    39    11    73    1
    40    12    13    1
    41    12    23    1
    42    13    14    1
    43    13    74    1
    44    13    75    1
    45    14    15    1
    46    14    76    1
    47    14    77    1
    48    15    16    1
    49    15    78    1
    50    15    79    1
    51    16    17    1
    52    16    80    1
    53    16    81    1
    54    17    18    1
    55    17    82    1
    56    17    83    1
    57    18    19    1
    58    18    84    1
    59    18    85    1
    60    19    20    1
    61    19    86    1
    62    19    87    1
    63    20    21    1
    64    20    88    1
    65    20    89    1
    66    21    22    1
    67    21    90    1
    68    21    91    1
    69    22    92    1
    70    22    93    1
    71    22    94    1
    72    23    24    2
    73    23    25    1
    74    25    26    1
    75    25    27    1
    76    25    95    1
    77    26    96    1
    78    26    97    1
    79    26    98    1
    80    27    28    1
    81    28    29    1
    82    28    30    1
    83    28    99    1
    84    29   100    1
    85    29   101    1
    86    29   102    1
    87    30    31    2
    88    30    32    1
    89    32    33    1
    90    32    43    1
    91    33    34    1
    92    33   103    1
    93    33   104    1
    94    34    35    1
    95    34   105    1
    96    34   106    1
    97    35    36    1
    98    35   107    1
    99    35   108    1
   100    36    37    1
   101    36   109    1
   102    36   110    1
   103    37    38    1
   104    37   111    1
   105    37   112    1
   106    38    39    1
   107    38   113    1
   108    38   114    1
   109    39    40    1
   110    39   115    1
   111    39   116    1
   112    40    41    1
   113    40   117    1
   114    40   118    1
   115    41    42    1
   116    41   119    1
   117    41   120    1
   118    42   121    1
   119    42   122    1
   120    42   123    1
   121    43    44    1
   122    43   124    1
   123    43   125    1
   124    44    45    1
   125    44   126    1
   126    44   127    1
   127    45    46    1
   128    45   128    1
   129    45   129    1
   130    46    47    1
   131    46   130    1
   132    46   131    1
   133    47    48    1
   134    47   132    1
   135    47   133    1
   136    48    49    1
   137    48   134    1
   138    48   135    1
   139    49    50    1
   140    49   136    1
   141    49   137    1
   142    50    51    1
   143    50   138    1
   144    50   139    1
   145    51    52    1
   146    51   140    1
   147    51   141    1
   148    52   142    1
   149    52   143    1
   150    52   144    1
   151   145   146    1
   152   145   196    1
   153   145   197    1
   154   145   198    1
   155   146   147    1
   156   146   199    1
   157   146   200    1
   158   147   148    1
   159   147   201    1
   160   147   202    1
   161   148   149    1
   162   148   203    1
   163   148   204    1
   164   149   150    1
   165   149   205    1
   166   149   206    1
   167   150   151    1
   168   150   207    1
   169   150   208    1
   170   151   152    1
   171   151   209    1
   172   151   210    1
   173   152   153    1
   174   152   211    1
   175   152   212    1
   176   153   154    1
   177   153   213    1
   178   153   214    1
   179   154   155    1
   180   154   215    1
   181   154   216    1
   182   155   156    1
   183   155   166    1
   184   156   157    1
   185   156   217    1
   186   156   218    1
   187   157   158    1
   188   157   219    1
   189   157   220    1
   190   158   159    1
   191   158   221    1
   192   158   222    1
   193   159   160    1
   194   159   223    1
   195   159   224    1
   196   160   161    1
   197   160   225    1
   198   160   226    1
   199   161   162    1
   200   161   227    1
   201   161   228    1
   202   162   163    1
   203   162   229    1
   204   162   230    1
   205   163   164    1
   206   163   231    1
   207   163   232    1
   208   164   165    1
   209   164   233    1
   210   164   234    1
   211   165   235    1
   212   165   236    1
   213   165   237    1
   214   166   167    2
   215   166   168    1
   216   168   169    1
   217   168   170    1
   218   168   238    1
   219   169   239    1
   220   169   240    1
   221   169   241    1
   222   170   171    1
   223   171   172    1
   224   171   173    1
   225   171   242    1
   226   172   243    1
   227   172   244    1
   228   172   245    1
   229   173   174    2
   230   173   175    1
   231   175   176    1
   232   175   186    1
   233   176   177    1
   234   176   246    1
   235   176   247    1
   236   177   178    1
   237   177   248    1
   238   177   249    1
   239   178   179    1
   240   178   250    1
   241   178   251    1
   242   179   180    1
   243   179   252    1
   244   179   253    1
   245   180   181    1
   246   180   254    1
   247   180   255    1
   248   181   182    1
   249   181   256    1
   250   181   257    1
   251   182   183    1
   252   182   258    1
   253   182   259    1
   254   183   184    1
   255   183   260    1
   256   183   261    1
   257   184   185    1
   258   184   262    1
   259   184   263    1
   260   185   264    1
   261   185   265    1
   262   185   266    1
   263   186   187    1
   264   186   267    1
   265   186   268    1
   266   187   188    1
   267   187   269    1
   268   187   270    1
   269   188   189    1
   270   188   271    1
   271   188   272    1
   272   189   190    1
   273   189   273    1
   274   189   274    1
   275   190   191    1
   276   190   275    1
   277   190   276    1
   278   191   192    1
   279   191   277    1
   280   191   278    1
   281   192   193    1
   282   192   279    1
   283   192   280    1
   284   193   194    1
   285   193   281    1
   286   193   282    1
   287   194   195    1
   288   194   283    1
   289   194   284    1
   290   195   285    1
   291   195   286    1
   292   195   287    1
   293   288   289    2
   294   288   290    1
   295   288   291    1
@<TRIPOS>SUBSTRUCTURE
     1 RES1      291 GROUP             0 ****  ****    0  
