@<TRIPOS>MOLECULE
YEMSEP_geometry_0_nunpairedes_0_charge_3 Charge: 3 Unpaired_Electrons: 6 XTB_Unpaired_Electrons: 0 XTB_Charge: 3
    95   105     1     0     0
SMALL
NoCharges
****
Generated from Architector

@<TRIPOS>ATOM
     1 Tb1      -3.1190   -2.1335   -1.8565   Tb        1 RES1   0.0000
     2 C1       -6.4899   -0.7919   -2.7866   C.3       1 RES1   0.0000
     3 C2       -6.9724    0.1746   -3.8752   C.3       1 RES1   0.0000
     4 C3       -6.2213    1.5119   -3.8697   C.3       1 RES1   0.0000
     5 C4       -4.8004    1.4158   -4.4493   C.3       1 RES1   0.0000
     6 C5       -3.8222    2.3909   -3.7635   C.3       1 RES1   0.0000
     7 C6       -3.4289    1.8646   -2.4254   C.ar      1 RES1   0.0000
     8 N1       -2.9461    0.6427   -2.4074   N.ar      1 RES1   0.0000
     9 N2       -2.7538   -0.0354   -1.2617   N.ar      1 RES1   0.0000
    10 C7       -3.3346    0.4829   -0.1600   C.ar      1 RES1   0.0000
    11 C8       -3.5354   -0.4770    0.9462   C.ar      1 RES1   0.0000
    12 C9       -3.6375   -0.1149    2.2840   C.ar      1 RES1   0.0000
    13 C10      -3.6076   -1.1184    3.2541   C.ar      1 RES1   0.0000
    14 C11      -3.5259   -2.4432    2.8717   C.ar      1 RES1   0.0000
    15 C12      -3.5101   -2.7469    1.5017   C.ar      1 RES1   0.0000
    16 C13      -3.3660   -4.1242    1.0510   C.ar      1 RES1   0.0000
    17 C14      -3.9211   -5.2030    1.6834   C.ar      1 RES1   0.0000
    18 C15      -3.6154   -6.5331    1.3129   C.ar      1 RES1   0.0000
    19 C16      -2.5575   -6.7660    0.4767   C.ar      1 RES1   0.0000
    20 C17      -1.9838   -5.6618   -0.1538   C.ar      1 RES1   0.0000
    21 C18      -0.7522   -5.1312   -0.5231   C.ar      1 RES1   0.0000
    22 N3       -1.2490   -3.7706   -0.3271   N.ar      1 RES1   0.0000
    23 N4       -1.0460   -3.0274   -1.4772   N.ar      1 RES1   0.0000
    24 C19       0.1015   -3.2408   -2.1095   C.ar      1 RES1   0.0000
    25 C20       0.3070   -2.4026   -3.3427   C.3       1 RES1   0.0000
    26 C21      -0.6607   -2.7982   -4.4835   C.3       1 RES1   0.0000
    27 C22      -1.9896   -2.0026   -4.4925   C.3       1 RES1   0.0000
    28 C23      -2.1758   -1.1965   -5.7958   C.3       1 RES1   0.0000
    29 C24      -1.1594   -0.0608   -5.8682   C.3       1 RES1   0.0000
    30 C25       0.9506   -4.3689   -1.7819   C.ar      1 RES1   0.0000
    31 C26       2.3344   -4.5730   -2.2640   C.3       1 RES1   0.0000
    32 C27       2.6942   -6.0559   -2.4462   C.3       1 RES1   0.0000
    33 C28       2.1505   -6.6202   -3.7576   C.3       1 RES1   0.0000
    34 C29       0.6374   -6.8324   -3.8100   C.3       1 RES1   0.0000
    35 C30       0.2508   -7.7473   -4.9656   C.3       1 RES1   0.0000
    36 N5        0.3563   -5.3585   -1.1508   N.ar      1 RES1   0.0000
    37 N6       -2.5982   -4.3473   -0.1267   N.ar      1 RES1   0.0000
    38 N7       -3.5035   -1.7813    0.5568   N.ar      1 RES1   0.0000
    39 N8       -3.6624    1.7539   -0.0937   N.ar      1 RES1   0.0000
    40 C31      -3.5854    2.5393   -1.1558   C.ar      1 RES1   0.0000
    41 C32      -3.8114    3.9733   -0.9694   C.3       1 RES1   0.0000
    42 C33      -5.3389    4.2958   -1.0679   C.3       1 RES1   0.0000
    43 C34      -6.2338    3.5398   -0.0907   C.3       1 RES1   0.0000
    44 C35      -6.2823    4.0968    1.3337   C.3       1 RES1   0.0000
    45 C36      -4.9602    4.0580    2.0916   C.3       1 RES1   0.0000
    46 H1       -7.1014   -1.6925   -2.8024   H         1 RES1   0.0000
    47 H2       -6.6034   -0.3210   -1.8078   H         1 RES1   0.0000
    48 H3       -5.3932   -1.1069   -2.9274   H         1 RES1   0.0000
    49 H4       -8.0282    0.3800   -3.6718   H         1 RES1   0.0000
    50 H5       -6.9170   -0.2946   -4.8600   H         1 RES1   0.0000
    51 H6       -6.1810    1.8774   -2.8392   H         1 RES1   0.0000
    52 H7       -6.7981    2.2397   -4.4429   H         1 RES1   0.0000
    53 H8       -4.8219    1.6184   -5.5195   H         1 RES1   0.0000
    54 H9       -4.4063    0.4008   -4.3148   H         1 RES1   0.0000
    55 H10      -4.2623    3.3823   -3.6828   H         1 RES1   0.0000
    56 H11      -2.9269    2.4830   -4.3829   H         1 RES1   0.0000
    57 H12      -3.6989    0.9245    2.5709   H         1 RES1   0.0000
    58 H13      -3.5940   -0.8643    4.3050   H         1 RES1   0.0000
    59 H14      -3.3993   -3.2269    3.6060   H         1 RES1   0.0000
    60 H15      -4.6093   -5.0430    2.5003   H         1 RES1   0.0000
    61 H16      -4.1140   -7.3427    1.8095   H         1 RES1   0.0000
    62 H17      -2.1264   -7.7414    0.3469   H         1 RES1   0.0000
    63 H18       1.3348   -2.5193   -3.6824   H         1 RES1   0.0000
    64 H19       0.1682   -1.3499   -3.0655   H         1 RES1   0.0000
    65 H20      -0.8465   -3.8750   -4.4316   H         1 RES1   0.0000
    66 H21      -0.1536   -2.6238   -5.4336   H         1 RES1   0.0000
    67 H22      -1.9410   -1.2148   -3.6973   H         1 RES1   0.0000
    68 H23      -2.8739   -2.6971   -4.3829   H         1 RES1   0.0000
    69 H24      -3.1832   -0.7763   -5.8260   H         1 RES1   0.0000
    70 H25      -2.0701   -1.8551   -6.6575   H         1 RES1   0.0000
    71 H26      -1.2649    0.6032   -5.0100   H         1 RES1   0.0000
    72 H27      -1.3116    0.5226   -6.7714   H         1 RES1   0.0000
    73 H28      -0.1389   -0.4336   -5.8901   H         1 RES1   0.0000
    74 H29       2.9957   -4.1551   -1.4945   H         1 RES1   0.0000
    75 H30       2.5384   -4.0352   -3.1936   H         1 RES1   0.0000
    76 H31       2.3326   -6.6452   -1.6065   H         1 RES1   0.0000
    77 H32       3.7793   -6.1466   -2.4501   H         1 RES1   0.0000
    78 H33       2.6370   -7.5814   -3.9294   H         1 RES1   0.0000
    79 H34       2.4539   -5.9593   -4.5714   H         1 RES1   0.0000
    80 H35       0.1189   -5.8720   -3.9252   H         1 RES1   0.0000
    81 H36       0.2929   -7.2598   -2.8666   H         1 RES1   0.0000
    82 H37       0.6293   -7.3540   -5.9053   H         1 RES1   0.0000
    83 H38      -0.8293   -7.8504   -5.0383   H         1 RES1   0.0000
    84 H39       0.6752   -8.7366   -4.8217   H         1 RES1   0.0000
    85 H40      -3.2981    4.5665   -1.7231   H         1 RES1   0.0000
    86 H41      -3.4741    4.2674    0.0215   H         1 RES1   0.0000
    87 H42      -5.6667    4.1111   -2.0922   H         1 RES1   0.0000
    88 H43      -5.4216    5.3672   -0.8899   H         1 RES1   0.0000
    89 H44      -5.9482    2.4829   -0.0456   H         1 RES1   0.0000
    90 H45      -7.2496    3.5858   -0.4947   H         1 RES1   0.0000
    91 H46      -7.0170    3.5034    1.8795   H         1 RES1   0.0000
    92 H47      -6.6502    5.1215    1.3036   H         1 RES1   0.0000
    93 H48      -4.4773    3.0898    1.9800   H         1 RES1   0.0000
    94 H49      -5.1420    4.2316    3.1468   H         1 RES1   0.0000
    95 H50      -4.2847    4.8384    1.7554   H         1 RES1   0.0000
@<TRIPOS>BOND
     1     1     8    1
     2     1     9    1
     3     1    22    1
     4     1    23    1
     5     1    36    1
     6     1    37    1
     7     1    38    1
     8     1    39    1
     9     2     3    1
    10     2    46    1
    11     2    47    1
    12     2    48    1
    13     3     4    1
    14     3    49    1
    15     3    50    1
    16     4     5    1
    17     4    51    1
    18     4    52    1
    19     5     6    1
    20     5    53    1
    21     5    54    1
    22     6     7    1
    23     6    55    1
    24     6    56    1
    25     7     8    1
    26     7    40    2
    27     8     9    2
    28     9    10    1
    29    10    11    1
    30    10    39    2
    31    11    12    1
    32    11    38    2
    33    12    13    2
    34    12    57    1
    35    13    14    1
    36    13    58    1
    37    14    15    2
    38    14    59    1
    39    15    16    1
    40    15    38    1
    41    16    17    1
    42    16    37    2
    43    17    18    2
    44    17    60    1
    45    18    19    1
    46    18    61    1
    47    19    20    2
    48    19    62    1
    49    20    21    1
    50    20    37    1
    51    21    22    1
    52    21    36    2
    53    22    23    2
    54    23    24    1
    55    24    25    1
    56    24    30    2
    57    25    26    1
    58    25    63    1
    59    25    64    1
    60    26    27    1
    61    26    65    1
    62    26    66    1
    63    27    28    1
    64    27    67    1
    65    27    68    1
    66    28    29    1
    67    28    69    1
    68    28    70    1
    69    29    71    1
    70    29    72    1
    71    29    73    1
    72    30    31    1
    73    30    36    1
    74    31    32    1
    75    31    74    1
    76    31    75    1
    77    32    33    1
    78    32    76    1
    79    32    77    1
    80    33    34    1
    81    33    78    1
    82    33    79    1
    83    34    35    1
    84    34    80    1
    85    34    81    1
    86    35    82    1
    87    35    83    1
    88    35    84    1
    89    39    40    1
    90    40    41    1
    91    41    42    1
    92    41    85    1
    93    41    86    1
    94    42    43    1
    95    42    87    1
    96    42    88    1
    97    43    44    1
    98    43    89    1
    99    43    90    1
   100    44    45    1
   101    44    91    1
   102    44    92    1
   103    45    93    1
   104    45    94    1
   105    45    95    1
@<TRIPOS>SUBSTRUCTURE
     1 RES1       95 GROUP             0 ****  ****    0  
