@<TRIPOS>MOLECULE
ICIGOT_geomtry_0_nunpairedes_0_charge_3 Charge: 3 Unpaired_Electrons: 6 XTB_Unpaired_Electrons: 0 XTB_Charge: 3
   157   168     1     0     0
SMALL
NoCharges
****
Generated from Architector

@<TRIPOS>ATOM
     1 Tb1      -0.0749    0.0024    0.1048   Tb        1 RES1   0.0000
     2 C1       -4.9775   -1.9332   -2.1033   C.3       1 RES1   0.0000
     3 N1       -3.7350   -2.0666   -1.3563   N.am      1 RES1   0.0000
     4 C2       -2.8857   -1.0519   -1.1401   C.2       1 RES1   0.0000
     5 O1       -1.9523   -1.1486   -0.3207   O.2       1 RES1   0.0000
     6 C3       -3.0917    0.2793   -1.8640   C.3       1 RES1   0.0000
     7 C4       -1.8510    0.7987   -2.5945   C.2       1 RES1   0.0000
     8 O2       -0.8265    1.0756   -1.9504   O.2       1 RES1   0.0000
     9 N2       -1.9443    1.0367   -3.9104   N.am      1 RES1   0.0000
    10 C5       -3.1366    0.7430   -4.6902   C.3       1 RES1   0.0000
    11 C6       -0.8660    1.6260   -4.6505   C.ar      1 RES1   0.0000
    12 C7        0.4561    1.2490   -4.4624   C.ar      1 RES1   0.0000
    13 C8        1.4531    1.7877   -5.2589   C.ar      1 RES1   0.0000
    14 C9        1.1487    2.6827   -6.2691   C.ar      1 RES1   0.0000
    15 C10      -0.1673    3.0729   -6.4491   C.ar      1 RES1   0.0000
    16 C11      -1.1640    2.5686   -5.6311   C.ar      1 RES1   0.0000
    17 C12      -3.5699   -3.3310   -0.6950   C.ar      1 RES1   0.0000
    18 C13      -2.3127   -3.8594   -0.4169   C.ar      1 RES1   0.0000
    19 C14      -2.2114   -5.0829    0.2236   C.ar      1 RES1   0.0000
    20 C15      -3.3389   -5.8116    0.5598   C.ar      1 RES1   0.0000
    21 C16      -4.5867   -5.3054    0.2474   C.ar      1 RES1   0.0000
    22 C17      -4.7045   -4.0679   -0.3582   C.ar      1 RES1   0.0000
    23 H1       -4.8874   -1.2289   -2.9196   H         1 RES1   0.0000
    24 H2       -5.7792   -1.6062   -1.4383   H         1 RES1   0.0000
    25 H3       -5.2549   -2.8909   -2.5405   H         1 RES1   0.0000
    26 H4       -3.2817    1.0206   -1.0753   H         1 RES1   0.0000
    27 H5       -3.9494    0.2867   -2.5164   H         1 RES1   0.0000
    28 H6       -3.4874   -0.2628   -4.4752   H         1 RES1   0.0000
    29 H7       -2.9004    0.7698   -5.7517   H         1 RES1   0.0000
    30 H8       -3.9247    1.4727   -4.4980   H         1 RES1   0.0000
    31 H9        0.7131    0.5365   -3.7032   H         1 RES1   0.0000
    32 H10       2.4838    1.5143   -5.0959   H         1 RES1   0.0000
    33 H11       1.9298    3.0806   -6.8976   H         1 RES1   0.0000
    34 H12      -0.4285    3.7791   -7.2206   H         1 RES1   0.0000
    35 H13      -2.1783    2.9159   -5.7500   H         1 RES1   0.0000
    36 H14      -1.4083   -3.3400   -0.6991   H         1 RES1   0.0000
    37 H15      -1.2393   -5.4824    0.4599   H         1 RES1   0.0000
    38 H16      -3.2473   -6.7622    1.0586   H         1 RES1   0.0000
    39 H17      -5.4823   -5.8577    0.4781   H         1 RES1   0.0000
    40 H18      -5.6933   -3.6891   -0.5567   H         1 RES1   0.0000
    41 C18       1.3341    5.2524    2.3310   C.3       1 RES1   0.0000
    42 N3        1.1888    3.8003    2.3656   N.am      1 RES1   0.0000
    43 C19       0.9393    3.0806    1.2700   C.2       1 RES1   0.0000
    44 O3        1.0466    1.8384    1.2066   O.2       1 RES1   0.0000
    45 C20       0.4285    3.7836    0.0263   C.3       1 RES1   0.0000
    46 C21      -1.0533    3.3995   -0.0962   C.2       1 RES1   0.0000
    47 O4       -1.4082    2.2502    0.2068   O.2       1 RES1   0.0000
    48 N4       -1.8940    4.3261   -0.5728   N.am      1 RES1   0.0000
    49 C22      -1.5076    5.7127   -0.7796   C.3       1 RES1   0.0000
    50 C23      -3.2129    3.9819   -1.0022   C.ar      1 RES1   0.0000
    51 C24      -3.6950    4.5165   -2.1947   C.ar      1 RES1   0.0000
    52 C25      -4.9885    4.2406   -2.6031   C.ar      1 RES1   0.0000
    53 C26      -5.7921    3.3860   -1.8650   C.ar      1 RES1   0.0000
    54 C27      -5.2896    2.8105   -0.7119   C.ar      1 RES1   0.0000
    55 C28      -4.0162    3.1250   -0.2618   C.ar      1 RES1   0.0000
    56 C29       1.4704    3.1836    3.6302   C.ar      1 RES1   0.0000
    57 C30       2.5839    3.5958    4.3533   C.ar      1 RES1   0.0000
    58 C31       2.8394    3.0464    5.5961   C.ar      1 RES1   0.0000
    59 C32       2.0046    2.0732    6.1165   C.ar      1 RES1   0.0000
    60 C33       0.9052    1.6564    5.3872   C.ar      1 RES1   0.0000
    61 C34       0.6226    2.2137    4.1513   C.ar      1 RES1   0.0000
    62 H19       0.4410    5.7446    1.9536   H         1 RES1   0.0000
    63 H20       2.1958    5.5237    1.7228   H         1 RES1   0.0000
    64 H21       1.5011    5.6293    3.3369   H         1 RES1   0.0000
    65 H22       0.9262    3.3268   -0.8370   H         1 RES1   0.0000
    66 H23       0.6094    4.8473    0.0169   H         1 RES1   0.0000
    67 H24      -1.0560    6.1203    0.1210   H         1 RES1   0.0000
    68 H25      -2.3889    6.3158   -0.9816   H         1 RES1   0.0000
    69 H26      -0.8283    5.8173   -1.6227   H         1 RES1   0.0000
    70 H27      -3.0706    5.1557   -2.8008   H         1 RES1   0.0000
    71 H28      -5.3671    4.6982   -3.5040   H         1 RES1   0.0000
    72 H29      -6.8052    3.1992   -2.1843   H         1 RES1   0.0000
    73 H30      -5.8928    2.1161   -0.1515   H         1 RES1   0.0000
    74 H31      -3.6542    2.7298    0.6722   H         1 RES1   0.0000
    75 H32       3.2563    4.3361    3.9456   H         1 RES1   0.0000
    76 H33       3.7025    3.3762    6.1496   H         1 RES1   0.0000
    77 H34       2.2157    1.6626    7.0908   H         1 RES1   0.0000
    78 H35       0.2573    0.8991    5.7944   H         1 RES1   0.0000
    79 H36      -0.2555    1.9073    3.6017   H         1 RES1   0.0000
    80 C35      -2.3532   -2.3722    4.7728   C.3       1 RES1   0.0000
    81 N5       -2.3782   -1.4275    3.6645   N.am      1 RES1   0.0000
    82 C36      -1.2999   -1.1851    2.9128   C.2       1 RES1   0.0000
    83 O5       -1.2387   -0.2416    2.1024   O.2       1 RES1   0.0000
    84 C37      -0.1025   -2.1408    2.9820   C.3       1 RES1   0.0000
    85 C38       1.1890   -1.3264    2.8767   C.2       1 RES1   0.0000
    86 O6        1.4113   -0.7564    1.7950   O.2       1 RES1   0.0000
    87 N6        2.0136   -1.2513    3.9252   N.am      1 RES1   0.0000
    88 C39       1.6867   -1.9210    5.1748   C.3       1 RES1   0.0000
    89 C40       3.2494   -0.5302    3.8813   C.ar      1 RES1   0.0000
    90 C41       3.4130    0.6230    3.1243   C.ar      1 RES1   0.0000
    91 C42       4.6173    1.3063    3.1654   C.ar      1 RES1   0.0000
    92 C43       5.6518    0.8881    3.9819   C.ar      1 RES1   0.0000
    93 C44       5.4888   -0.2613    4.7348   C.ar      1 RES1   0.0000
    94 C45       4.3106   -0.9820    4.6615   C.ar      1 RES1   0.0000
    95 C46      -3.6599   -0.8492    3.3877   C.ar      1 RES1   0.0000
    96 C47      -3.8153    0.4271    2.8606   C.ar      1 RES1   0.0000
    97 C48      -5.0916    0.9274    2.6550   C.ar      1 RES1   0.0000
    98 C49      -6.2149    0.1910    2.9857   C.ar      1 RES1   0.0000
    99 C50      -6.0592   -1.0884    3.4891   C.ar      1 RES1   0.0000
   100 C51      -4.7932   -1.6119    3.6714   C.ar      1 RES1   0.0000
   101 H37      -1.4035   -2.3174    5.2961   H         1 RES1   0.0000
   102 H38      -2.5235   -3.3916    4.4254   H         1 RES1   0.0000
   103 H39      -3.1237   -2.1097    5.4976   H         1 RES1   0.0000
   104 H40      -0.1670   -2.7093    2.0434   H         1 RES1   0.0000
   105 H41      -0.1257   -2.8473    3.7998   H         1 RES1   0.0000
   106 H42       0.6404   -1.7492    5.4120   H         1 RES1   0.0000
   107 H43       2.2670   -1.5122    5.9981   H         1 RES1   0.0000
   108 H44       1.8884   -2.9910    5.1035   H         1 RES1   0.0000
   109 H45       2.6163    1.0070    2.5137   H         1 RES1   0.0000
   110 H46       4.7606    2.1809    2.5508   H         1 RES1   0.0000
   111 H47       6.5766    1.4435    4.0193   H         1 RES1   0.0000
   112 H48       6.2836   -0.6098    5.3733   H         1 RES1   0.0000
   113 H49       4.2300   -1.9089    5.2052   H         1 RES1   0.0000
   114 H50      -2.9582    1.0361    2.6236   H         1 RES1   0.0000
   115 H51      -5.2164    1.9163    2.2467   H         1 RES1   0.0000
   116 H52      -7.2003    0.6099    2.8591   H         1 RES1   0.0000
   117 H53      -6.9154   -1.6932    3.7394   H         1 RES1   0.0000
   118 H54      -4.7016   -2.6253    4.0261   H         1 RES1   0.0000
   119 C52       2.4542   -2.4157   -4.7854   C.3       1 RES1   0.0000
   120 N7        1.2642   -2.0973   -4.0158   N.am      1 RES1   0.0000
   121 C53       1.3050   -1.5099   -2.8152   C.2       1 RES1   0.0000
   122 O7        0.2849   -1.1281   -2.2157   O.2       1 RES1   0.0000
   123 C54       2.6207   -1.3400   -2.0668   C.3       1 RES1   0.0000
   124 C55       2.4711   -2.2495   -0.8323   C.2       1 RES1   0.0000
   125 O8        1.4058   -2.1869   -0.2072   O.2       1 RES1   0.0000
   126 N8        3.4950   -3.0331   -0.4825   N.am      1 RES1   0.0000
   127 C56       4.6644   -3.2239   -1.3236   C.3       1 RES1   0.0000
   128 C57       3.5172   -3.6820    0.7903   C.ar      1 RES1   0.0000
   129 C58       2.3758   -4.2720    1.3124   C.ar      1 RES1   0.0000
   130 C59       2.4305   -4.8861    2.5520   C.ar      1 RES1   0.0000
   131 C60       3.6220   -4.9705    3.2509   C.ar      1 RES1   0.0000
   132 C61       4.7645   -4.3985    2.7176   C.ar      1 RES1   0.0000
   133 C62       4.7092   -3.7290    1.5080   C.ar      1 RES1   0.0000
   134 C63       0.0209   -2.2792   -4.7006   C.ar      1 RES1   0.0000
   135 C64      -1.1256   -2.6494   -4.0088   C.ar      1 RES1   0.0000
   136 C65      -2.3243   -2.7774   -4.6890   C.ar      1 RES1   0.0000
   137 C66      -2.3885   -2.5899   -6.0600   C.ar      1 RES1   0.0000
   138 C67      -1.2335   -2.2776   -6.7556   C.ar      1 RES1   0.0000
   139 C68      -0.0383   -2.1044   -6.0804   C.ar      1 RES1   0.0000
   140 H55       3.2724   -2.7129   -4.1395   H         1 RES1   0.0000
   141 H56       2.7619   -1.5520   -5.3785   H         1 RES1   0.0000
   142 H57       2.2402   -3.2488   -5.4527   H         1 RES1   0.0000
   143 H58       2.6247   -0.3197   -1.6568   H         1 RES1   0.0000
   144 H59       3.5276   -1.4751   -2.6388   H         1 RES1   0.0000
   145 H60       4.3605   -3.4795   -2.3357   H         1 RES1   0.0000
   146 H61       5.2462   -4.0625   -0.9504   H         1 RES1   0.0000
   147 H62       5.3028   -2.3418   -1.3349   H         1 RES1   0.0000
   148 H63       1.4636   -4.2789    0.7401   H         1 RES1   0.0000
   149 H64       1.5398   -5.3249    2.9705   H         1 RES1   0.0000
   150 H65       3.6653   -5.4937    4.1939   H         1 RES1   0.0000
   151 H66       5.7068   -4.4635    3.2369   H         1 RES1   0.0000
   152 H67       5.5985   -3.2499    1.1294   H         1 RES1   0.0000
   153 H68      -1.0793   -2.8585   -2.9535   H         1 RES1   0.0000
   154 H69      -3.2185   -3.0449   -4.1494   H         1 RES1   0.0000
   155 H70      -3.3240   -2.6999   -6.5861   H         1 RES1   0.0000
   156 H71      -1.2486   -2.1540   -7.8263   H         1 RES1   0.0000
   157 H72       0.8398   -1.8293   -6.6412   H         1 RES1   0.0000
@<TRIPOS>BOND
     1     1     5    1
     2     1     8    1
     3     1    44    1
     4     1    47    1
     5     1    83    1
     6     1    86    1
     7     1   122    1
     8     1   125    1
     9     2     3    1
    10     2    23    1
    11     2    24    1
    12     2    25    1
    13     3     4    1
    14     3    17    1
    15     4     5    2
    16     4     6    1
    17     6     7    1
    18     6    26    1
    19     6    27    1
    20     7     8    2
    21     7     9    1
    22     9    10    1
    23     9    11    1
    24    10    28    1
    25    10    29    1
    26    10    30    1
    27    11    12    1
    28    11    16    2
    29    12    13    2
    30    12    31    1
    31    13    14    1
    32    13    32    1
    33    14    15    2
    34    14    33    1
    35    15    16    1
    36    15    34    1
    37    16    35    1
    38    17    18    1
    39    17    22    2
    40    18    19    2
    41    18    36    1
    42    19    20    1
    43    19    37    1
    44    20    21    2
    45    20    38    1
    46    21    22    1
    47    21    39    1
    48    22    40    1
    49    41    42    1
    50    41    62    1
    51    41    63    1
    52    41    64    1
    53    42    43    1
    54    42    56    1
    55    43    44    2
    56    43    45    1
    57    45    46    1
    58    45    65    1
    59    45    66    1
    60    46    47    2
    61    46    48    1
    62    48    49    1
    63    48    50    1
    64    49    67    1
    65    49    68    1
    66    49    69    1
    67    50    51    1
    68    50    55    2
    69    51    52    2
    70    51    70    1
    71    52    53    1
    72    52    71    1
    73    53    54    2
    74    53    72    1
    75    54    55    1
    76    54    73    1
    77    55    74    1
    78    56    57    1
    79    56    61    2
    80    57    58    2
    81    57    75    1
    82    58    59    1
    83    58    76    1
    84    59    60    2
    85    59    77    1
    86    60    61    1
    87    60    78    1
    88    61    79    1
    89    80    81    1
    90    80   101    1
    91    80   102    1
    92    80   103    1
    93    81    82    1
    94    81    95    1
    95    82    83    2
    96    82    84    1
    97    84    85    1
    98    84   104    1
    99    84   105    1
   100    85    86    2
   101    85    87    1
   102    87    88    1
   103    87    89    1
   104    88   106    1
   105    88   107    1
   106    88   108    1
   107    89    90    1
   108    89    94    2
   109    90    91    2
   110    90   109    1
   111    91    92    1
   112    91   110    1
   113    92    93    2
   114    92   111    1
   115    93    94    1
   116    93   112    1
   117    94   113    1
   118    95    96    1
   119    95   100    2
   120    96    97    2
   121    96   114    1
   122    97    98    1
   123    97   115    1
   124    98    99    2
   125    98   116    1
   126    99   100    1
   127    99   117    1
   128   100   118    1
   129   119   120    1
   130   119   140    1
   131   119   141    1
   132   119   142    1
   133   120   121    1
   134   120   134    1
   135   121   122    2
   136   121   123    1
   137   123   124    1
   138   123   143    1
   139   123   144    1
   140   124   125    2
   141   124   126    1
   142   126   127    1
   143   126   128    1
   144   127   145    1
   145   127   146    1
   146   127   147    1
   147   128   129    1
   148   128   133    2
   149   129   130    2
   150   129   148    1
   151   130   131    1
   152   130   149    1
   153   131   132    2
   154   131   150    1
   155   132   133    1
   156   132   151    1
   157   133   152    1
   158   134   135    1
   159   134   139    2
   160   135   136    2
   161   135   153    1
   162   136   137    1
   163   136   154    1
   164   137   138    2
   165   137   155    1
   166   138   139    1
   167   138   156    1
   168   139   157    1
@<TRIPOS>SUBSTRUCTURE
     1 RES1      157 GROUP             0 ****  ****    0  
