@<TRIPOS>MOLECULE
YEMSEP_geometry_0_nunpairedes_0_charge_3 Charge: 3 Unpaired_Electrons: 6 XTB_Unpaired_Electrons: 0 XTB_Charge: 3
   221   224     1     0     0
SMALL
NoCharges
****
Generated from Architector

@<TRIPOS>ATOM
     1 Tb1       0.3840   -0.2154   -0.1371   Tb        1 RES1   0.0000
     2 C1       -1.8553   -8.5934    1.9520   C.3       1 RES1   0.0000
     3 C2       -2.0690   -7.0897    1.8239   C.3       1 RES1   0.0000
     4 C3       -2.8060   -6.7385    0.5322   C.3       1 RES1   0.0000
     5 C4       -3.0863   -5.2431    0.3721   C.3       1 RES1   0.0000
     6 C5       -1.8317   -4.3710    0.2205   C.3       1 RES1   0.0000
     7 C6       -1.0598   -4.6043   -1.0891   C.3       1 RES1   0.0000
     8 C7        0.0769   -5.6430   -1.0237   C.3       1 RES1   0.0000
     9 C8        0.0690   -6.6108   -2.2209   C.3       1 RES1   0.0000
    10 C9        0.4199   -6.0457   -3.6010   C.3       1 RES1   0.0000
    11 C10      -0.6706   -5.2012   -4.2628   C.3       1 RES1   0.0000
    12 C11      -0.4211   -5.0453   -5.7618   C.3       1 RES1   0.0000
    13 C12       1.4701   -5.0145   -0.8912   C.3       1 RES1   0.0000
    14 C13       1.6512   -4.2078    0.3925   C.3       1 RES1   0.0000
    15 C14       3.1047   -3.7437    0.5285   C.3       1 RES1   0.0000
    16 N1        3.2300   -2.6134    1.4437   N.am      1 RES1   0.0000
    17 C15       3.8219   -2.7889    2.7519   C.3       1 RES1   0.0000
    18 C16       2.7604   -1.4556    1.0042   C.2       1 RES1   0.0000
    19 O1        2.2480   -1.3275   -0.1269   O.2       1 RES1   0.0000
    20 C17       2.8152   -0.2230    1.8997   C.3       1 RES1   0.0000
    21 O2        1.9115    0.7854    1.4226   O.3       1 RES1   0.0000
    22 C18       2.4657    2.0065    0.9259   C.3       1 RES1   0.0000
    23 C19       2.2826    2.0924   -0.5999   C.2       1 RES1   0.0000
    24 O3        1.6676    1.1646   -1.1789   O.2       1 RES1   0.0000
    25 N2        2.7608    3.1232   -1.2698   N.am      1 RES1   0.0000
    26 C20       3.4693    4.2434   -0.6852   C.3       1 RES1   0.0000
    27 C21       2.7865    3.0270   -2.7315   C.3       1 RES1   0.0000
    28 C22       1.4403    3.0653   -3.4562   C.3       1 RES1   0.0000
    29 C23       0.6965    4.4027   -3.3864   C.3       1 RES1   0.0000
    30 C24       0.0481    4.8077   -4.7286   C.3       1 RES1   0.0000
    31 C25      -0.7995    3.7323   -5.4403   C.3       1 RES1   0.0000
    32 C26      -2.2495    3.4763   -5.0245   C.3       1 RES1   0.0000
    33 C27      -2.4024    2.9564   -3.5974   C.3       1 RES1   0.0000
    34 C28      -3.8342    2.5389   -3.2712   C.3       1 RES1   0.0000
    35 C29      -0.6142    6.1939   -4.6377   C.3       1 RES1   0.0000
    36 C30      -1.6998    6.4072   -3.5803   C.3       1 RES1   0.0000
    37 C31      -1.8879    7.8866   -3.2297   C.3       1 RES1   0.0000
    38 C32      -0.7263    8.5261   -2.4656   C.3       1 RES1   0.0000
    39 C33      -0.4140    7.8466   -1.1330   C.3       1 RES1   0.0000
    40 C34       0.6366    8.6233   -0.3501   C.3       1 RES1   0.0000
    41 H1       -1.3181   -8.8241    2.8685   H         1 RES1   0.0000
    42 H2       -2.8091   -9.1133    1.9732   H         1 RES1   0.0000
    43 H3       -1.2782   -8.9721    1.1105   H         1 RES1   0.0000
    44 H4       -2.6486   -6.7272    2.6769   H         1 RES1   0.0000
    45 H5       -1.0919   -6.5965    1.8516   H         1 RES1   0.0000
    46 H6       -2.2375   -7.0988   -0.3250   H         1 RES1   0.0000
    47 H7       -3.7617   -7.2654    0.5279   H         1 RES1   0.0000
    48 H8       -3.7214   -5.1006   -0.5048   H         1 RES1   0.0000
    49 H9       -3.6516   -4.8984    1.2442   H         1 RES1   0.0000
    50 H10      -2.1565   -3.3201    0.2468   H         1 RES1   0.0000
    51 H11      -1.1855   -4.5615    1.0807   H         1 RES1   0.0000
    52 H12      -1.7778   -4.9326   -1.8377   H         1 RES1   0.0000
    53 H13      -0.6512   -3.6488   -1.4245   H         1 RES1   0.0000
    54 H14      -0.0720   -6.2614   -0.1341   H         1 RES1   0.0000
    55 H15       0.7953   -7.3953   -2.0013   H         1 RES1   0.0000
    56 H16      -0.9103   -7.0878   -2.2808   H         1 RES1   0.0000
    57 H17       1.3457   -5.4713   -3.5487   H         1 RES1   0.0000
    58 H18       0.6142   -6.8987   -4.2534   H         1 RES1   0.0000
    59 H19      -1.6358   -5.6934   -4.1264   H         1 RES1   0.0000
    60 H20      -0.7237   -4.2136   -3.7931   H         1 RES1   0.0000
    61 H21      -0.4969   -6.0110   -6.2543   H         1 RES1   0.0000
    62 H22      -1.1605   -4.3844   -6.2112   H         1 RES1   0.0000
    63 H23       0.5751   -4.6489   -5.9572   H         1 RES1   0.0000
    64 H24       2.2063   -5.8216   -0.9271   H         1 RES1   0.0000
    65 H25       1.6581   -4.3457   -1.7326   H         1 RES1   0.0000
    66 H26       1.0158   -3.3197    0.3201   H         1 RES1   0.0000
    67 H27       1.3592   -4.7953    1.2635   H         1 RES1   0.0000
    68 H28       3.7382   -4.5589    0.8662   H         1 RES1   0.0000
    69 H29       3.4592   -3.4157   -0.4522   H         1 RES1   0.0000
    70 H30       4.1904   -3.8065    2.8623   H         1 RES1   0.0000
    71 H31       4.6741   -2.1214    2.8967   H         1 RES1   0.0000
    72 H32       3.0945   -2.6126    3.5510   H         1 RES1   0.0000
    73 H33       2.4817   -0.4885    2.9106   H         1 RES1   0.0000
    74 H34       3.8450    0.1514    1.9425   H         1 RES1   0.0000
    75 H35       1.9059    2.8179    1.4142   H         1 RES1   0.0000
    76 H36       3.5274    2.0917    1.1877   H         1 RES1   0.0000
    77 H37       3.2996    4.3214    0.3837   H         1 RES1   0.0000
    78 H38       4.5428    4.1553   -0.8630   H         1 RES1   0.0000
    79 H39       3.1365    5.1680   -1.1581   H         1 RES1   0.0000
    80 H40       3.4114    3.8378   -3.1004   H         1 RES1   0.0000
    81 H41       3.2577    2.0698   -2.9740   H         1 RES1   0.0000
    82 H42       1.6811    2.8649   -4.5005   H         1 RES1   0.0000
    83 H43       0.8201    2.2362   -3.1030   H         1 RES1   0.0000
    84 H44      -0.0313    4.3886   -2.5749   H         1 RES1   0.0000
    85 H45       1.4104    5.1951   -3.1540   H         1 RES1   0.0000
    86 H46       0.8999    4.9452   -5.4069   H         1 RES1   0.0000
    87 H47      -0.8326    4.0302   -6.4895   H         1 RES1   0.0000
    88 H48      -0.2587    2.7816   -5.4067   H         1 RES1   0.0000
    89 H49      -2.8373    4.3828   -5.1542   H         1 RES1   0.0000
    90 H50      -2.6612    2.7322   -5.7130   H         1 RES1   0.0000
    91 H51      -1.7235    2.0994   -3.4687   H         1 RES1   0.0000
    92 H52      -2.1160    3.7501   -2.9065   H         1 RES1   0.0000
    93 H53      -4.1733    1.7338   -3.9199   H         1 RES1   0.0000
    94 H54      -3.9196    2.2208   -2.2298   H         1 RES1   0.0000
    95 H55      -4.5065    3.3801   -3.4144   H         1 RES1   0.0000
    96 H56       0.1873    6.9088   -4.4498   H         1 RES1   0.0000
    97 H57      -1.0255    6.4334   -5.6180   H         1 RES1   0.0000
    98 H58      -2.6561    6.0291   -3.9405   H         1 RES1   0.0000
    99 H59      -1.4637    5.8715   -2.6606   H         1 RES1   0.0000
   100 H60      -2.0502    8.4480   -4.1499   H         1 RES1   0.0000
   101 H61      -2.7928    7.9799   -2.6243   H         1 RES1   0.0000
   102 H62       0.1746    8.5419   -3.0817   H         1 RES1   0.0000
   103 H63      -0.9911    9.5654   -2.2683   H         1 RES1   0.0000
   104 H64      -1.3325    7.7767   -0.5452   H         1 RES1   0.0000
   105 H65      -0.0458    6.8305   -1.3099   H         1 RES1   0.0000
   106 H66       0.2785    9.6247   -0.1319   H         1 RES1   0.0000
   107 H67       0.8684    8.1287    0.5903   H         1 RES1   0.0000
   108 H68       1.5533    8.7110   -0.9284   H         1 RES1   0.0000
   109 C35       2.6204    3.9562   -8.7867   C.3       1 RES1   0.0000
   110 C36       3.4716    2.7317   -9.1097   C.3       1 RES1   0.0000
   111 C37       3.5798    1.7523   -7.9373   C.3       1 RES1   0.0000
   112 C38       4.4696    2.2995   -6.8201   C.3       1 RES1   0.0000
   113 C39       4.1743    1.7315   -5.4278   C.3       1 RES1   0.0000
   114 C40       4.9038    0.4472   -5.0290   C.3       1 RES1   0.0000
   115 C41       4.4111   -0.8918   -5.6022   C.3       1 RES1   0.0000
   116 C42       5.6205   -1.8474   -5.5507   C.3       1 RES1   0.0000
   117 C43       5.5799   -3.1669   -6.3190   C.3       1 RES1   0.0000
   118 C44       6.9382   -3.8547   -6.1496   C.3       1 RES1   0.0000
   119 C45       7.0791   -5.1527   -6.9308   C.3       1 RES1   0.0000
   120 C46       3.2616   -1.5371   -4.8064   C.3       1 RES1   0.0000
   121 C47       1.8971   -0.8257   -4.7488   C.3       1 RES1   0.0000
   122 C48       0.8516   -1.8391   -4.2624   C.3       1 RES1   0.0000
   123 N3       -0.4559   -1.2691   -3.9241   N.am      1 RES1   0.0000
   124 C49      -1.3604   -0.9425   -5.0047   C.3       1 RES1   0.0000
   125 C50      -0.7806   -1.1765   -2.6515   C.2       1 RES1   0.0000
   126 O4        0.0295   -1.5060   -1.7498   O.2       1 RES1   0.0000
   127 C51      -2.1708   -0.7408   -2.1526   C.3       1 RES1   0.0000
   128 O5       -1.9363   -0.5051   -0.7554   O.3       1 RES1   0.0000
   129 C52      -2.9803    0.0257    0.0548   C.3       1 RES1   0.0000
   130 C53      -2.2633    0.6145    1.2827   C.2       1 RES1   0.0000
   131 O6       -1.0148    0.6832    1.2675   O.2       1 RES1   0.0000
   132 N4       -2.9488    1.0955    2.3035   N.am      1 RES1   0.0000
   133 C54      -4.3661    0.8635    2.4909   C.3       1 RES1   0.0000
   134 C55      -2.2169    1.8711    3.3070   C.3       1 RES1   0.0000
   135 C56      -1.7021    1.0394    4.5032   C.3       1 RES1   0.0000
   136 C57      -0.1709    1.0582    4.6611   C.3       1 RES1   0.0000
   137 C58       0.2634    0.2965    5.9346   C.3       1 RES1   0.0000
   138 C59      -0.0814    1.0328    7.2530   C.3       1 RES1   0.0000
   139 C60       0.8500    2.0864    7.8688   C.3       1 RES1   0.0000
   140 C61       1.1886    3.3039    7.0040   C.3       1 RES1   0.0000
   141 C62       2.2405    4.1757    7.6859   C.3       1 RES1   0.0000
   142 C63       1.6777   -0.3353    5.8921   C.3       1 RES1   0.0000
   143 C64       2.9670    0.4943    6.0654   C.3       1 RES1   0.0000
   144 C65       3.7188    0.8039    4.7740   C.3       1 RES1   0.0000
   145 C66       5.0539    1.5186    4.9915   C.3       1 RES1   0.0000
   146 C67       5.7657    1.8160    3.6665   C.3       1 RES1   0.0000
   147 C68       5.3090    3.1293    3.0382   C.3       1 RES1   0.0000
   148 H69       2.4579    4.5413   -9.6866   H         1 RES1   0.0000
   149 H70       3.1050    4.5992   -8.0551   H         1 RES1   0.0000
   150 H71       1.6482    3.6553   -8.3974   H         1 RES1   0.0000
   151 H72       4.4723    3.0505   -9.4048   H         1 RES1   0.0000
   152 H73       3.0252    2.2097   -9.9567   H         1 RES1   0.0000
   153 H74       3.9755    0.8020   -8.3011   H         1 RES1   0.0000
   154 H75       2.5733    1.5660   -7.5459   H         1 RES1   0.0000
   155 H76       4.3116    3.3793   -6.7650   H         1 RES1   0.0000
   156 H77       5.5195    2.1456   -7.0725   H         1 RES1   0.0000
   157 H78       3.0967    1.5960   -5.3286   H         1 RES1   0.0000
   158 H79       4.4921    2.4953   -4.7147   H         1 RES1   0.0000
   159 H80       4.9005    0.3674   -3.9370   H         1 RES1   0.0000
   160 H81       5.9450    0.5738   -5.3282   H         1 RES1   0.0000
   161 H82       4.0938   -0.7473   -6.6352   H         1 RES1   0.0000
   162 H83       5.8206   -2.0711   -4.4991   H         1 RES1   0.0000
   163 H84       6.4821   -1.3004   -5.9320   H         1 RES1   0.0000
   164 H85       5.3938   -2.9850   -7.3774   H         1 RES1   0.0000
   165 H86       4.7945   -3.8268   -5.9458   H         1 RES1   0.0000
   166 H87       7.0984   -4.0533   -5.0874   H         1 RES1   0.0000
   167 H88       7.7209   -3.1671   -6.4737   H         1 RES1   0.0000
   168 H89       6.3222   -5.8742   -6.6363   H         1 RES1   0.0000
   169 H90       8.0553   -5.5913   -6.7443   H         1 RES1   0.0000
   170 H91       6.9902   -4.9739   -7.9981   H         1 RES1   0.0000
   171 H92       3.6058   -1.6896   -3.7797   H         1 RES1   0.0000
   172 H93       3.1057   -2.5225   -5.2514   H         1 RES1   0.0000
   173 H94       1.6285   -0.4433   -5.7341   H         1 RES1   0.0000
   174 H95       1.9318    0.0083   -4.0432   H         1 RES1   0.0000
   175 H96       1.2324   -2.3192   -3.3589   H         1 RES1   0.0000
   176 H97       0.6864   -2.6002   -5.0250   H         1 RES1   0.0000
   177 H98      -0.8422   -1.0763   -5.9535   H         1 RES1   0.0000
   178 H99      -1.7047    0.0897   -4.9377   H         1 RES1   0.0000
   179 H100     -2.2273   -1.6079   -4.9907   H         1 RES1   0.0000
   180 H101     -2.8739   -1.5745   -2.2985   H         1 RES1   0.0000
   181 H102     -2.5542    0.1559   -2.6522   H         1 RES1   0.0000
   182 H103     -3.7004   -0.7547    0.3324   H         1 RES1   0.0000
   183 H104     -3.5126    0.8334   -0.4680   H         1 RES1   0.0000
   184 H105     -4.9666    1.3811    1.7394   H         1 RES1   0.0000
   185 H106     -4.6553    1.2199    3.4765   H         1 RES1   0.0000
   186 H107     -4.5958   -0.2006    2.4389   H         1 RES1   0.0000
   187 H108     -2.8808    2.6615    3.6420   H         1 RES1   0.0000
   188 H109     -1.3659    2.3291    2.7959   H         1 RES1   0.0000
   189 H110     -2.0504    0.0095    4.3954   H         1 RES1   0.0000
   190 H111     -2.1523    1.4191    5.4193   H         1 RES1   0.0000
   191 H112      0.1633    2.0930    4.6996   H         1 RES1   0.0000
   192 H113      0.2789    0.5824    3.7788   H         1 RES1   0.0000
   193 H114     -0.3945   -0.5881    5.9575   H         1 RES1   0.0000
   194 H115     -0.1845    0.2591    8.0167   H         1 RES1   0.0000
   195 H116     -1.0681    1.4854    7.1348   H         1 RES1   0.0000
   196 H117      1.7625    1.6023    8.2193   H         1 RES1   0.0000
   197 H118      0.3500    2.4526    8.7703   H         1 RES1   0.0000
   198 H119      0.2801    3.8889    6.8350   H         1 RES1   0.0000
   199 H120      1.5718    3.0016    6.0248   H         1 RES1   0.0000
   200 H121      1.8886    4.5037    8.6599   H         1 RES1   0.0000
   201 H122      2.4600    5.0537    7.0833   H         1 RES1   0.0000
   202 H123      3.1681    3.6237    7.8313   H         1 RES1   0.0000
   203 H124      1.7426   -0.9086    4.9556   H         1 RES1   0.0000
   204 H125      1.6699   -1.0690    6.7001   H         1 RES1   0.0000
   205 H126      3.6425   -0.0734    6.7044   H         1 RES1   0.0000
   206 H127      2.7599    1.4252    6.5682   H         1 RES1   0.0000
   207 H128      3.0806    1.4074    4.1214   H         1 RES1   0.0000
   208 H129      3.9536   -0.1454    4.2918   H         1 RES1   0.0000
   209 H130      5.6858    0.8752    5.6043   H         1 RES1   0.0000
   210 H131      4.9017    2.4495    5.5347   H         1 RES1   0.0000
   211 H132      5.6050    0.9876    2.9669   H         1 RES1   0.0000
   212 H133      6.8386    1.8713    3.8380   H         1 RES1   0.0000
   213 H134      4.2238    3.2133    3.0358   H         1 RES1   0.0000
   214 H135      5.6765    3.2261    2.0186   H         1 RES1   0.0000
   215 H136      5.7000    3.9625    3.6122   H         1 RES1   0.0000
   216 O7       -0.8319    2.1084   -0.8938   O.3       1 RES1   0.0000
   217 H137     -0.7640    2.5328   -1.7650   H         1 RES1   0.0000
   218 H138     -1.1331    2.8038   -0.2949   H         1 RES1   0.0000
   219 O8       -0.2240   -1.8504    1.7013   O.3       1 RES1   0.0000
   220 H139     -0.5114   -1.6326    2.5994   H         1 RES1   0.0000
   221 H140     -0.6005   -2.7337    1.5059   H         1 RES1   0.0000
@<TRIPOS>BOND
     1     1    19    1
     2     1    21    1
     3     1    24    1
     4     1   126    1
     5     1   128    1
     6     1   131    1
     7     1   216    1
     8     1   219    1
     9     2     3    1
    10     2    41    1
    11     2    42    1
    12     2    43    1
    13     3     4    1
    14     3    44    1
    15     3    45    1
    16     4     5    1
    17     4    46    1
    18     4    47    1
    19     5     6    1
    20     5    48    1
    21     5    49    1
    22     6     7    1
    23     6    50    1
    24     6    51    1
    25     7     8    1
    26     7    52    1
    27     7    53    1
    28     8     9    1
    29     8    13    1
    30     8    54    1
    31     9    10    1
    32     9    55    1
    33     9    56    1
    34    10    11    1
    35    10    57    1
    36    10    58    1
    37    11    12    1
    38    11    59    1
    39    11    60    1
    40    12    61    1
    41    12    62    1
    42    12    63    1
    43    13    14    1
    44    13    64    1
    45    13    65    1
    46    14    15    1
    47    14    66    1
    48    14    67    1
    49    15    16    1
    50    15    68    1
    51    15    69    1
    52    16    17    1
    53    16    18    1
    54    17    70    1
    55    17    71    1
    56    17    72    1
    57    18    19    2
    58    18    20    1
    59    20    21    1
    60    20    73    1
    61    20    74    1
    62    21    22    1
    63    22    23    1
    64    22    75    1
    65    22    76    1
    66    23    24    2
    67    23    25    1
    68    25    26    1
    69    25    27    1
    70    26    77    1
    71    26    78    1
    72    26    79    1
    73    27    28    1
    74    27    80    1
    75    27    81    1
    76    28    29    1
    77    28    82    1
    78    28    83    1
    79    29    30    1
    80    29    84    1
    81    29    85    1
    82    30    31    1
    83    30    35    1
    84    30    86    1
    85    31    32    1
    86    31    87    1
    87    31    88    1
    88    32    33    1
    89    32    89    1
    90    32    90    1
    91    33    34    1
    92    33    91    1
    93    33    92    1
    94    34    93    1
    95    34    94    1
    96    34    95    1
    97    35    36    1
    98    35    96    1
    99    35    97    1
   100    36    37    1
   101    36    98    1
   102    36    99    1
   103    37    38    1
   104    37   100    1
   105    37   101    1
   106    38    39    1
   107    38   102    1
   108    38   103    1
   109    39    40    1
   110    39   104    1
   111    39   105    1
   112    40   106    1
   113    40   107    1
   114    40   108    1
   115   109   110    1
   116   109   148    1
   117   109   149    1
   118   109   150    1
   119   110   111    1
   120   110   151    1
   121   110   152    1
   122   111   112    1
   123   111   153    1
   124   111   154    1
   125   112   113    1
   126   112   155    1
   127   112   156    1
   128   113   114    1
   129   113   157    1
   130   113   158    1
   131   114   115    1
   132   114   159    1
   133   114   160    1
   134   115   116    1
   135   115   120    1
   136   115   161    1
   137   116   117    1
   138   116   162    1
   139   116   163    1
   140   117   118    1
   141   117   164    1
   142   117   165    1
   143   118   119    1
   144   118   166    1
   145   118   167    1
   146   119   168    1
   147   119   169    1
   148   119   170    1
   149   120   121    1
   150   120   171    1
   151   120   172    1
   152   121   122    1
   153   121   173    1
   154   121   174    1
   155   122   123    1
   156   122   175    1
   157   122   176    1
   158   123   124    1
   159   123   125    1
   160   124   177    1
   161   124   178    1
   162   124   179    1
   163   125   126    2
   164   125   127    1
   165   127   128    1
   166   127   180    1
   167   127   181    1
   168   128   129    1
   169   129   130    1
   170   129   182    1
   171   129   183    1
   172   130   131    2
   173   130   132    1
   174   132   133    1
   175   132   134    1
   176   133   184    1
   177   133   185    1
   178   133   186    1
   179   134   135    1
   180   134   187    1
   181   134   188    1
   182   135   136    1
   183   135   189    1
   184   135   190    1
   185   136   137    1
   186   136   191    1
   187   136   192    1
   188   137   138    1
   189   137   142    1
   190   137   193    1
   191   138   139    1
   192   138   194    1
   193   138   195    1
   194   139   140    1
   195   139   196    1
   196   139   197    1
   197   140   141    1
   198   140   198    1
   199   140   199    1
   200   141   200    1
   201   141   201    1
   202   141   202    1
   203   142   143    1
   204   142   203    1
   205   142   204    1
   206   143   144    1
   207   143   205    1
   208   143   206    1
   209   144   145    1
   210   144   207    1
   211   144   208    1
   212   145   146    1
   213   145   209    1
   214   145   210    1
   215   146   147    1
   216   146   211    1
   217   146   212    1
   218   147   213    1
   219   147   214    1
   220   147   215    1
   221   216   217    1
   222   216   218    1
   223   219   220    1
   224   219   221    1
@<TRIPOS>SUBSTRUCTURE
     1 RES1      221 GROUP             0 ****  ****    0  
