@<TRIPOS>MOLECULE
ICIGOT_geomtry_0_nunpairedes_0_charge_2 Charge: 2 Unpaired_Electrons: 6 XTB_Unpaired_Electrons: 0 XTB_Charge: 2
   189   193     1     0     0
SMALL
NoCharges
****
Generated from Architector

@<TRIPOS>ATOM
     1 Tb1      -0.0896   -0.0047   -0.1780   Tb        1 RES1   0.0000
     2 C1        3.1457   -5.4901    3.1364   C.3       1 RES1   0.0000
     3 C2        2.1976   -6.6628    2.8790   C.3       1 RES1   0.0000
     4 C3        1.1200   -6.4177    1.8194   C.3       1 RES1   0.0000
     5 C4        0.1357   -5.2617    2.0533   C.3       1 RES1   0.0000
     6 C5       -0.4682   -5.2101    3.4566   C.3       1 RES1   0.0000
     7 C6       -1.6488   -4.2413    3.6097   C.3       1 RES1   0.0000
     8 C7       -1.2063   -2.7776    3.4576   C.3       1 RES1   0.0000
     9 C8       -2.3879   -1.8033    3.5547   C.3       1 RES1   0.0000
    10 N1       -1.9976   -0.4026    3.7770   N.am      1 RES1   0.0000
    11 C9       -2.2228    0.1474    5.0995   C.3       1 RES1   0.0000
    12 C10      -1.5461    0.2951    2.7337   C.2       1 RES1   0.0000
    13 O1       -1.4001   -0.2554    1.6276   O.2       1 RES1   0.0000
    14 C11      -1.1644    1.7716    2.9111   C.3       1 RES1   0.0000
    15 C12      -2.0310    2.7557    2.0700   C.3       1 RES1   0.0000
    16 C13      -2.7551    2.2363    0.8206   C.3       1 RES1   0.0000
    17 O2       -1.8778    2.1646   -0.3093   O.3       1 RES1   0.0000
    18 C14      -2.5065    2.6751   -1.5053   C.3       1 RES1   0.0000
    19 C15      -3.6546    1.7830   -2.0097   C.3       1 RES1   0.0000
    20 C16      -3.5300    1.2903   -3.4578   C.3       1 RES1   0.0000
    21 C17      -4.2230   -0.0685   -3.6245   C.3       1 RES1   0.0000
    22 C18      -5.7042   -0.0661   -3.2493   C.3       1 RES1   0.0000
    23 C19      -6.5642    0.8137   -4.1407   C.3       1 RES1   0.0000
    24 C20       0.3079    1.9212    2.4978   C.2       1 RES1   0.0000
    25 O3        0.6889    1.3791    1.4396   O.2       1 RES1   0.0000
    26 N2        1.1236    2.6350    3.2756   N.am      1 RES1   0.0000
    27 C21       0.6831    3.3535    4.4595   C.3       1 RES1   0.0000
    28 C22       2.5906    2.6019    3.1292   C.3       1 RES1   0.0000
    29 C23       3.1417    2.8374    1.7307   C.3       1 RES1   0.0000
    30 C24       2.7530    4.2260    1.2500   C.3       1 RES1   0.0000
    31 C25       3.4922    4.6303   -0.0165   C.3       1 RES1   0.0000
    32 C26       3.0551    6.0111   -0.5043   C.3       1 RES1   0.0000
    33 C27       1.5717    6.0726   -0.8918   C.3       1 RES1   0.0000
    34 C28       0.6461    6.6164    0.1987   C.3       1 RES1   0.0000
    35 C29      -0.7991    6.6116   -0.2834   C.3       1 RES1   0.0000
    36 H1        3.8705   -5.7631    3.9001   H         1 RES1   0.0000
    37 H2        3.6870   -5.1960    2.2374   H         1 RES1   0.0000
    38 H3        2.5989   -4.6218    3.4960   H         1 RES1   0.0000
    39 H4        2.7724   -7.5270    2.5303   H         1 RES1   0.0000
    40 H5        1.7151   -6.9496    3.8168   H         1 RES1   0.0000
    41 H6        1.6007   -6.2643    0.8500   H         1 RES1   0.0000
    42 H7        0.5513   -7.3494    1.7498   H         1 RES1   0.0000
    43 H8        0.6218   -4.3089    1.8525   H         1 RES1   0.0000
    44 H9       -0.6474   -5.3765    1.3034   H         1 RES1   0.0000
    45 H10      -0.8041   -6.2092    3.7275   H         1 RES1   0.0000
    46 H11       0.3057   -4.9140    4.1655   H         1 RES1   0.0000
    47 H12      -2.4410   -4.4697    2.8931   H         1 RES1   0.0000
    48 H13      -2.0708   -4.3727    4.6115   H         1 RES1   0.0000
    49 H14      -0.4891   -2.5812    4.2558   H         1 RES1   0.0000
    50 H15      -0.7037   -2.6371    2.4949   H         1 RES1   0.0000
    51 H16      -2.9565   -1.8503    2.6215   H         1 RES1   0.0000
    52 H17      -3.0342   -2.1004    4.3810   H         1 RES1   0.0000
    53 H18      -2.5624   -0.6515    5.7530   H         1 RES1   0.0000
    54 H19      -1.3071    0.5453    5.5332   H         1 RES1   0.0000
    55 H20      -2.9907    0.9210    5.0845   H         1 RES1   0.0000
    56 H21      -1.2941    2.0413    3.9526   H         1 RES1   0.0000
    57 H22      -2.8046    3.1568    2.7307   H         1 RES1   0.0000
    58 H23      -1.3918    3.5834    1.7429   H         1 RES1   0.0000
    59 H24      -3.2200    1.2573    0.9866   H         1 RES1   0.0000
    60 H25      -3.5486    2.9658    0.6168   H         1 RES1   0.0000
    61 H26      -2.8632    3.6920   -1.2980   H         1 RES1   0.0000
    62 H27      -1.7142    2.7321   -2.2557   H         1 RES1   0.0000
    63 H28      -4.6134    2.2970   -1.9071   H         1 RES1   0.0000
    64 H29      -3.6794    0.9028   -1.3662   H         1 RES1   0.0000
    65 H30      -3.9741    2.0127   -4.1413   H         1 RES1   0.0000
    66 H31      -2.4754    1.2033   -3.7355   H         1 RES1   0.0000
    67 H32      -4.1220   -0.4094   -4.6562   H         1 RES1   0.0000
    68 H33      -3.7213   -0.8017   -2.9877   H         1 RES1   0.0000
    69 H34      -6.0682   -1.0930   -3.3107   H         1 RES1   0.0000
    70 H35      -5.8302    0.2556   -2.2156   H         1 RES1   0.0000
    71 H36      -6.4937    0.5005   -5.1773   H         1 RES1   0.0000
    72 H37      -7.6021    0.7492   -3.8267   H         1 RES1   0.0000
    73 H38      -6.2550    1.8526   -4.0801   H         1 RES1   0.0000
    74 H39      -0.3478    3.6816    4.3883   H         1 RES1   0.0000
    75 H40       0.8109    2.7448    5.3568   H         1 RES1   0.0000
    76 H41       1.2974    4.2436    4.5791   H         1 RES1   0.0000
    77 H42       2.9905    3.3848    3.7746   H         1 RES1   0.0000
    78 H43       2.9612    1.6508    3.5159   H         1 RES1   0.0000
    79 H44       4.2277    2.7443    1.7833   H         1 RES1   0.0000
    80 H45       2.7825    2.0900    1.0199   H         1 RES1   0.0000
    81 H46       1.6818    4.2226    1.0602   H         1 RES1   0.0000
    82 H47       2.9676    4.9591    2.0315   H         1 RES1   0.0000
    83 H48       4.5673    4.6387    0.1810   H         1 RES1   0.0000
    84 H49       3.3080    3.8919   -0.8017   H         1 RES1   0.0000
    85 H50       3.2636    6.7470    0.2728   H         1 RES1   0.0000
    86 H51       3.6695    6.2677   -1.3661   H         1 RES1   0.0000
    87 H52       1.4552    6.7163   -1.7649   H         1 RES1   0.0000
    88 H53       1.2380    5.0697   -1.1758   H         1 RES1   0.0000
    89 H54       0.7275    6.0242    1.1127   H         1 RES1   0.0000
    90 H55       0.9415    7.6356    0.4527   H         1 RES1   0.0000
    91 H56      -1.0852    5.6211   -0.6347   H         1 RES1   0.0000
    92 H57      -1.4758    6.9095    0.5127   H         1 RES1   0.0000
    93 H58      -0.9143    7.3068   -1.1092   H         1 RES1   0.0000
    94 C30      -6.8266    1.9512    0.3680   C.3       1 RES1   0.0000
    95 C31      -7.2112    0.5686    0.8864   C.3       1 RES1   0.0000
    96 C32      -6.0804   -0.1280    1.6508   C.3       1 RES1   0.0000
    97 C33      -5.1238   -0.9324    0.7605   C.3       1 RES1   0.0000
    98 C34      -5.6821   -2.3033    0.3380   C.3       1 RES1   0.0000
    99 C35      -4.6411   -3.4283    0.4035   C.3       1 RES1   0.0000
   100 C36      -3.5729   -3.3150   -0.6993   C.3       1 RES1   0.0000
   101 C37      -2.2377   -3.8738   -0.2000   C.3       1 RES1   0.0000
   102 N3       -1.1112   -3.8231   -1.1328   N.am      1 RES1   0.0000
   103 C38      -1.2026   -4.6817   -2.2954   C.3       1 RES1   0.0000
   104 C39      -0.0893   -3.0026   -0.8921   C.2       1 RES1   0.0000
   105 O4       -0.1280   -2.1970    0.0679   O.2       1 RES1   0.0000
   106 C40       1.1784   -3.0418   -1.7588   C.3       1 RES1   0.0000
   107 C41       2.4997   -3.1986   -0.9365   C.3       1 RES1   0.0000
   108 C42       2.5799   -2.6932    0.5080   C.3       1 RES1   0.0000
   109 O5        2.3036   -1.3019    0.7136   O.3       1 RES1   0.0000
   110 C43       2.7740   -0.9036    1.9990   C.3       1 RES1   0.0000
   111 C44       1.8559   -1.3562    3.1424   C.3       1 RES1   0.0000
   112 C45       2.2099   -0.6905    4.4758   C.3       1 RES1   0.0000
   113 C46       1.4716   -1.2241    5.7093   C.3       1 RES1   0.0000
   114 C47       1.8882   -2.6111    6.1961   C.3       1 RES1   0.0000
   115 C48       3.2541   -2.6231    6.8714   C.3       1 RES1   0.0000
   116 C49       1.3064   -1.6809   -2.4695   C.2       1 RES1   0.0000
   117 O6        1.3224   -0.6824   -1.7236   O.2       1 RES1   0.0000
   118 N4        1.4805   -1.6139   -3.7808   N.am      1 RES1   0.0000
   119 C50       1.5971   -2.7788   -4.6352   C.3       1 RES1   0.0000
   120 C51       1.1940   -0.3677   -4.5113   C.3       1 RES1   0.0000
   121 C52       1.8981    0.8834   -4.0010   C.3       1 RES1   0.0000
   122 C53       3.4127    0.7226   -3.9984   C.3       1 RES1   0.0000
   123 C54       4.0738    1.9690   -3.4157   C.3       1 RES1   0.0000
   124 C55       5.5773    1.8151   -3.1706   C.3       1 RES1   0.0000
   125 C56       5.9582    1.2963   -1.7833   C.3       1 RES1   0.0000
   126 C57       5.6534   -0.1777   -1.5254   C.3       1 RES1   0.0000
   127 C58       6.3291   -0.6538   -0.2448   C.3       1 RES1   0.0000
   128 H59      -5.9254    1.9021   -0.2350   H         1 RES1   0.0000
   129 H60      -7.6283    2.3554   -0.2447   H         1 RES1   0.0000
   130 H61      -6.6568    2.6415    1.1936   H         1 RES1   0.0000
   131 H62      -8.0733    0.6819    1.5426   H         1 RES1   0.0000
   132 H63      -7.5196   -0.0625    0.0542   H         1 RES1   0.0000
   133 H64      -5.5196    0.6329    2.2004   H         1 RES1   0.0000
   134 H65      -6.5021   -0.8050    2.3946   H         1 RES1   0.0000
   135 H66      -4.8754   -0.3472   -0.1252   H         1 RES1   0.0000
   136 H67      -4.1882   -1.0824    1.3048   H         1 RES1   0.0000
   137 H68      -6.5131   -2.5726    0.9907   H         1 RES1   0.0000
   138 H69      -6.0780   -2.2476   -0.6754   H         1 RES1   0.0000
   139 H70      -4.1672   -3.4083    1.3897   H         1 RES1   0.0000
   140 H71      -5.1410   -4.3971    0.3192   H         1 RES1   0.0000
   141 H72      -3.9218   -3.8440   -1.5848   H         1 RES1   0.0000
   142 H73      -3.4365   -2.2674   -0.9524   H         1 RES1   0.0000
   143 H74      -1.9460   -3.3004    0.6786   H         1 RES1   0.0000
   144 H75      -2.3836   -4.9203    0.0816   H         1 RES1   0.0000
   145 H76      -2.1439   -5.2245   -2.2610   H         1 RES1   0.0000
   146 H77      -1.1972   -4.0898   -3.2101   H         1 RES1   0.0000
   147 H78      -0.3945   -5.4112   -2.3167   H         1 RES1   0.0000
   148 H79       1.1190   -3.8679   -2.4596   H         1 RES1   0.0000
   149 H80       2.7285   -4.2655   -0.8721   H         1 RES1   0.0000
   150 H81       3.2982   -2.7185   -1.5121   H         1 RES1   0.0000
   151 H82       1.9170   -3.3017    1.1369   H         1 RES1   0.0000
   152 H83       3.6206   -2.8726    0.8257   H         1 RES1   0.0000
   153 H84       3.7921   -1.2832    2.1553   H         1 RES1   0.0000
   154 H85       2.8049    0.1817    1.9646   H         1 RES1   0.0000
   155 H86       0.8317   -1.1033    2.8464   H         1 RES1   0.0000
   156 H87       1.9194   -2.4359    3.2554   H         1 RES1   0.0000
   157 H88       3.2858   -0.7767    4.6297   H         1 RES1   0.0000
   158 H89       1.9641    0.3691    4.4035   H         1 RES1   0.0000
   159 H90       1.6482   -0.5239    6.5285   H         1 RES1   0.0000
   160 H91       0.4013   -1.2118    5.4976   H         1 RES1   0.0000
   161 H92       1.1417   -2.9456    6.9183   H         1 RES1   0.0000
   162 H93       1.8802   -3.3218    5.3688   H         1 RES1   0.0000
   163 H94       3.2802   -1.9134    7.6967   H         1 RES1   0.0000
   164 H95       3.4561   -3.6140    7.2706   H         1 RES1   0.0000
   165 H96       4.0442   -2.3676    6.1695   H         1 RES1   0.0000
   166 H97       2.1503   -3.5829   -4.1576   H         1 RES1   0.0000
   167 H98       0.6122   -3.1383   -4.9398   H         1 RES1   0.0000
   168 H99       2.1447   -2.4983   -5.5331   H         1 RES1   0.0000
   169 H100      1.4817   -0.5316   -5.5482   H         1 RES1   0.0000
   170 H101      0.1112   -0.2194   -4.4778   H         1 RES1   0.0000
   171 H102      1.6086    1.7088   -4.6545   H         1 RES1   0.0000
   172 H103      1.5576    1.1305   -2.9935   H         1 RES1   0.0000
   173 H104      3.6687   -0.1498   -3.3987   H         1 RES1   0.0000
   174 H105      3.7646    0.5535   -5.0187   H         1 RES1   0.0000
   175 H106      3.9026    2.7952   -4.1107   H         1 RES1   0.0000
   176 H107      3.5755    2.2264   -2.4760   H         1 RES1   0.0000
   177 H108      6.0020    1.1625   -3.9345   H         1 RES1   0.0000
   178 H109      6.0409    2.7940   -3.2926   H         1 RES1   0.0000
   179 H110      7.0328    1.4448   -1.6675   H         1 RES1   0.0000
   180 H111      5.4595    1.9039   -1.0257   H         1 RES1   0.0000
   181 H112      4.5733   -0.3281   -1.4415   H         1 RES1   0.0000
   182 H113      6.0200   -0.7715   -2.3663   H         1 RES1   0.0000
   183 H114      5.9320   -0.1314    0.6225   H         1 RES1   0.0000
   184 H115      6.1867   -1.7218   -0.1040   H         1 RES1   0.0000
   185 H116      7.3971   -0.4623   -0.2925   H         1 RES1   0.0000
   186 N5       -1.2549   -0.5048   -2.0831   N.3       1 RES1   0.0000
   187 O7       -1.1697   -1.3869   -2.8954   O.2       1 RES1   0.0000
   188 O8       -0.6617    0.5561   -2.2250   O.co2     1 RES1   0.0000
   189 O9       -1.9242   -0.6589   -1.0673   O.co2     1 RES1   0.0000
@<TRIPOS>BOND
     1     1    13    1
     2     1    17    1
     3     1    25    1
     4     1   105    1
     5     1   109    1
     6     1   117    1
     7     1   188    1
     8     1   189    1
     9     2     3    1
    10     2    36    1
    11     2    37    1
    12     2    38    1
    13     3     4    1
    14     3    39    1
    15     3    40    1
    16     4     5    1
    17     4    41    1
    18     4    42    1
    19     5     6    1
    20     5    43    1
    21     5    44    1
    22     6     7    1
    23     6    45    1
    24     6    46    1
    25     7     8    1
    26     7    47    1
    27     7    48    1
    28     8     9    1
    29     8    49    1
    30     8    50    1
    31     9    10    1
    32     9    51    1
    33     9    52    1
    34    10    11    1
    35    10    12    1
    36    11    53    1
    37    11    54    1
    38    11    55    1
    39    12    13    2
    40    12    14    1
    41    14    15    1
    42    14    24    1
    43    14    56    1
    44    15    16    1
    45    15    57    1
    46    15    58    1
    47    16    17    1
    48    16    59    1
    49    16    60    1
    50    17    18    1
    51    18    19    1
    52    18    61    1
    53    18    62    1
    54    19    20    1
    55    19    63    1
    56    19    64    1
    57    20    21    1
    58    20    65    1
    59    20    66    1
    60    21    22    1
    61    21    67    1
    62    21    68    1
    63    22    23    1
    64    22    69    1
    65    22    70    1
    66    23    71    1
    67    23    72    1
    68    23    73    1
    69    24    25    2
    70    24    26    1
    71    26    27    1
    72    26    28    1
    73    27    74    1
    74    27    75    1
    75    27    76    1
    76    28    29    1
    77    28    77    1
    78    28    78    1
    79    29    30    1
    80    29    79    1
    81    29    80    1
    82    30    31    1
    83    30    81    1
    84    30    82    1
    85    31    32    1
    86    31    83    1
    87    31    84    1
    88    32    33    1
    89    32    85    1
    90    32    86    1
    91    33    34    1
    92    33    87    1
    93    33    88    1
    94    34    35    1
    95    34    89    1
    96    34    90    1
    97    35    91    1
    98    35    92    1
    99    35    93    1
   100    94    95    1
   101    94   128    1
   102    94   129    1
   103    94   130    1
   104    95    96    1
   105    95   131    1
   106    95   132    1
   107    96    97    1
   108    96   133    1
   109    96   134    1
   110    97    98    1
   111    97   135    1
   112    97   136    1
   113    98    99    1
   114    98   137    1
   115    98   138    1
   116    99   100    1
   117    99   139    1
   118    99   140    1
   119   100   101    1
   120   100   141    1
   121   100   142    1
   122   101   102    1
   123   101   143    1
   124   101   144    1
   125   102   103    1
   126   102   104    1
   127   103   145    1
   128   103   146    1
   129   103   147    1
   130   104   105    2
   131   104   106    1
   132   106   107    1
   133   106   116    1
   134   106   148    1
   135   107   108    1
   136   107   149    1
   137   107   150    1
   138   108   109    1
   139   108   151    1
   140   108   152    1
   141   109   110    1
   142   110   111    1
   143   110   153    1
   144   110   154    1
   145   111   112    1
   146   111   155    1
   147   111   156    1
   148   112   113    1
   149   112   157    1
   150   112   158    1
   151   113   114    1
   152   113   159    1
   153   113   160    1
   154   114   115    1
   155   114   161    1
   156   114   162    1
   157   115   163    1
   158   115   164    1
   159   115   165    1
   160   116   117    2
   161   116   118    1
   162   118   119    1
   163   118   120    1
   164   119   166    1
   165   119   167    1
   166   119   168    1
   167   120   121    1
   168   120   169    1
   169   120   170    1
   170   121   122    1
   171   121   171    1
   172   121   172    1
   173   122   123    1
   174   122   173    1
   175   122   174    1
   176   123   124    1
   177   123   175    1
   178   123   176    1
   179   124   125    1
   180   124   177    1
   181   124   178    1
   182   125   126    1
   183   125   179    1
   184   125   180    1
   185   126   127    1
   186   126   181    1
   187   126   182    1
   188   127   183    1
   189   127   184    1
   190   127   185    1
   191   186   187    2
   192   186   188    1
   193   186   189    1
@<TRIPOS>SUBSTRUCTURE
     1 RES1      189 GROUP             0 ****  ****    0  
