@<TRIPOS>MOLECULE
ICIGOT_geomtry_0_nunpairedes_0_charge_3 Charge: 3 Unpaired_Electrons: 6 XTB_Unpaired_Electrons: 0 XTB_Charge: 3
   241   248     1     0     0
SMALL
NoCharges
****
Generated from Architector

@<TRIPOS>ATOM
     1 Tb1      -0.0540    0.0298    0.1552   Tb        1 RES1   0.0000
     2 C1       -4.2418   -4.9386   -2.4747   C.3       1 RES1   0.0000
     3 C2       -5.3627   -4.0287   -2.9630   C.3       1 RES1   0.0000
     4 C3       -5.8430   -3.0818   -1.8625   C.3       1 RES1   0.0000
     5 C4       -7.1783   -2.3956   -2.1708   C.3       1 RES1   0.0000
     6 C5       -7.2107   -1.5697   -3.4605   C.3       1 RES1   0.0000
     7 C6       -6.4649   -0.2361   -3.3658   C.3       1 RES1   0.0000
     8 C7       -6.1977    0.3878   -4.7419   C.3       1 RES1   0.0000
     9 C8       -4.9470   -0.2401   -5.3538   C.3       1 RES1   0.0000
    10 C9       -4.5517    0.1811   -6.7731   C.3       1 RES1   0.0000
    11 C10      -5.3260   -0.5696   -7.8411   C.3       1 RES1   0.0000
    12 C11      -4.6706    1.6791   -7.0215   C.3       1 RES1   0.0000
    13 S1       -2.7105   -0.1449   -6.9195   S.3       1 RES1   0.0000
    14 C12      -2.5322   -1.9675   -6.9930   C.3       1 RES1   0.0000
    15 C13      -1.6624   -2.5842   -5.8954   C.3       1 RES1   0.0000
    16 C14      -2.1550   -2.2480   -4.4761   C.3       1 RES1   0.0000
    17 N1       -1.1958   -1.3050   -3.9147   N.am      1 RES1   0.0000
    18 C15      -1.2169   -0.8504   -2.6815   C.2       1 RES1   0.0000
    19 O1       -0.2457   -0.2505   -2.1456   O.2       1 RES1   0.0000
    20 C16      -2.5041   -1.0291   -1.8566   C.3       1 RES1   0.0000
    21 O2       -2.2645   -0.4387   -0.5885   O.3       1 RES1   0.0000
    22 C17      -3.3511    0.1643    0.1162   C.3       1 RES1   0.0000
    23 C18      -2.7571    1.3898    0.8410   C.2       1 RES1   0.0000
    24 O3       -1.5237    1.5997    0.7167   O.2       1 RES1   0.0000
    25 N2       -3.5394    2.2241    1.4948   N.am      1 RES1   0.0000
    26 C19      -3.0953    3.5700    1.8623   C.3       1 RES1   0.0000
    27 C20      -4.3811    4.2503    2.3537   C.3       1 RES1   0.0000
    28 C21      -4.1588    5.5002    3.1949   C.3       1 RES1   0.0000
    29 C22      -5.0991    3.0741    3.0475   C.3       1 RES1   0.0000
    30 C23      -4.4864    2.8139    4.4249   C.3       1 RES1   0.0000
    31 S2       -4.6304    1.0834    4.9937   S.3       1 RES1   0.0000
    32 C24      -3.4486    1.0728    6.4403   C.3       1 RES1   0.0000
    33 C25      -3.7580   -0.2262    7.1748   C.3       1 RES1   0.0000
    34 C26      -3.7320    2.2583    7.3531   C.3       1 RES1   0.0000
    35 C27      -1.9994    1.1143    5.9439   C.3       1 RES1   0.0000
    36 C28      -1.6257   -0.0156    4.9846   C.3       1 RES1   0.0000
    37 C29      -0.3041    0.2524    4.2598   C.3       1 RES1   0.0000
    38 C30       0.8472    0.4495    5.2477   C.3       1 RES1   0.0000
    39 C31       2.2345    0.2618    4.6335   C.3       1 RES1   0.0000
    40 C32       2.5787    1.1128    3.4084   C.3       1 RES1   0.0000
    41 C33       3.0442    2.5300    3.7469   C.3       1 RES1   0.0000
    42 C34       1.9130    3.4798    4.1203   C.3       1 RES1   0.0000
    43 C35      -4.8719    1.9552    2.0171   C.3       1 RES1   0.0000
    44 C36      -0.1686   -0.9744   -4.8967   C.3       1 RES1   0.0000
    45 C37      -0.1805   -2.1458   -5.8791   C.3       1 RES1   0.0000
    46 C38       0.4057   -1.7980   -7.2395   C.3       1 RES1   0.0000
    47 H1       -3.8927   -5.5824   -3.2780   H         1 RES1   0.0000
    48 H2       -4.5981   -5.5724   -1.6663   H         1 RES1   0.0000
    49 H3       -3.3957   -4.3524   -2.1086   H         1 RES1   0.0000
    50 H4       -6.1967   -4.6492   -3.2891   H         1 RES1   0.0000
    51 H5       -5.0137   -3.4593   -3.8275   H         1 RES1   0.0000
    52 H6       -5.0741   -2.3276   -1.6643   H         1 RES1   0.0000
    53 H7       -5.9714   -3.6592   -0.9437   H         1 RES1   0.0000
    54 H8       -7.4375   -1.7474   -1.3294   H         1 RES1   0.0000
    55 H9       -7.9501   -3.1638   -2.2419   H         1 RES1   0.0000
    56 H10      -8.2527   -1.3608   -3.7066   H         1 RES1   0.0000
    57 H11      -6.8077   -2.1660   -4.2790   H         1 RES1   0.0000
    58 H12      -5.5056   -0.3880   -2.8561   H         1 RES1   0.0000
    59 H13      -7.0487    0.4544   -2.7536   H         1 RES1   0.0000
    60 H14      -6.0537    1.4621   -4.6269   H         1 RES1   0.0000
    61 H15      -7.0635    0.2286   -5.3820   H         1 RES1   0.0000
    62 H16      -5.0797   -1.3257   -5.3469   H         1 RES1   0.0000
    63 H17      -4.1120    0.0133   -4.6945   H         1 RES1   0.0000
    64 H18      -6.3775   -0.2955   -7.7791   H         1 RES1   0.0000
    65 H19      -5.2551   -1.6503   -7.7341   H         1 RES1   0.0000
    66 H20      -4.9647   -0.3024   -8.8309   H         1 RES1   0.0000
    67 H21      -5.7056    1.9939   -6.9223   H         1 RES1   0.0000
    68 H22      -4.3392    1.9135   -8.0300   H         1 RES1   0.0000
    69 H23      -4.0545    2.2430   -6.3281   H         1 RES1   0.0000
    70 H24      -2.1225   -2.2068   -7.9729   H         1 RES1   0.0000
    71 H25      -3.5286   -2.3974   -6.9330   H         1 RES1   0.0000
    72 H26      -1.7138   -3.6650   -6.0578   H         1 RES1   0.0000
    73 H27      -2.1802   -3.1466   -3.8551   H         1 RES1   0.0000
    74 H28      -3.1567   -1.8232   -4.4968   H         1 RES1   0.0000
    75 H29      -2.7647   -2.0878   -1.7433   H         1 RES1   0.0000
    76 H30      -3.3172   -0.5279   -2.3916   H         1 RES1   0.0000
    77 H31      -3.7886   -0.5471    0.8249   H         1 RES1   0.0000
    78 H32      -4.1286    0.5106   -0.5726   H         1 RES1   0.0000
    79 H33      -2.6504    4.0487    0.9898   H         1 RES1   0.0000
    80 H34      -2.3371    3.5369    2.6489   H         1 RES1   0.0000
    81 H35      -4.9780    4.5439    1.4847   H         1 RES1   0.0000
    82 H36      -3.5287    5.3216    4.0614   H         1 RES1   0.0000
    83 H37      -5.1152    5.8824    3.5424   H         1 RES1   0.0000
    84 H38      -3.6927    6.2739    2.5902   H         1 RES1   0.0000
    85 H39      -6.1670    3.2580    3.1727   H         1 RES1   0.0000
    86 H40      -4.9744    3.4520    5.1603   H         1 RES1   0.0000
    87 H41      -3.4214    3.0301    4.4147   H         1 RES1   0.0000
    88 H42      -4.7563   -0.1852    7.6016   H         1 RES1   0.0000
    89 H43      -3.0460   -0.3778    7.9825   H         1 RES1   0.0000
    90 H44      -3.7199   -1.0777    6.5011   H         1 RES1   0.0000
    91 H45      -4.7863    2.2953    7.6146   H         1 RES1   0.0000
    92 H46      -3.4542    3.2064    6.8983   H         1 RES1   0.0000
    93 H47      -3.1627    2.1502    8.2737   H         1 RES1   0.0000
    94 H48      -1.3548    1.0746    6.8223   H         1 RES1   0.0000
    95 H49      -1.8104    2.0720    5.4534   H         1 RES1   0.0000
    96 H50      -2.4415   -0.1269    4.2610   H         1 RES1   0.0000
    97 H51      -1.5409   -0.9487    5.5427   H         1 RES1   0.0000
    98 H52      -0.4096    1.1311    3.6102   H         1 RES1   0.0000
    99 H53      -0.0489   -0.6029    3.6286   H         1 RES1   0.0000
   100 H54       0.7472   -0.2919    6.0444   H         1 RES1   0.0000
   101 H55       0.7722    1.4278    5.7160   H         1 RES1   0.0000
   102 H56       2.3491   -0.7910    4.3669   H         1 RES1   0.0000
   103 H57       2.9668    0.4710    5.4144   H         1 RES1   0.0000
   104 H58       1.7262    1.1556    2.7147   H         1 RES1   0.0000
   105 H59       3.4002    0.6113    2.8859   H         1 RES1   0.0000
   106 H60       3.5809    2.9326    2.8837   H         1 RES1   0.0000
   107 H61       3.7569    2.4840    4.5717   H         1 RES1   0.0000
   108 H62       1.1087    3.4311    3.3859   H         1 RES1   0.0000
   109 H63       2.2798    4.5019    4.1725   H         1 RES1   0.0000
   110 H64       1.5063    3.2335    5.0954   H         1 RES1   0.0000
   111 H65      -5.6299    2.0158    1.2307   H         1 RES1   0.0000
   112 H66      -4.9147    0.9657    2.4747   H         1 RES1   0.0000
   113 H67       0.7899   -0.8024   -4.4077   H         1 RES1   0.0000
   114 H68      -0.4787   -0.0670   -5.4250   H         1 RES1   0.0000
   115 H69       0.4014   -2.9721   -5.4597   H         1 RES1   0.0000
   116 H70      -0.1192   -0.9635   -7.6957   H         1 RES1   0.0000
   117 H71       0.3432   -2.6576   -7.9018   H         1 RES1   0.0000
   118 H72       1.4541   -1.5303   -7.1377   H         1 RES1   0.0000
   119 C39       4.9180   -4.7710   -1.3159   C.3       1 RES1   0.0000
   120 C40       6.0992   -4.1576   -0.5716   C.3       1 RES1   0.0000
   121 C41       6.3496   -2.7066   -0.9837   C.3       1 RES1   0.0000
   122 C42       7.6502   -2.1221   -0.4231   C.3       1 RES1   0.0000
   123 C43       7.7305   -2.0392    1.1050   C.3       1 RES1   0.0000
   124 C44       6.8924   -0.9133    1.7173   C.3       1 RES1   0.0000
   125 C45       6.7630   -1.0424    3.2402   C.3       1 RES1   0.0000
   126 C46       5.6712   -2.0532    3.5892   C.3       1 RES1   0.0000
   127 C47       5.5595   -2.4802    5.0546   C.3       1 RES1   0.0000
   128 C48       6.6212   -3.4849    5.4656   C.3       1 RES1   0.0000
   129 C49       5.5719   -1.2966    6.0128   C.3       1 RES1   0.0000
   130 S3        3.8526   -3.2219    5.2555   S.3       1 RES1   0.0000
   131 C50       3.8850   -4.8381    4.3835   C.3       1 RES1   0.0000
   132 C51       2.9115   -4.9940    3.2130   C.3       1 RES1   0.0000
   133 C52       3.1547   -3.9878    2.0755   C.3       1 RES1   0.0000
   134 N3        2.1483   -2.9555    2.2473   N.am      1 RES1   0.0000
   135 C53       1.9819   -1.8879    1.4974   C.2       1 RES1   0.0000
   136 O4        1.0013   -1.1195    1.6565   O.2       1 RES1   0.0000
   137 C54       2.9823   -1.5548    0.3958   C.3       1 RES1   0.0000
   138 O5        2.3968   -0.6122   -0.5022   O.3       1 RES1   0.0000
   139 C55       3.1991    0.5216   -0.8463   C.3       1 RES1   0.0000
   140 C56       2.5239    1.7954   -0.3167   C.2       1 RES1   0.0000
   141 O6        1.4090    1.6786    0.2550   O.2       1 RES1   0.0000
   142 N4        3.1383    2.9486   -0.4376   N.am      1 RES1   0.0000
   143 C57       2.6360    4.1703    0.1905   C.3       1 RES1   0.0000
   144 C58       3.7583    5.1899   -0.0398   C.3       1 RES1   0.0000
   145 C59       3.3153    6.6429    0.0600   C.3       1 RES1   0.0000
   146 C60       4.3104    4.7444   -1.4102   C.3       1 RES1   0.0000
   147 C61       3.4094    5.2064   -2.5510   C.3       1 RES1   0.0000
   148 S4        3.8404    4.3791   -4.1259   S.3       1 RES1   0.0000
   149 C62       2.4977    5.0005   -5.2602   C.3       1 RES1   0.0000
   150 C63       2.7967    4.3402   -6.6013   C.3       1 RES1   0.0000
   151 C64       2.6099    6.5143   -5.3816   C.3       1 RES1   0.0000
   152 C65       1.1141    4.6027   -4.7386   C.3       1 RES1   0.0000
   153 C66       0.9562    3.1120   -4.4441   C.3       1 RES1   0.0000
   154 C67      -0.2826    2.8195   -3.6021   C.3       1 RES1   0.0000
   155 C68      -1.5597    3.1934   -4.3531   C.3       1 RES1   0.0000
   156 C69      -2.8102    2.4958   -3.8270   C.3       1 RES1   0.0000
   157 C70      -3.1287    2.6329   -2.3386   C.3       1 RES1   0.0000
   158 C71      -3.7418    3.9716   -1.9232   C.3       1 RES1   0.0000
   159 C72      -2.7487    5.1206   -1.8126   C.3       1 RES1   0.0000
   160 C73       4.3188    3.2178   -1.2454   C.3       1 RES1   0.0000
   161 C74       1.2420   -3.2791    3.3405   C.3       1 RES1   0.0000
   162 C75       1.4206   -4.7802    3.5492   C.3       1 RES1   0.0000
   163 C76       0.9832   -5.2413    4.9302   C.3       1 RES1   0.0000
   164 H73       4.7569   -5.7976   -0.9956   H         1 RES1   0.0000
   165 H74       5.1091   -4.7780   -2.3861   H         1 RES1   0.0000
   166 H75       4.0001   -4.2047   -1.1371   H         1 RES1   0.0000
   167 H76       6.9903   -4.7457   -0.7913   H         1 RES1   0.0000
   168 H77       5.9189   -4.2195    0.5044   H         1 RES1   0.0000
   169 H78       5.5023   -2.0839   -0.6813   H         1 RES1   0.0000
   170 H79       6.4051   -2.6621   -2.0737   H         1 RES1   0.0000
   171 H80       7.7885   -1.1210   -0.8393   H         1 RES1   0.0000
   172 H81       8.4798   -2.7380   -0.7736   H         1 RES1   0.0000
   173 H82       8.7726   -1.8726    1.3805   H         1 RES1   0.0000
   174 H83       7.4426   -3.0000    1.5336   H         1 RES1   0.0000
   175 H84       5.8875   -0.9179    1.2769   H         1 RES1   0.0000
   176 H85       7.3508    0.0459    1.4673   H         1 RES1   0.0000
   177 H86       6.5190   -0.0705    3.6701   H         1 RES1   0.0000
   178 H87       7.7206   -1.3586    3.6495   H         1 RES1   0.0000
   179 H88       5.8521   -2.9526    2.9951   H         1 RES1   0.0000
   180 H89       4.7071   -1.6239    3.2930   H         1 RES1   0.0000
   181 H90       7.6022   -3.0174    5.4164   H         1 RES1   0.0000
   182 H91       6.6377   -4.3650    4.8255   H         1 RES1   0.0000
   183 H92       6.4553   -3.8145    6.4885   H         1 RES1   0.0000
   184 H93       6.5595   -0.8432    6.0218   H         1 RES1   0.0000
   185 H94       5.3398   -1.6270    7.0221   H         1 RES1   0.0000
   186 H95       4.8400   -0.5489    5.7215   H         1 RES1   0.0000
   187 H96       3.6741   -5.5981    5.1347   H         1 RES1   0.0000
   188 H97       4.8957   -4.9979    4.0178   H         1 RES1   0.0000
   189 H98       3.0547   -6.0122    2.8413   H         1 RES1   0.0000
   190 H99       3.0257   -4.4709    1.1022   H         1 RES1   0.0000
   191 H100      4.1581   -3.5679    2.1155   H         1 RES1   0.0000
   192 H101      3.2652   -2.4544   -0.1610   H         1 RES1   0.0000
   193 H102      3.8821   -1.1477    0.8685   H         1 RES1   0.0000
   194 H103      3.2801    0.5683   -1.9392   H         1 RES1   0.0000
   195 H104      4.2066    0.4385   -0.4267   H         1 RES1   0.0000
   196 H105      2.4210    3.9709    1.2404   H         1 RES1   0.0000
   197 H106      1.7055    4.4881   -0.2870   H         1 RES1   0.0000
   198 H107      4.5404    5.0265    0.7080   H         1 RES1   0.0000
   199 H108      2.4919    6.8720   -0.6107   H         1 RES1   0.0000
   200 H109      4.1489    7.2943   -0.1873   H         1 RES1   0.0000
   201 H110      3.0028    6.8720    1.0762   H         1 RES1   0.0000
   202 H111      5.3190    5.1197   -1.5885   H         1 RES1   0.0000
   203 H112      3.5194    6.2796   -2.6954   H         1 RES1   0.0000
   204 H113      2.3702    4.9651   -2.3383   H         1 RES1   0.0000
   205 H114      3.7485    4.6904   -6.9912   H         1 RES1   0.0000
   206 H115      2.0186    4.5868   -7.3201   H         1 RES1   0.0000
   207 H116      2.8539    3.2600   -6.4988   H         1 RES1   0.0000
   208 H117      3.6134    6.7967   -5.6893   H         1 RES1   0.0000
   209 H118      2.3851    7.0146   -4.4417   H         1 RES1   0.0000
   210 H119      1.9087    6.8777   -6.1301   H         1 RES1   0.0000
   211 H120      0.3857    4.9055   -5.4917   H         1 RES1   0.0000
   212 H121      0.8869    5.1779   -3.8378   H         1 RES1   0.0000
   213 H122      1.8465    2.7518   -3.9229   H         1 RES1   0.0000
   214 H123      0.8799    2.5615   -5.3821   H         1 RES1   0.0000
   215 H124     -0.2248    3.3738   -2.6606   H         1 RES1   0.0000
   216 H125     -0.3000    1.7534   -3.3555   H         1 RES1   0.0000
   217 H126     -1.4472    2.8988   -5.4000   H         1 RES1   0.0000
   218 H127     -1.6932    4.2726   -4.3394   H         1 RES1   0.0000
   219 H128     -2.6989    1.4312   -4.0566   H         1 RES1   0.0000
   220 H129     -3.6708    2.8663   -4.3855   H         1 RES1   0.0000
   221 H130     -2.2368    2.4192   -1.7373   H         1 RES1   0.0000
   222 H131     -3.8793    1.8675   -2.1190   H         1 RES1   0.0000
   223 H132     -4.2302    3.8327   -0.9542   H         1 RES1   0.0000
   224 H133     -4.5202    4.2406   -2.6384   H         1 RES1   0.0000
   225 H134     -1.8781    4.8281   -1.2258   H         1 RES1   0.0000
   226 H135     -3.2202    5.9761   -1.3350   H         1 RES1   0.0000
   227 H136     -2.4115    5.4393   -2.7931   H         1 RES1   0.0000
   228 H137      5.2278    2.9006   -0.7264   H         1 RES1   0.0000
   229 H138      4.2642    2.7152   -2.2124   H         1 RES1   0.0000
   230 H139      0.2269   -2.9682    3.0913   H         1 RES1   0.0000
   231 H140      1.5741   -2.7597    4.2425   H         1 RES1   0.0000
   232 H141      0.8317   -5.3204    2.8014   H         1 RES1   0.0000
   233 H142      1.5150   -4.7022    5.7086   H         1 RES1   0.0000
   234 H143      1.1734   -6.3042    5.0455   H         1 RES1   0.0000
   235 H144     -0.0830   -5.0721    5.0603   H         1 RES1   0.0000
   236 O7       -1.6632   -1.4649    1.7341   O.3       1 RES1   0.0000
   237 H145     -1.7218   -2.4284    1.7476   H         1 RES1   0.0000
   238 H146     -1.7872   -1.1760    2.6552   H         1 RES1   0.0000
   239 O8        0.1460   -2.5438   -0.7136   O.3       1 RES1   0.0000
   240 H147      0.5663   -2.5532   -1.5853   H         1 RES1   0.0000
   241 H148      0.1284   -3.4718   -0.4308   H         1 RES1   0.0000
@<TRIPOS>BOND
     1     1    19    1
     2     1    21    1
     3     1    24    1
     4     1   136    1
     5     1   138    1
     6     1   141    1
     7     1   236    1
     8     1   239    1
     9     2     3    1
    10     2    47    1
    11     2    48    1
    12     2    49    1
    13     3     4    1
    14     3    50    1
    15     3    51    1
    16     4     5    1
    17     4    52    1
    18     4    53    1
    19     5     6    1
    20     5    54    1
    21     5    55    1
    22     6     7    1
    23     6    56    1
    24     6    57    1
    25     7     8    1
    26     7    58    1
    27     7    59    1
    28     8     9    1
    29     8    60    1
    30     8    61    1
    31     9    10    1
    32     9    62    1
    33     9    63    1
    34    10    11    1
    35    10    12    1
    36    10    13    1
    37    11    64    1
    38    11    65    1
    39    11    66    1
    40    12    67    1
    41    12    68    1
    42    12    69    1
    43    13    14    1
    44    14    15    1
    45    14    70    1
    46    14    71    1
    47    15    16    1
    48    15    45    1
    49    15    72    1
    50    16    17    1
    51    16    73    1
    52    16    74    1
    53    17    18    1
    54    17    44    1
    55    18    19    2
    56    18    20    1
    57    20    21    1
    58    20    75    1
    59    20    76    1
    60    21    22    1
    61    22    23    1
    62    22    77    1
    63    22    78    1
    64    23    24    2
    65    23    25    1
    66    25    26    1
    67    25    43    1
    68    26    27    1
    69    26    79    1
    70    26    80    1
    71    27    28    1
    72    27    29    1
    73    27    81    1
    74    28    82    1
    75    28    83    1
    76    28    84    1
    77    29    30    1
    78    29    43    1
    79    29    85    1
    80    30    31    1
    81    30    86    1
    82    30    87    1
    83    31    32    1
    84    32    33    1
    85    32    34    1
    86    32    35    1
    87    33    88    1
    88    33    89    1
    89    33    90    1
    90    34    91    1
    91    34    92    1
    92    34    93    1
    93    35    36    1
    94    35    94    1
    95    35    95    1
    96    36    37    1
    97    36    96    1
    98    36    97    1
    99    37    38    1
   100    37    98    1
   101    37    99    1
   102    38    39    1
   103    38   100    1
   104    38   101    1
   105    39    40    1
   106    39   102    1
   107    39   103    1
   108    40    41    1
   109    40   104    1
   110    40   105    1
   111    41    42    1
   112    41   106    1
   113    41   107    1
   114    42   108    1
   115    42   109    1
   116    42   110    1
   117    43   111    1
   118    43   112    1
   119    44    45    1
   120    44   113    1
   121    44   114    1
   122    45    46    1
   123    45   115    1
   124    46   116    1
   125    46   117    1
   126    46   118    1
   127   119   120    1
   128   119   164    1
   129   119   165    1
   130   119   166    1
   131   120   121    1
   132   120   167    1
   133   120   168    1
   134   121   122    1
   135   121   169    1
   136   121   170    1
   137   122   123    1
   138   122   171    1
   139   122   172    1
   140   123   124    1
   141   123   173    1
   142   123   174    1
   143   124   125    1
   144   124   175    1
   145   124   176    1
   146   125   126    1
   147   125   177    1
   148   125   178    1
   149   126   127    1
   150   126   179    1
   151   126   180    1
   152   127   128    1
   153   127   129    1
   154   127   130    1
   155   128   181    1
   156   128   182    1
   157   128   183    1
   158   129   184    1
   159   129   185    1
   160   129   186    1
   161   130   131    1
   162   131   132    1
   163   131   187    1
   164   131   188    1
   165   132   133    1
   166   132   162    1
   167   132   189    1
   168   133   134    1
   169   133   190    1
   170   133   191    1
   171   134   135    1
   172   134   161    1
   173   135   136    2
   174   135   137    1
   175   137   138    1
   176   137   192    1
   177   137   193    1
   178   138   139    1
   179   139   140    1
   180   139   194    1
   181   139   195    1
   182   140   141    2
   183   140   142    1
   184   142   143    1
   185   142   160    1
   186   143   144    1
   187   143   196    1
   188   143   197    1
   189   144   145    1
   190   144   146    1
   191   144   198    1
   192   145   199    1
   193   145   200    1
   194   145   201    1
   195   146   147    1
   196   146   160    1
   197   146   202    1
   198   147   148    1
   199   147   203    1
   200   147   204    1
   201   148   149    1
   202   149   150    1
   203   149   151    1
   204   149   152    1
   205   150   205    1
   206   150   206    1
   207   150   207    1
   208   151   208    1
   209   151   209    1
   210   151   210    1
   211   152   153    1
   212   152   211    1
   213   152   212    1
   214   153   154    1
   215   153   213    1
   216   153   214    1
   217   154   155    1
   218   154   215    1
   219   154   216    1
   220   155   156    1
   221   155   217    1
   222   155   218    1
   223   156   157    1
   224   156   219    1
   225   156   220    1
   226   157   158    1
   227   157   221    1
   228   157   222    1
   229   158   159    1
   230   158   223    1
   231   158   224    1
   232   159   225    1
   233   159   226    1
   234   159   227    1
   235   160   228    1
   236   160   229    1
   237   161   162    1
   238   161   230    1
   239   161   231    1
   240   162   163    1
   241   162   232    1
   242   163   233    1
   243   163   234    1
   244   163   235    1
   245   236   237    1
   246   236   238    1
   247   239   240    1
   248   239   241    1
@<TRIPOS>SUBSTRUCTURE
     1 RES1      241 GROUP             0 ****  ****    0  
