@<TRIPOS>MOLECULE
bicapped_trigonal_prismatic_0_nunpairedes_0_charge_3 Charge: 3 Unpaired_Electrons: 6 XTB_Unpaired_Electrons: 0 XTB_Charge: 3
   253   264     1     0     0
SMALL
NoCharges
****
Generated from Architector

@<TRIPOS>ATOM
     1 Tb1      -0.3164   -0.2317    0.2868   Tb        1 RES1   0.0000
     2 C1        0.9803   -3.2865   -8.1106   C.3       1 RES1   0.0000
     3 C2        2.3672   -3.5027   -7.5206   C.3       1 RES1   0.0000
     4 C3        2.4951   -2.9560   -6.0976   C.3       1 RES1   0.0000
     5 C4        2.5899   -1.4278   -6.0641   C.3       1 RES1   0.0000
     6 C5        2.2862   -0.8257   -4.6875   C.3       1 RES1   0.0000
     7 C6        2.8794    0.5779   -4.5520   C.3       1 RES1   0.0000
     8 C7        2.5683    1.2441   -3.2070   C.3       1 RES1   0.0000
     9 C8        3.5652    1.0092   -2.0636   C.3       1 RES1   0.0000
    10 N1        3.6781   -0.3521   -1.5309   N.am      1 RES1   0.0000
    11 C9        4.9898   -0.9904   -1.6059   C.3       1 RES1   0.0000
    12 C10       5.0848   -2.0967   -2.6655   C.3       1 RES1   0.0000
    13 C11       6.4710   -2.7520   -2.7505   C.3       1 RES1   0.0000
    14 C12       6.8553   -3.6715   -1.5857   C.3       1 RES1   0.0000
    15 C13       7.5685   -2.9798   -0.4239   C.3       1 RES1   0.0000
    16 C14       7.8280   -3.9547    0.7240   C.3       1 RES1   0.0000
    17 C15       8.4526   -3.2936    1.9532   C.3       1 RES1   0.0000
    18 C16       7.4853   -2.3979    2.7208   C.3       1 RES1   0.0000
    19 C17       2.6015   -0.7441   -0.8412   C.2       1 RES1   0.0000
    20 O1        1.6189    0.0329   -0.7812   O.2       1 RES1   0.0000
    21 C18       2.4406   -2.0305   -0.0502   C.ar      1 RES1   0.0000
    22 C19       3.3823   -3.0493    0.1709   C.ar      1 RES1   0.0000
    23 C20       3.0560   -4.1231    0.9724   C.ar      1 RES1   0.0000
    24 C21       1.7973   -4.1849    1.5884   C.ar      1 RES1   0.0000
    25 C22       1.3848   -5.2619    2.4232   C.ar      1 RES1   0.0000
    26 C23       0.1623   -5.2639    3.0066   C.ar      1 RES1   0.0000
    27 C24      -0.7020   -4.1394    2.8807   C.ar      1 RES1   0.0000
    28 C25      -1.8997   -4.0174    3.6035   C.ar      1 RES1   0.0000
    29 C26      -2.6349   -2.8528    3.5229   C.ar      1 RES1   0.0000
    30 C27      -2.2315   -1.8447    2.6382   C.ar      1 RES1   0.0000
    31 C28      -2.9120   -0.5199    2.3890   C.2       1 RES1   0.0000
    32 O2       -2.1782    0.3523    1.8512   O.2       1 RES1   0.0000
    33 N2       -4.1869   -0.2478    2.6763   N.am      1 RES1   0.0000
    34 C29      -4.6476    1.1317    2.4647   C.3       1 RES1   0.0000
    35 C30      -4.7861    1.5712    1.0033   C.3       1 RES1   0.0000
    36 C31      -5.9243    0.8682    0.2618   C.3       1 RES1   0.0000
    37 C32      -5.8638    1.0202   -1.2565   C.3       1 RES1   0.0000
    38 C33      -4.5971    0.4237   -1.8725   C.3       1 RES1   0.0000
    39 C34      -4.3522   -1.0534   -1.5330   C.3       1 RES1   0.0000
    40 C35      -3.3676   -1.2970   -0.3932   C.3       1 RES1   0.0000
    41 C36      -2.6351   -2.6342   -0.5260   C.3       1 RES1   0.0000
    42 C37      -5.2569   -1.1706    3.0568   C.3       1 RES1   0.0000
    43 C38      -5.8236   -0.8653    4.4520   C.3       1 RES1   0.0000
    44 C39      -6.7730   -1.9458    4.9820   C.3       1 RES1   0.0000
    45 C40      -6.1029   -3.2628    5.3814   C.3       1 RES1   0.0000
    46 C41      -4.9690   -3.0963    6.3911   C.3       1 RES1   0.0000
    47 C42      -4.2186   -4.4048    6.6524   C.3       1 RES1   0.0000
    48 C43      -2.7833   -4.1594    7.1303   C.3       1 RES1   0.0000
    49 C44      -2.7121   -3.2638    8.3601   C.3       1 RES1   0.0000
    50 N3       -1.0983   -1.9535    1.9380   N.ar      1 RES1   0.0000
    51 C45      -0.3314   -3.0489    2.0620   C.ar      1 RES1   0.0000
    52 C46       0.9216   -3.1042    1.3428   C.ar      1 RES1   0.0000
    53 N4        1.2358   -2.0912    0.5242   N.ar      1 RES1   0.0000
    54 H1        0.9188   -3.7419   -9.0935   H         1 RES1   0.0000
    55 H2        0.7515   -2.2287   -8.2183   H         1 RES1   0.0000
    56 H3        0.2199   -3.7421   -7.4788   H         1 RES1   0.0000
    57 H4        3.1065   -3.0286   -8.1666   H         1 RES1   0.0000
    58 H5        2.5814   -4.5719   -7.5095   H         1 RES1   0.0000
    59 H6        3.3961   -3.3687   -5.6379   H         1 RES1   0.0000
    60 H7        1.6373   -3.2939   -5.5090   H         1 RES1   0.0000
    61 H8        1.9051   -0.9939   -6.7940   H         1 RES1   0.0000
    62 H9        3.5978   -1.1343   -6.3645   H         1 RES1   0.0000
    63 H10       2.6779   -1.4708   -3.8987   H         1 RES1   0.0000
    64 H11       1.2024   -0.7625   -4.5445   H         1 RES1   0.0000
    65 H12       2.4603    1.2024   -5.3449   H         1 RES1   0.0000
    66 H13       3.9561    0.5431   -4.7229   H         1 RES1   0.0000
    67 H14       1.5638    0.9499   -2.8952   H         1 RES1   0.0000
    68 H15       2.5612    2.3276   -3.3443   H         1 RES1   0.0000
    69 H16       3.2399    1.6394   -1.2278   H         1 RES1   0.0000
    70 H17       4.5494    1.3358   -2.3865   H         1 RES1   0.0000
    71 H18       5.2653   -1.3581   -0.6160   H         1 RES1   0.0000
    72 H19       5.7155   -0.2168   -1.8629   H         1 RES1   0.0000
    73 H20       4.8601   -1.6646   -3.6434   H         1 RES1   0.0000
    74 H21       4.3345   -2.8650   -2.4681   H         1 RES1   0.0000
    75 H22       7.2312   -1.9810   -2.8611   H         1 RES1   0.0000
    76 H23       6.4812   -3.3415   -3.6686   H         1 RES1   0.0000
    77 H24       7.5293   -4.4393   -1.9671   H         1 RES1   0.0000
    78 H25       5.9652   -4.1950   -1.2283   H         1 RES1   0.0000
    79 H26       6.9895   -2.1332   -0.0515   H         1 RES1   0.0000
    80 H27       8.5215   -2.5911   -0.7839   H         1 RES1   0.0000
    81 H28       8.4972   -4.7427    0.3757   H         1 RES1   0.0000
    82 H29       6.8875   -4.4268    1.0239   H         1 RES1   0.0000
    83 H30       9.3226   -2.7082    1.6556   H         1 RES1   0.0000
    84 H31       8.8036   -4.0739    2.6289   H         1 RES1   0.0000
    85 H32       7.1949   -1.5316    2.1305   H         1 RES1   0.0000
    86 H33       7.9529   -2.0379    3.6340   H         1 RES1   0.0000
    87 H34       6.5852   -2.9476    2.9935   H         1 RES1   0.0000
    88 H35       4.3450   -3.0384   -0.3071   H         1 RES1   0.0000
    89 H36       3.7648   -4.9232    1.1322   H         1 RES1   0.0000
    90 H37       2.0766   -6.0693    2.5906   H         1 RES1   0.0000
    91 H38      -0.1624   -6.0875    3.6226   H         1 RES1   0.0000
    92 H39      -2.2171   -4.8347    4.2393   H         1 RES1   0.0000
    93 H40      -3.4861   -2.7247    4.1703   H         1 RES1   0.0000
    94 H41      -3.9363    1.8043    2.9386   H         1 RES1   0.0000
    95 H42      -5.6063    1.2401    2.9680   H         1 RES1   0.0000
    96 H43      -3.8230    1.4387    0.5074   H         1 RES1   0.0000
    97 H44      -4.9814    2.6452    1.0175   H         1 RES1   0.0000
    98 H45      -6.8738    1.2703    0.6185   H         1 RES1   0.0000
    99 H46      -5.9242   -0.1960    0.4889   H         1 RES1   0.0000
   100 H47      -5.9096    2.0747   -1.5290   H         1 RES1   0.0000
   101 H48      -6.7494    0.5423   -1.6816   H         1 RES1   0.0000
   102 H49      -3.7392    1.0262   -1.5624   H         1 RES1   0.0000
   103 H50      -4.6815    0.5146   -2.9574   H         1 RES1   0.0000
   104 H51      -3.9214   -1.5352   -2.4018   H         1 RES1   0.0000
   105 H52      -5.3010   -1.5438   -1.3037   H         1 RES1   0.0000
   106 H53      -3.8994   -1.2769    0.5552   H         1 RES1   0.0000
   107 H54      -2.6331   -0.4764   -0.3886   H         1 RES1   0.0000
   108 H55      -2.5270   -2.9260   -1.5628   H         1 RES1   0.0000
   109 H56      -3.2030   -3.4067   -0.0256   H         1 RES1   0.0000
   110 H57      -1.6243   -2.6101   -0.1191   H         1 RES1   0.0000
   111 H58      -4.9200   -2.2026    2.9796   H         1 RES1   0.0000
   112 H59      -6.0601   -1.0475    2.3250   H         1 RES1   0.0000
   113 H60      -6.3754    0.0787    4.4303   H         1 RES1   0.0000
   114 H61      -4.9982   -0.7373    5.1514   H         1 RES1   0.0000
   115 H62      -7.5474   -2.1522    4.2392   H         1 RES1   0.0000
   116 H63      -7.2651   -1.5224    5.8575   H         1 RES1   0.0000
   117 H64      -5.7415   -3.7884    4.4938   H         1 RES1   0.0000
   118 H65      -6.8664   -3.9002    5.8258   H         1 RES1   0.0000
   119 H66      -5.3867   -2.7217    7.3239   H         1 RES1   0.0000
   120 H67      -4.2442   -2.3526    6.0489   H         1 RES1   0.0000
   121 H68      -4.1888   -5.0028    5.7351   H         1 RES1   0.0000
   122 H69      -4.7545   -4.9956    7.3959   H         1 RES1   0.0000
   123 H70      -2.1981   -3.7002    6.3228   H         1 RES1   0.0000
   124 H71      -2.3231   -5.1216    7.3639   H         1 RES1   0.0000
   125 H72      -3.0374   -2.2541    8.1283   H         1 RES1   0.0000
   126 H73      -1.6941   -3.2094    8.7333   H         1 RES1   0.0000
   127 H74      -3.3470   -3.6579    9.1459   H         1 RES1   0.0000
   128 C47      -3.5881    2.6065    5.3373   C.3       1 RES1   0.0000
   129 C48      -2.2881    1.9977    4.8244   C.3       1 RES1   0.0000
   130 C49      -1.9079    0.6737    5.4872   C.3       1 RES1   0.0000
   131 C50      -0.6436    0.1692    4.8034   C.3       1 RES1   0.0000
   132 C51      -0.0547   -1.1480    5.2864   C.3       1 RES1   0.0000
   133 C52       1.2391   -1.4822    4.5258   C.3       1 RES1   0.0000
   134 C53       2.4633   -0.6298    4.9018   C.3       1 RES1   0.0000
   135 C54       2.8579    0.5031    3.9420   C.3       1 RES1   0.0000
   136 N5        1.9047    1.5927    3.7101   N.am      1 RES1   0.0000
   137 C55       1.9103    2.7083    4.6626   C.3       1 RES1   0.0000
   138 C56       2.0948    2.3163    6.1411   C.3       1 RES1   0.0000
   139 C57       2.0447    3.5252    7.1070   C.3       1 RES1   0.0000
   140 C58       0.9623    3.3819    8.1885   C.3       1 RES1   0.0000
   141 C59      -0.4447    3.7700    7.7198   C.3       1 RES1   0.0000
   142 C60      -0.6621    5.2849    7.6790   C.3       1 RES1   0.0000
   143 C61      -1.8844    5.7189    6.8609   C.3       1 RES1   0.0000
   144 C62      -3.2049    5.6011    7.6156   C.3       1 RES1   0.0000
   145 C63       1.1942    1.5017    2.5818   C.2       1 RES1   0.0000
   146 O3        1.1980    0.4209    1.9420   O.2       1 RES1   0.0000
   147 C64       0.4225    2.6145    1.8968   C.ar      1 RES1   0.0000
   148 C65       0.3724    3.9819    2.2095   C.ar      1 RES1   0.0000
   149 C66      -0.3176    4.8467    1.3847   C.ar      1 RES1   0.0000
   150 C67      -0.8913    4.3739    0.1924   C.ar      1 RES1   0.0000
   151 C68      -1.5326    5.2298   -0.7513   C.ar      1 RES1   0.0000
   152 C69      -1.8915    4.7615   -1.9719   C.ar      1 RES1   0.0000
   153 C70      -1.7072    3.3896   -2.3185   C.ar      1 RES1   0.0000
   154 C71      -1.9588    2.8864   -3.6051   C.ar      1 RES1   0.0000
   155 C72      -1.8732    1.5320   -3.8454   C.ar      1 RES1   0.0000
   156 C73      -1.5984    0.6549   -2.7858   C.ar      1 RES1   0.0000
   157 C74      -1.4184   -0.8540   -2.8790   C.2       1 RES1   0.0000
   158 O4       -0.6403   -1.2968   -2.0048   O.2       1 RES1   0.0000
   159 N6       -1.9223   -1.6823   -3.8222   N.am      1 RES1   0.0000
   160 C75      -1.0430   -2.8134   -4.1745   C.3       1 RES1   0.0000
   161 C76      -1.6349   -4.2104   -4.0646   C.3       1 RES1   0.0000
   162 C77      -0.6292   -5.3301   -4.3453   C.3       1 RES1   0.0000
   163 C78       0.3777   -5.5666   -3.2232   C.3       1 RES1   0.0000
   164 C79       1.0778   -6.9265   -3.3048   C.3       1 RES1   0.0000
   165 C80       1.9951   -7.1425   -4.5134   C.3       1 RES1   0.0000
   166 C81       1.3315   -7.6109   -5.8113   C.3       1 RES1   0.0000
   167 C82       0.7556   -9.0209   -5.7303   C.3       1 RES1   0.0000
   168 C83      -3.0255   -1.4382   -4.7637   C.3       1 RES1   0.0000
   169 C84      -4.4509   -2.1014   -4.6537   C.3       1 RES1   0.0000
   170 C85      -4.7751   -3.6126   -4.6180   C.3       1 RES1   0.0000
   171 C86      -4.7146   -4.3315   -3.2474   C.3       1 RES1   0.0000
   172 C87      -6.0948   -4.4365   -2.5829   C.3       1 RES1   0.0000
   173 C88      -6.1485   -5.3242   -1.3306   C.3       1 RES1   0.0000
   174 C89      -5.2939   -4.8634   -0.1456   C.3       1 RES1   0.0000
   175 C90      -5.7647   -5.5345    1.1459   C.3       1 RES1   0.0000
   176 N7       -1.2402    1.1385   -1.5866   N.ar      1 RES1   0.0000
   177 C91      -1.2448    2.4637   -1.3507   C.ar      1 RES1   0.0000
   178 C92      -0.7599    2.9877   -0.0804   C.ar      1 RES1   0.0000
   179 N8       -0.1588    2.1583    0.7812   N.ar      1 RES1   0.0000
   180 H75      -3.8550    3.4814    4.7470   H         1 RES1   0.0000
   181 H76      -3.4814    2.9255    6.3693   H         1 RES1   0.0000
   182 H77      -4.4149    1.9020    5.3009   H         1 RES1   0.0000
   183 H78      -1.4834    2.7171    4.9853   H         1 RES1   0.0000
   184 H79      -2.3221    1.8341    3.7424   H         1 RES1   0.0000
   185 H80      -2.7215   -0.0456    5.3782   H         1 RES1   0.0000
   186 H81      -1.7312    0.8229    6.5523   H         1 RES1   0.0000
   187 H82       0.1069    0.9372    4.9418   H         1 RES1   0.0000
   188 H83      -0.8339    0.0928    3.7281   H         1 RES1   0.0000
   189 H84      -0.7753   -1.9529    5.1215   H         1 RES1   0.0000
   190 H85       0.1387   -1.1079    6.3601   H         1 RES1   0.0000
   191 H86       1.0535   -1.3869    3.4529   H         1 RES1   0.0000
   192 H87       1.4808   -2.5278    4.7353   H         1 RES1   0.0000
   193 H88       3.3304   -1.2931    4.9254   H         1 RES1   0.0000
   194 H89       2.3269   -0.2455    5.9080   H         1 RES1   0.0000
   195 H90       3.0660    0.0666    2.9613   H         1 RES1   0.0000
   196 H91       3.7746    0.9604    4.3181   H         1 RES1   0.0000
   197 H92       0.9502    3.2146    4.5840   H         1 RES1   0.0000
   198 H93       2.7138    3.3993    4.3833   H         1 RES1   0.0000
   199 H94       3.0523    1.8155    6.2763   H         1 RES1   0.0000
   200 H95       1.3024    1.6276    6.4348   H         1 RES1   0.0000
   201 H96       1.8940    4.4519    6.5511   H         1 RES1   0.0000
   202 H97       3.0085    3.6053    7.6103   H         1 RES1   0.0000
   203 H98       1.2313    4.0010    9.0449   H         1 RES1   0.0000
   204 H99       0.9573    2.3463    8.5381   H         1 RES1   0.0000
   205 H100     -1.1730    3.3212    8.3958   H         1 RES1   0.0000
   206 H101     -0.6190    3.3463    6.7284   H         1 RES1   0.0000
   207 H102      0.2280    5.7560    7.2571   H         1 RES1   0.0000
   208 H103     -0.7675    5.6536    8.6995   H         1 RES1   0.0000
   209 H104     -1.9353    5.1328    5.9371   H         1 RES1   0.0000
   210 H105     -1.7518    6.7625    6.5707   H         1 RES1   0.0000
   211 H106     -3.3658    4.5930    7.9888   H         1 RES1   0.0000
   212 H107     -4.0369    5.8628    6.9651   H         1 RES1   0.0000
   213 H108     -3.2203    6.2804    8.4632   H         1 RES1   0.0000
   214 H109      0.8791    4.3946    3.0618   H         1 RES1   0.0000
   215 H110     -0.3861    5.8992    1.6317   H         1 RES1   0.0000
   216 H111     -1.6958    6.2636   -0.4861   H         1 RES1   0.0000
   217 H112     -2.3398    5.4124   -2.7076   H         1 RES1   0.0000
   218 H113     -2.2099    3.5689   -4.4046   H         1 RES1   0.0000
   219 H114     -2.0111    1.1748   -4.8497   H         1 RES1   0.0000
   220 H115     -0.1662   -2.7417   -3.5335   H         1 RES1   0.0000
   221 H116     -0.7397   -2.6421   -5.2135   H         1 RES1   0.0000
   222 H117     -2.4344   -4.3038   -4.7902   H         1 RES1   0.0000
   223 H118     -2.0484   -4.3593   -3.0698   H         1 RES1   0.0000
   224 H119     -0.1090   -5.1237   -5.2793   H         1 RES1   0.0000
   225 H120     -1.2040   -6.2482   -4.4806   H         1 RES1   0.0000
   226 H121     -0.1573   -5.5195   -2.2685   H         1 RES1   0.0000
   227 H122      1.1350   -4.7808   -3.2208   H         1 RES1   0.0000
   228 H123      0.3247   -7.7116   -3.2802   H         1 RES1   0.0000
   229 H124      1.6880   -7.0281   -2.4025   H         1 RES1   0.0000
   230 H125      2.7292   -7.9026   -4.2396   H         1 RES1   0.0000
   231 H126      2.5443   -6.2187   -4.7053   H         1 RES1   0.0000
   232 H127      2.0989   -7.5978   -6.5884   H         1 RES1   0.0000
   233 H128      0.5457   -6.9239   -6.1209   H         1 RES1   0.0000
   234 H129      1.5176   -9.7290   -5.4101   H         1 RES1   0.0000
   235 H130      0.3979   -9.3259   -6.7116   H         1 RES1   0.0000
   236 H131     -0.0825   -9.0771   -5.0370   H         1 RES1   0.0000
   237 H132     -2.6413   -1.6717   -5.7603   H         1 RES1   0.0000
   238 H133     -3.2407   -0.3719   -4.7386   H         1 RES1   0.0000
   239 H134     -4.9204   -1.7089   -5.5593   H         1 RES1   0.0000
   240 H135     -5.0155   -1.6591   -3.8406   H         1 RES1   0.0000
   241 H136     -4.1923   -4.1512   -5.3624   H         1 RES1   0.0000
   242 H137     -5.8082   -3.6939   -4.9690   H         1 RES1   0.0000
   243 H138     -4.0486   -3.8061   -2.5651   H         1 RES1   0.0000
   244 H139     -4.3071   -5.3365   -3.3887   H         1 RES1   0.0000
   245 H140     -6.7984   -4.8668   -3.2998   H         1 RES1   0.0000
   246 H141     -6.4470   -3.4282   -2.3341   H         1 RES1   0.0000
   247 H142     -5.8721   -6.3513   -1.5870   H         1 RES1   0.0000
   248 H143     -7.1885   -5.3376   -0.9958   H         1 RES1   0.0000
   249 H144     -5.3785   -3.7759   -0.0340   H         1 RES1   0.0000
   250 H145     -4.2444   -5.1207   -0.3235   H         1 RES1   0.0000
   251 H146     -6.7555   -5.1727    1.4148   H         1 RES1   0.0000
   252 H147     -5.0858   -5.3371    1.9774   H         1 RES1   0.0000
   253 H148     -5.8289   -6.6101    1.0016   H         1 RES1   0.0000
@<TRIPOS>BOND
     1     1    20    1
     2     1    32    1
     3     1    50    1
     4     1    53    1
     5     1   146    1
     6     1   158    1
     7     1   176    1
     8     1   179    1
     9     2     3    1
    10     2    54    1
    11     2    55    1
    12     2    56    1
    13     3     4    1
    14     3    57    1
    15     3    58    1
    16     4     5    1
    17     4    59    1
    18     4    60    1
    19     5     6    1
    20     5    61    1
    21     5    62    1
    22     6     7    1
    23     6    63    1
    24     6    64    1
    25     7     8    1
    26     7    65    1
    27     7    66    1
    28     8     9    1
    29     8    67    1
    30     8    68    1
    31     9    10    1
    32     9    69    1
    33     9    70    1
    34    10    11    1
    35    10    19    1
    36    11    12    1
    37    11    71    1
    38    11    72    1
    39    12    13    1
    40    12    73    1
    41    12    74    1
    42    13    14    1
    43    13    75    1
    44    13    76    1
    45    14    15    1
    46    14    77    1
    47    14    78    1
    48    15    16    1
    49    15    79    1
    50    15    80    1
    51    16    17    1
    52    16    81    1
    53    16    82    1
    54    17    18    1
    55    17    83    1
    56    17    84    1
    57    18    85    1
    58    18    86    1
    59    18    87    1
    60    19    20    2
    61    19    21    1
    62    21    22    1
    63    21    53    2
    64    22    23    2
    65    22    88    1
    66    23    24    1
    67    23    89    1
    68    24    25    1
    69    24    52    2
    70    25    26    2
    71    25    90    1
    72    26    27    1
    73    26    91    1
    74    27    28    1
    75    27    51    2
    76    28    29    2
    77    28    92    1
    78    29    30    1
    79    29    93    1
    80    30    31    1
    81    30    50    2
    82    31    32    2
    83    31    33    1
    84    33    34    1
    85    33    42    1
    86    34    35    1
    87    34    94    1
    88    34    95    1
    89    35    36    1
    90    35    96    1
    91    35    97    1
    92    36    37    1
    93    36    98    1
    94    36    99    1
    95    37    38    1
    96    37   100    1
    97    37   101    1
    98    38    39    1
    99    38   102    1
   100    38   103    1
   101    39    40    1
   102    39   104    1
   103    39   105    1
   104    40    41    1
   105    40   106    1
   106    40   107    1
   107    41   108    1
   108    41   109    1
   109    41   110    1
   110    42    43    1
   111    42   111    1
   112    42   112    1
   113    43    44    1
   114    43   113    1
   115    43   114    1
   116    44    45    1
   117    44   115    1
   118    44   116    1
   119    45    46    1
   120    45   117    1
   121    45   118    1
   122    46    47    1
   123    46   119    1
   124    46   120    1
   125    47    48    1
   126    47   121    1
   127    47   122    1
   128    48    49    1
   129    48   123    1
   130    48   124    1
   131    49   125    1
   132    49   126    1
   133    49   127    1
   134    50    51    1
   135    51    52    1
   136    52    53    1
   137   128   129    1
   138   128   180    1
   139   128   181    1
   140   128   182    1
   141   129   130    1
   142   129   183    1
   143   129   184    1
   144   130   131    1
   145   130   185    1
   146   130   186    1
   147   131   132    1
   148   131   187    1
   149   131   188    1
   150   132   133    1
   151   132   189    1
   152   132   190    1
   153   133   134    1
   154   133   191    1
   155   133   192    1
   156   134   135    1
   157   134   193    1
   158   134   194    1
   159   135   136    1
   160   135   195    1
   161   135   196    1
   162   136   137    1
   163   136   145    1
   164   137   138    1
   165   137   197    1
   166   137   198    1
   167   138   139    1
   168   138   199    1
   169   138   200    1
   170   139   140    1
   171   139   201    1
   172   139   202    1
   173   140   141    1
   174   140   203    1
   175   140   204    1
   176   141   142    1
   177   141   205    1
   178   141   206    1
   179   142   143    1
   180   142   207    1
   181   142   208    1
   182   143   144    1
   183   143   209    1
   184   143   210    1
   185   144   211    1
   186   144   212    1
   187   144   213    1
   188   145   146    2
   189   145   147    1
   190   147   148    1
   191   147   179    2
   192   148   149    2
   193   148   214    1
   194   149   150    1
   195   149   215    1
   196   150   151    1
   197   150   178    2
   198   151   152    2
   199   151   216    1
   200   152   153    1
   201   152   217    1
   202   153   154    1
   203   153   177    2
   204   154   155    2
   205   154   218    1
   206   155   156    1
   207   155   219    1
   208   156   157    1
   209   156   176    2
   210   157   158    2
   211   157   159    1
   212   159   160    1
   213   159   168    1
   214   160   161    1
   215   160   220    1
   216   160   221    1
   217   161   162    1
   218   161   222    1
   219   161   223    1
   220   162   163    1
   221   162   224    1
   222   162   225    1
   223   163   164    1
   224   163   226    1
   225   163   227    1
   226   164   165    1
   227   164   228    1
   228   164   229    1
   229   165   166    1
   230   165   230    1
   231   165   231    1
   232   166   167    1
   233   166   232    1
   234   166   233    1
   235   167   234    1
   236   167   235    1
   237   167   236    1
   238   168   169    1
   239   168   237    1
   240   168   238    1
   241   169   170    1
   242   169   239    1
   243   169   240    1
   244   170   171    1
   245   170   241    1
   246   170   242    1
   247   171   172    1
   248   171   243    1
   249   171   244    1
   250   172   173    1
   251   172   245    1
   252   172   246    1
   253   173   174    1
   254   173   247    1
   255   173   248    1
   256   174   175    1
   257   174   249    1
   258   174   250    1
   259   175   251    1
   260   175   252    1
   261   175   253    1
   262   176   177    1
   263   177   178    1
   264   178   179    1
@<TRIPOS>SUBSTRUCTURE
     1 RES1      253 GROUP             0 ****  ****    0  
