@<TRIPOS>MOLECULE
bicapped_trigonal_prismatic_0_nunpairedes_0_charge_3 Charge: 3 Unpaired_Electrons: 6 XTB_Unpaired_Electrons: 0 XTB_Charge: 3
   337   342     1     0     0
SMALL
NoCharges
****
Generated from Architector

@<TRIPOS>ATOM
     1 Tb1      -0.4319   -0.1632    0.2396   Tb        1 RES1   0.0000
     2 C1        1.1115    5.1945    3.7780   C.3       1 RES1   0.0000
     3 C2        2.1900    5.7447    4.7112   C.3       1 RES1   0.0000
     4 C3        3.4567    6.0901    3.9306   C.3       1 RES1   0.0000
     5 C4        4.2604    4.8334    3.5681   C.3       1 RES1   0.0000
     6 C5        4.8219    4.8263    2.1437   C.3       1 RES1   0.0000
     7 C6        3.7627    4.6092    1.0573   C.3       1 RES1   0.0000
     8 C7        4.4147    4.5315   -0.3287   C.3       1 RES1   0.0000
     9 C8        3.4332    4.6951   -1.4939   C.3       1 RES1   0.0000
    10 C9        2.4037    3.5680   -1.6912   C.3       1 RES1   0.0000
    11 C10       2.7252    2.5528   -2.7971   C.3       1 RES1   0.0000
    12 C11       3.9502    1.6668   -2.5595   C.3       1 RES1   0.0000
    13 C12       3.8034    0.6707   -1.4090   C.3       1 RES1   0.0000
    14 N1        3.2493   -0.6374   -1.7639   N.am      1 RES1   0.0000
    15 C13       4.1523   -1.5619   -2.4346   C.3       1 RES1   0.0000
    16 C14       3.7800   -1.8493   -3.9041   C.3       1 RES1   0.0000
    17 C15       3.2292   -3.2524   -4.1544   C.3       1 RES1   0.0000
    18 C16       4.1917   -4.3722   -3.7401   C.3       1 RES1   0.0000
    19 C17       3.4183   -5.5920   -3.2408   C.3       1 RES1   0.0000
    20 C18       4.3132   -6.7391   -2.7714   C.3       1 RES1   0.0000
    21 C19       5.2443   -6.3403   -1.6225   C.3       1 RES1   0.0000
    22 C20       5.7459   -7.5671   -0.8599   C.3       1 RES1   0.0000
    23 C21       6.6297   -7.2308    0.3485   C.3       1 RES1   0.0000
    24 C22       5.9210   -7.1147    1.7008   C.3       1 RES1   0.0000
    25 C23       4.9788   -5.9172    1.8817   C.3       1 RES1   0.0000
    26 C24       3.5180   -6.2569    1.6031   C.3       1 RES1   0.0000
    27 C25       1.9982   -0.8809   -1.4191   C.2       1 RES1   0.0000
    28 O1        1.2175    0.0456   -1.0967   O.2       1 RES1   0.0000
    29 C26       1.4542   -2.3129   -1.3091   C.3       1 RES1   0.0000
    30 O2        0.3999   -2.2871   -0.3337   O.3       1 RES1   0.0000
    31 C27       0.3463   -3.3624    0.6135   C.3       1 RES1   0.0000
    32 C28       0.6334   -2.7943    2.0102   C.3       1 RES1   0.0000
    33 O3       -0.2600   -1.7279    2.3387   O.3       1 RES1   0.0000
    34 C29      -1.5028   -2.0989    2.9518   C.3       1 RES1   0.0000
    35 C30      -2.6489   -1.5935    2.0598   C.2       1 RES1   0.0000
    36 O4       -2.3275   -0.9678    1.0188   O.2       1 RES1   0.0000
    37 N2       -3.9034   -1.8860    2.3440   N.am      1 RES1   0.0000
    38 C31      -4.3853   -2.1765    3.6802   C.3       1 RES1   0.0000
    39 C32      -5.2561   -1.0236    4.2107   C.3       1 RES1   0.0000
    40 C33      -4.5714    0.3443    4.1944   C.3       1 RES1   0.0000
    41 C34      -3.6765    0.5985    5.4093   C.3       1 RES1   0.0000
    42 C35      -4.4007    0.7497    6.7501   C.3       1 RES1   0.0000
    43 C36      -5.2384    2.0332    6.8560   C.3       1 RES1   0.0000
    44 C37      -6.7315    1.8236    6.5833   C.3       1 RES1   0.0000
    45 C38      -7.5475    3.1211    6.7029   C.3       1 RES1   0.0000
    46 C39      -7.8489    3.8089    5.3671   C.3       1 RES1   0.0000
    47 C40      -6.6432    4.3375    4.5906   C.3       1 RES1   0.0000
    48 C41      -5.9128    5.4706    5.3025   C.3       1 RES1   0.0000
    49 C42      -4.7163    5.9585    4.4975   C.3       1 RES1   0.0000
    50 C43      -4.9314   -1.6170    1.3401   C.3       1 RES1   0.0000
    51 C44      -4.7027   -2.3525    0.0211   C.3       1 RES1   0.0000
    52 C45      -4.7655   -3.8819    0.0875   C.3       1 RES1   0.0000
    53 C46      -3.4000   -4.5299    0.3040   C.3       1 RES1   0.0000
    54 C47      -3.4200   -6.0185   -0.0623   C.3       1 RES1   0.0000
    55 C48      -2.3709   -6.8261    0.7104   C.3       1 RES1   0.0000
    56 C49      -2.9325   -7.4420    1.9935   C.3       1 RES1   0.0000
    57 C50      -3.4357   -6.4177    3.0081   C.3       1 RES1   0.0000
    58 C51      -3.9866   -7.0893    4.2628   C.3       1 RES1   0.0000
    59 C52      -4.6385   -6.1121    5.2414   C.3       1 RES1   0.0000
    60 C53      -5.9026   -5.4238    4.7187   C.3       1 RES1   0.0000
    61 C54      -7.0343   -6.3847    4.3858   C.3       1 RES1   0.0000
    62 H1        0.2813    4.7675    4.3418   H         1 RES1   0.0000
    63 H2        1.5321    4.4428    3.1043   H         1 RES1   0.0000
    64 H3        0.7139    6.0029    3.1681   H         1 RES1   0.0000
    65 H4        2.4324    5.0184    5.4931   H         1 RES1   0.0000
    66 H5        1.8138    6.6408    5.2058   H         1 RES1   0.0000
    67 H6        4.0742    6.7578    4.5271   H         1 RES1   0.0000
    68 H7        3.1724    6.6342    3.0304   H         1 RES1   0.0000
    69 H8        3.6287    3.9473    3.6952   H         1 RES1   0.0000
    70 H9        5.0911    4.7303    4.2683   H         1 RES1   0.0000
    71 H10       5.5711    4.0340    2.0631   H         1 RES1   0.0000
    72 H11       5.3281    5.7737    1.9606   H         1 RES1   0.0000
    73 H12       3.0494    5.4386    1.0708   H         1 RES1   0.0000
    74 H13       3.2070    3.6841    1.2705   H         1 RES1   0.0000
    75 H14       4.9716    3.5957   -0.4173   H         1 RES1   0.0000
    76 H15       5.1403    5.3459   -0.3983   H         1 RES1   0.0000
    77 H16       4.0057    4.8229   -2.4141   H         1 RES1   0.0000
    78 H17       2.8968    5.6311   -1.3225   H         1 RES1   0.0000
    79 H18       1.4570    4.0391   -1.9694   H         1 RES1   0.0000
    80 H19       2.2438    3.0457   -0.7441   H         1 RES1   0.0000
    81 H20       2.8961    3.0969   -3.7278   H         1 RES1   0.0000
    82 H21       1.8456    1.9181   -2.9392   H         1 RES1   0.0000
    83 H22       4.8065    2.3098   -2.3484   H         1 RES1   0.0000
    84 H23       4.1759    1.1157   -3.4790   H         1 RES1   0.0000
    85 H24       3.1594    1.0911   -0.6337   H         1 RES1   0.0000
    86 H25       4.7887    0.4712   -0.9759   H         1 RES1   0.0000
    87 H26       4.2328   -2.4926   -1.8648   H         1 RES1   0.0000
    88 H27       5.1304   -1.0862   -2.4127   H         1 RES1   0.0000
    89 H28       4.6734   -1.7261   -4.5201   H         1 RES1   0.0000
    90 H29       3.0456   -1.1094   -4.2328   H         1 RES1   0.0000
    91 H30       3.0113   -3.3482   -5.2154   H         1 RES1   0.0000
    92 H31       2.2804   -3.3834   -3.6316   H         1 RES1   0.0000
    93 H32       4.8591   -4.0297   -2.9488   H         1 RES1   0.0000
    94 H33       4.8261   -4.6634   -4.5769   H         1 RES1   0.0000
    95 H34       2.7651   -5.9481   -4.0418   H         1 RES1   0.0000
    96 H35       2.7762   -5.2851   -2.4044   H         1 RES1   0.0000
    97 H36       4.8978   -7.1175   -3.6097   H         1 RES1   0.0000
    98 H37       3.6640   -7.5516   -2.4375   H         1 RES1   0.0000
    99 H38       4.7051   -5.6741   -0.9434   H         1 RES1   0.0000
   100 H39       6.1059   -5.7942   -2.0134   H         1 RES1   0.0000
   101 H40       6.3192   -8.1764   -1.5622   H         1 RES1   0.0000
   102 H41       4.8958   -8.1716   -0.5356   H         1 RES1   0.0000
   103 H42       7.1838   -6.3113    0.1470   H         1 RES1   0.0000
   104 H43       7.3651   -8.0291    0.4516   H         1 RES1   0.0000
   105 H44       6.7059   -7.0503    2.4552   H         1 RES1   0.0000
   106 H45       5.3696   -8.0349    1.8929   H         1 RES1   0.0000
   107 H46       5.3017   -5.0956    1.2385   H         1 RES1   0.0000
   108 H47       5.0542   -5.5649    2.9122   H         1 RES1   0.0000
   109 H48       3.3881   -6.6230    0.5901   H         1 RES1   0.0000
   110 H49       2.8840   -5.3792    1.7464   H         1 RES1   0.0000
   111 H50       3.1792   -7.0309    2.2853   H         1 RES1   0.0000
   112 H51       2.2526   -2.9992   -1.0199   H         1 RES1   0.0000
   113 H52       1.0100   -2.6312   -2.2619   H         1 RES1   0.0000
   114 H53       1.0638   -4.1487    0.3704   H         1 RES1   0.0000
   115 H54      -0.6684   -3.7834    0.5712   H         1 RES1   0.0000
   116 H55       1.6297   -2.3318    2.0042   H         1 RES1   0.0000
   117 H56       0.6174   -3.5838    2.7696   H         1 RES1   0.0000
   118 H57      -1.5290   -1.6376    3.9498   H         1 RES1   0.0000
   119 H58      -1.5818   -3.1877    3.0569   H         1 RES1   0.0000
   120 H59      -3.5392   -2.3559    4.3389   H         1 RES1   0.0000
   121 H60      -4.9887   -3.0877    3.6510   H         1 RES1   0.0000
   122 H61      -5.5235   -1.2677    5.2367   H         1 RES1   0.0000
   123 H62      -6.1814   -0.9776    3.6347   H         1 RES1   0.0000
   124 H63      -5.3333    1.1224    4.1556   H         1 RES1   0.0000
   125 H64      -3.9618    0.4352    3.2875   H         1 RES1   0.0000
   126 H65      -3.1289    1.5288    5.2309   H         1 RES1   0.0000
   127 H66      -2.9476   -0.2148    5.4895   H         1 RES1   0.0000
   128 H67      -3.6300    0.7524    7.5252   H         1 RES1   0.0000
   129 H68      -5.0360   -0.1144    6.9452   H         1 RES1   0.0000
   130 H69      -4.8390    2.7786    6.1655   H         1 RES1   0.0000
   131 H70      -5.1330    2.4281    7.8682   H         1 RES1   0.0000
   132 H71      -7.1113    1.0978    7.3056   H         1 RES1   0.0000
   133 H72      -6.8770    1.3979    5.5877   H         1 RES1   0.0000
   134 H73      -7.0374    3.8116    7.3759   H         1 RES1   0.0000
   135 H74      -8.5101    2.8891    7.1625   H         1 RES1   0.0000
   136 H75      -8.5189    4.6468    5.5675   H         1 RES1   0.0000
   137 H76      -8.3918    3.1010    4.7339   H         1 RES1   0.0000
   138 H77      -7.0015    4.7075    3.6278   H         1 RES1   0.0000
   139 H78      -5.9443    3.5238    4.3820   H         1 RES1   0.0000
   140 H79      -5.5680    5.1370    6.2814   H         1 RES1   0.0000
   141 H80      -6.6041    6.2981    5.4599   H         1 RES1   0.0000
   142 H81      -4.0078    5.1457    4.3323   H         1 RES1   0.0000
   143 H82      -4.2023    6.7539    5.0284   H         1 RES1   0.0000
   144 H83      -5.0306    6.3397    3.5282   H         1 RES1   0.0000
   145 H84      -4.9697   -0.5350    1.1644   H         1 RES1   0.0000
   146 H85      -5.8906   -1.9434    1.7490   H         1 RES1   0.0000
   147 H86      -3.7447   -2.0452   -0.4108   H         1 RES1   0.0000
   148 H87      -5.4933   -2.0089   -0.6440   H         1 RES1   0.0000
   149 H88      -5.1724   -4.2400   -0.8587   H         1 RES1   0.0000
   150 H89      -5.4517   -4.2078    0.8689   H         1 RES1   0.0000
   151 H90      -3.0911   -4.4061    1.3458   H         1 RES1   0.0000
   152 H91      -2.6582   -4.0250   -0.3267   H         1 RES1   0.0000
   153 H92      -3.2657   -6.1251   -1.1346   H         1 RES1   0.0000
   154 H93      -4.4106   -6.4232    0.1399   H         1 RES1   0.0000
   155 H94      -1.5216   -6.1785    0.9541   H         1 RES1   0.0000
   156 H95      -1.9869   -7.6334    0.0794   H         1 RES1   0.0000
   157 H96      -2.1523   -8.0510    2.4512   H         1 RES1   0.0000
   158 H97      -3.7540   -8.1096    1.7293   H         1 RES1   0.0000
   159 H98      -4.2301   -5.8252    2.5567   H         1 RES1   0.0000
   160 H99      -2.6149   -5.7432    3.2829   H         1 RES1   0.0000
   161 H100     -3.1733   -7.6003    4.7773   H         1 RES1   0.0000
   162 H101     -4.7147   -7.8475    3.9791   H         1 RES1   0.0000
   163 H102     -3.9106   -5.3449    5.5292   H         1 RES1   0.0000
   164 H103     -4.9034   -6.6587    6.1470   H         1 RES1   0.0000
   165 H104     -5.6658   -4.8453    3.8193   H         1 RES1   0.0000
   166 H105     -6.2411   -4.7196    5.4836   H         1 RES1   0.0000
   167 H106     -6.7819   -7.0053    3.5332   H         1 RES1   0.0000
   168 H107     -7.9334   -5.8284    4.1433   H         1 RES1   0.0000
   169 H108     -7.2509   -7.0297    5.2290   H         1 RES1   0.0000
   170 C55       6.6873    0.2082   -5.5215   C.3       1 RES1   0.0000
   171 C56       8.0731    0.0549   -4.9043   C.3       1 RES1   0.0000
   172 C57       8.0810   -0.6421   -3.5361   C.3       1 RES1   0.0000
   173 C58       7.9266    0.3330   -2.3634   C.3       1 RES1   0.0000
   174 C59       8.3903   -0.2077   -1.0036   C.3       1 RES1   0.0000
   175 C60       7.4081   -1.1154   -0.2394   C.3       1 RES1   0.0000
   176 C61       7.4234   -0.7681    1.2545   C.3       1 RES1   0.0000
   177 C62       6.5612   -1.6676    2.1452   C.3       1 RES1   0.0000
   178 C63       5.0499   -1.5377    1.9008   C.3       1 RES1   0.0000
   179 C64       4.2263   -1.5552    3.1968   C.3       1 RES1   0.0000
   180 C65       4.1719   -0.2304    3.9681   C.3       1 RES1   0.0000
   181 C66       3.4545    0.8951    3.2065   C.3       1 RES1   0.0000
   182 N3        2.0698    1.1857    3.5892   N.am      1 RES1   0.0000
   183 C67       1.8218    1.7949    4.8949   C.3       1 RES1   0.0000
   184 C68       1.0122    0.9156    5.8743   C.3       1 RES1   0.0000
   185 C69      -0.3022    1.5467    6.3593   C.3       1 RES1   0.0000
   186 C70      -0.2206    2.9239    7.0262   C.3       1 RES1   0.0000
   187 C71      -1.6273    3.5304    7.1275   C.3       1 RES1   0.0000
   188 C72      -1.6662    4.9745    7.6314   C.3       1 RES1   0.0000
   189 C73      -1.1758    5.9885    6.5942   C.3       1 RES1   0.0000
   190 C74      -1.5884    7.4041    6.9957   C.3       1 RES1   0.0000
   191 C75      -1.0366    8.5489    6.1347   C.3       1 RES1   0.0000
   192 C76      -1.7298    8.7995    4.7822   C.3       1 RES1   0.0000
   193 C77      -0.9772    8.2639    3.5496   C.3       1 RES1   0.0000
   194 C78      -1.7291    7.1715    2.7929   C.3       1 RES1   0.0000
   195 C79       1.1251    1.0801    2.6712   C.2       1 RES1   0.0000
   196 O5        1.2848    0.5012    1.5662   O.2       1 RES1   0.0000
   197 C80      -0.2498    1.6938    2.9412   C.3       1 RES1   0.0000
   198 O6       -1.0509    1.5937    1.7649   O.3       1 RES1   0.0000
   199 C81      -1.6597    2.7931    1.2720   C.3       1 RES1   0.0000
   200 C82      -1.1237    3.0836   -0.1417   C.3       1 RES1   0.0000
   201 O7       -1.1122    1.8433   -0.8510   O.3       1 RES1   0.0000
   202 C83      -1.6977    1.8398   -2.1536   C.3       1 RES1   0.0000
   203 C84      -1.9912    0.3650   -2.4628   C.2       1 RES1   0.0000
   204 O8       -1.5775   -0.4914   -1.6435   O.2       1 RES1   0.0000
   205 N4       -2.7491    0.0371   -3.4912   N.am      1 RES1   0.0000
   206 C85      -2.9856    0.8601   -4.6691   C.3       1 RES1   0.0000
   207 C86      -2.4231    0.1881   -5.9289   C.3       1 RES1   0.0000
   208 C87      -0.9091   -0.0339   -5.8424   C.3       1 RES1   0.0000
   209 C88      -0.0955    1.0844   -6.4991   C.3       1 RES1   0.0000
   210 C89      -0.2240    1.1475   -8.0266   C.3       1 RES1   0.0000
   211 C90       0.2503   -0.1106   -8.7714   C.3       1 RES1   0.0000
   212 C91      -0.8836   -1.0675   -9.1550   C.3       1 RES1   0.0000
   213 C92      -0.4183   -2.3123   -9.9260   C.3       1 RES1   0.0000
   214 C93      -0.0737   -3.5274   -9.0564   C.3       1 RES1   0.0000
   215 C94       1.1394   -3.3897   -8.1339   C.3       1 RES1   0.0000
   216 C95       2.4458   -3.1536   -8.8882   C.3       1 RES1   0.0000
   217 C96       3.6350   -2.9672   -7.9536   C.3       1 RES1   0.0000
   218 C97      -3.2542   -1.3362   -3.5140   C.3       1 RES1   0.0000
   219 C98      -4.7167   -1.4808   -3.9437   C.3       1 RES1   0.0000
   220 C99      -5.7728   -0.5807   -3.2592   C.3       1 RES1   0.0000
   221 C100     -5.2929    0.3343   -2.1293   C.3       1 RES1   0.0000
   222 C101     -6.4665    0.8457   -1.2824   C.3       1 RES1   0.0000
   223 C102     -6.1526    2.1908   -0.6098   C.3       1 RES1   0.0000
   224 C103     -6.6786    3.3756   -1.4222   C.3       1 RES1   0.0000
   225 C104     -6.1341    3.4452   -2.8442   C.3       1 RES1   0.0000
   226 C105     -6.8522    4.4980   -3.6832   C.3       1 RES1   0.0000
   227 C106     -6.4893    4.4381   -5.1694   C.3       1 RES1   0.0000
   228 C107     -6.7878    3.1032   -5.8631   C.3       1 RES1   0.0000
   229 C108     -8.2370    2.6506   -5.7205   C.3       1 RES1   0.0000
   230 H109      6.7329    0.8759   -6.3798   H         1 RES1   0.0000
   231 H110      5.9788    0.6234   -4.8041   H         1 RES1   0.0000
   232 H111      6.3155   -0.7541   -5.8742   H         1 RES1   0.0000
   233 H112      8.5356    1.0390   -4.8004   H         1 RES1   0.0000
   234 H113      8.6865   -0.5137   -5.6048   H         1 RES1   0.0000
   235 H114      9.0392   -1.1465   -3.4222   H         1 RES1   0.0000
   236 H115      7.3049   -1.4123   -3.5052   H         1 RES1   0.0000
   237 H116      6.8913    0.6912   -2.2896   H         1 RES1   0.0000
   238 H117      8.5506    1.2033   -2.5788   H         1 RES1   0.0000
   239 H118      8.6054    0.6586   -0.3761   H         1 RES1   0.0000
   240 H119      9.3301   -0.7393   -1.1438   H         1 RES1   0.0000
   241 H120      7.6870   -2.1632   -0.3616   H         1 RES1   0.0000
   242 H121      6.3909   -1.0024   -0.6305   H         1 RES1   0.0000
   243 H122      7.1072    0.2740    1.3794   H         1 RES1   0.0000
   244 H123      8.4556   -0.8353    1.6071   H         1 RES1   0.0000
   245 H124      6.7768   -1.4101    3.1827   H         1 RES1   0.0000
   246 H125      6.8660   -2.7045    2.0015   H         1 RES1   0.0000
   247 H126      4.7219   -2.3733    1.2788   H         1 RES1   0.0000
   248 H127      4.8501   -0.6220    1.3407   H         1 RES1   0.0000
   249 H128      4.6486   -2.3178    3.8528   H         1 RES1   0.0000
   250 H129      3.2000   -1.8532    2.9731   H         1 RES1   0.0000
   251 H130      5.1930    0.0905    4.1829   H         1 RES1   0.0000
   252 H131      3.6728   -0.3997    4.9240   H         1 RES1   0.0000
   253 H132      3.4228    0.6481    2.1468   H         1 RES1   0.0000
   254 H133      4.0097    1.8308    3.3262   H         1 RES1   0.0000
   255 H134      1.3016    2.7421    4.7426   H         1 RES1   0.0000
   256 H135      2.7956    2.0268    5.3305   H         1 RES1   0.0000
   257 H136      1.6239    0.6825    6.7443   H         1 RES1   0.0000
   258 H137      0.7812   -0.0333    5.3815   H         1 RES1   0.0000
   259 H138     -0.7600    0.8527    7.0675   H         1 RES1   0.0000
   260 H139     -0.9954    1.6389    5.5230   H         1 RES1   0.0000
   261 H140      0.4182    3.6013    6.4594   H         1 RES1   0.0000
   262 H141      0.2082    2.8294    8.0241   H         1 RES1   0.0000
   263 H142     -2.2305    2.9064    7.7888   H         1 RES1   0.0000
   264 H143     -2.1037    3.5086    6.1391   H         1 RES1   0.0000
   265 H144     -1.0789    5.0636    8.5456   H         1 RES1   0.0000
   266 H145     -2.7007    5.2130    7.8852   H         1 RES1   0.0000
   267 H146     -1.6093    5.7433    5.6211   H         1 RES1   0.0000
   268 H147     -0.0899    5.9356    6.5131   H         1 RES1   0.0000
   269 H148     -1.2447    7.5615    8.0220   H         1 RES1   0.0000
   270 H149     -2.6800    7.4637    7.0103   H         1 RES1   0.0000
   271 H150      0.0339    8.4005    5.9755   H         1 RES1   0.0000
   272 H151     -1.1387    9.4552    6.7332   H         1 RES1   0.0000
   273 H152     -1.8497    9.8777    4.6661   H         1 RES1   0.0000
   274 H153     -2.7357    8.3804    4.8030   H         1 RES1   0.0000
   275 H154     -0.0067    7.8833    3.8670   H         1 RES1   0.0000
   276 H155     -0.7830    9.0848    2.8589   H         1 RES1   0.0000
   277 H156     -1.9348    6.3220    3.4419   H         1 RES1   0.0000
   278 H157     -1.1421    6.8239    1.9404   H         1 RES1   0.0000
   279 H158     -2.6731    7.5522    2.4143   H         1 RES1   0.0000
   280 H159     -0.1461    2.7366    3.2570   H         1 RES1   0.0000
   281 H160     -0.7480    1.1175    3.7307   H         1 RES1   0.0000
   282 H161     -1.4657    3.6495    1.9269   H         1 RES1   0.0000
   283 H162     -2.7391    2.5995    1.2316   H         1 RES1   0.0000
   284 H163     -0.0960    3.4696   -0.0815   H         1 RES1   0.0000
   285 H164     -1.7584    3.8266   -0.6341   H         1 RES1   0.0000
   286 H165     -1.0086    2.2906   -2.8833   H         1 RES1   0.0000
   287 H166     -2.6501    2.3903   -2.1435   H         1 RES1   0.0000
   288 H167     -2.5042    1.8314   -4.5401   H         1 RES1   0.0000
   289 H168     -4.0619    1.0194   -4.7873   H         1 RES1   0.0000
   290 H169     -2.6556    0.8283   -6.7803   H         1 RES1   0.0000
   291 H170     -2.9388   -0.7558   -6.1045   H         1 RES1   0.0000
   292 H171     -0.6483   -0.9745   -6.3226   H         1 RES1   0.0000
   293 H172     -0.6178   -0.1149   -4.7903   H         1 RES1   0.0000
   294 H173      0.9583    0.9344   -6.2438   H         1 RES1   0.0000
   295 H174     -0.3916    2.0536   -6.0821   H         1 RES1   0.0000
   296 H175      0.3736    2.0001   -8.3542   H         1 RES1   0.0000
   297 H176     -1.2575    1.3593   -8.3048   H         1 RES1   0.0000
   298 H177      1.0007   -0.6291   -8.1749   H         1 RES1   0.0000
   299 H178      0.7394    0.2065   -9.6929   H         1 RES1   0.0000
   300 H179     -1.5835   -0.5142   -9.7859   H         1 RES1   0.0000
   301 H180     -1.4331   -1.3892   -8.2672   H         1 RES1   0.0000
   302 H181      0.4260   -2.0542  -10.5661   H         1 RES1   0.0000
   303 H182     -1.2305   -2.6240  -10.5874   H         1 RES1   0.0000
   304 H183      0.1011   -4.3730   -9.7247   H         1 RES1   0.0000
   305 H184     -0.9502   -3.7722   -8.4476   H         1 RES1   0.0000
   306 H185      1.2265   -4.3144   -7.5577   H         1 RES1   0.0000
   307 H186      0.9724   -2.5814   -7.4177   H         1 RES1   0.0000
   308 H187      2.3547   -2.2667   -9.5139   H         1 RES1   0.0000
   309 H188      2.6338   -4.0031   -9.5448   H         1 RES1   0.0000
   310 H189      3.4739   -2.1185   -7.2888   H         1 RES1   0.0000
   311 H190      4.5375   -2.7783   -8.5278   H         1 RES1   0.0000
   312 H191      3.7986   -3.8591   -7.3520   H         1 RES1   0.0000
   313 H192     -3.1231   -1.7256   -2.5045   H         1 RES1   0.0000
   314 H193     -2.6303   -1.9397   -4.1780   H         1 RES1   0.0000
   315 H194     -4.9610   -2.5246   -3.7292   H         1 RES1   0.0000
   316 H195     -4.7992   -1.3557   -5.0237   H         1 RES1   0.0000
   317 H196     -6.5665   -1.2255   -2.8834   H         1 RES1   0.0000
   318 H197     -6.2352    0.0552   -4.0178   H         1 RES1   0.0000
   319 H198     -4.7855    1.1947   -2.5655   H         1 RES1   0.0000
   320 H199     -4.5737   -0.1694   -1.4810   H         1 RES1   0.0000
   321 H200     -6.7247    0.0943   -0.5319   H         1 RES1   0.0000
   322 H201     -7.3432    0.9702   -1.9175   H         1 RES1   0.0000
   323 H202     -5.0694    2.2793   -0.4605   H         1 RES1   0.0000
   324 H203     -6.6203    2.2255    0.3755   H         1 RES1   0.0000
   325 H204     -6.4479    4.2997   -0.8942   H         1 RES1   0.0000
   326 H205     -7.7631    3.2875   -1.4663   H         1 RES1   0.0000
   327 H206     -6.2814    2.4833   -3.3271   H         1 RES1   0.0000
   328 H207     -5.0596    3.6610   -2.8239   H         1 RES1   0.0000
   329 H208     -6.6116    5.4937   -3.3088   H         1 RES1   0.0000
   330 H209     -7.9285    4.3615   -3.5768   H         1 RES1   0.0000
   331 H210     -5.4266    4.6648   -5.2981   H         1 RES1   0.0000
   332 H211     -7.0510    5.2191   -5.6842   H         1 RES1   0.0000
   333 H212     -6.1182    2.3218   -5.4837   H         1 RES1   0.0000
   334 H213     -6.5613    3.2247   -6.9256   H         1 RES1   0.0000
   335 H214     -8.4898    2.4421   -4.6835   H         1 RES1   0.0000
   336 H215     -8.4067    1.7464   -6.2994   H         1 RES1   0.0000
   337 H216     -8.9099    3.4184   -6.0901   H         1 RES1   0.0000
@<TRIPOS>BOND
     1     1    28    1
     2     1    30    1
     3     1    33    1
     4     1    36    1
     5     1   196    1
     6     1   198    1
     7     1   201    1
     8     1   204    1
     9     2     3    1
    10     2    62    1
    11     2    63    1
    12     2    64    1
    13     3     4    1
    14     3    65    1
    15     3    66    1
    16     4     5    1
    17     4    67    1
    18     4    68    1
    19     5     6    1
    20     5    69    1
    21     5    70    1
    22     6     7    1
    23     6    71    1
    24     6    72    1
    25     7     8    1
    26     7    73    1
    27     7    74    1
    28     8     9    1
    29     8    75    1
    30     8    76    1
    31     9    10    1
    32     9    77    1
    33     9    78    1
    34    10    11    1
    35    10    79    1
    36    10    80    1
    37    11    12    1
    38    11    81    1
    39    11    82    1
    40    12    13    1
    41    12    83    1
    42    12    84    1
    43    13    14    1
    44    13    85    1
    45    13    86    1
    46    14    15    1
    47    14    27    1
    48    15    16    1
    49    15    87    1
    50    15    88    1
    51    16    17    1
    52    16    89    1
    53    16    90    1
    54    17    18    1
    55    17    91    1
    56    17    92    1
    57    18    19    1
    58    18    93    1
    59    18    94    1
    60    19    20    1
    61    19    95    1
    62    19    96    1
    63    20    21    1
    64    20    97    1
    65    20    98    1
    66    21    22    1
    67    21    99    1
    68    21   100    1
    69    22    23    1
    70    22   101    1
    71    22   102    1
    72    23    24    1
    73    23   103    1
    74    23   104    1
    75    24    25    1
    76    24   105    1
    77    24   106    1
    78    25    26    1
    79    25   107    1
    80    25   108    1
    81    26   109    1
    82    26   110    1
    83    26   111    1
    84    27    28    2
    85    27    29    1
    86    29    30    1
    87    29   112    1
    88    29   113    1
    89    30    31    1
    90    31    32    1
    91    31   114    1
    92    31   115    1
    93    32    33    1
    94    32   116    1
    95    32   117    1
    96    33    34    1
    97    34    35    1
    98    34   118    1
    99    34   119    1
   100    35    36    2
   101    35    37    1
   102    37    38    1
   103    37    50    1
   104    38    39    1
   105    38   120    1
   106    38   121    1
   107    39    40    1
   108    39   122    1
   109    39   123    1
   110    40    41    1
   111    40   124    1
   112    40   125    1
   113    41    42    1
   114    41   126    1
   115    41   127    1
   116    42    43    1
   117    42   128    1
   118    42   129    1
   119    43    44    1
   120    43   130    1
   121    43   131    1
   122    44    45    1
   123    44   132    1
   124    44   133    1
   125    45    46    1
   126    45   134    1
   127    45   135    1
   128    46    47    1
   129    46   136    1
   130    46   137    1
   131    47    48    1
   132    47   138    1
   133    47   139    1
   134    48    49    1
   135    48   140    1
   136    48   141    1
   137    49   142    1
   138    49   143    1
   139    49   144    1
   140    50    51    1
   141    50   145    1
   142    50   146    1
   143    51    52    1
   144    51   147    1
   145    51   148    1
   146    52    53    1
   147    52   149    1
   148    52   150    1
   149    53    54    1
   150    53   151    1
   151    53   152    1
   152    54    55    1
   153    54   153    1
   154    54   154    1
   155    55    56    1
   156    55   155    1
   157    55   156    1
   158    56    57    1
   159    56   157    1
   160    56   158    1
   161    57    58    1
   162    57   159    1
   163    57   160    1
   164    58    59    1
   165    58   161    1
   166    58   162    1
   167    59    60    1
   168    59   163    1
   169    59   164    1
   170    60    61    1
   171    60   165    1
   172    60   166    1
   173    61   167    1
   174    61   168    1
   175    61   169    1
   176   170   171    1
   177   170   230    1
   178   170   231    1
   179   170   232    1
   180   171   172    1
   181   171   233    1
   182   171   234    1
   183   172   173    1
   184   172   235    1
   185   172   236    1
   186   173   174    1
   187   173   237    1
   188   173   238    1
   189   174   175    1
   190   174   239    1
   191   174   240    1
   192   175   176    1
   193   175   241    1
   194   175   242    1
   195   176   177    1
   196   176   243    1
   197   176   244    1
   198   177   178    1
   199   177   245    1
   200   177   246    1
   201   178   179    1
   202   178   247    1
   203   178   248    1
   204   179   180    1
   205   179   249    1
   206   179   250    1
   207   180   181    1
   208   180   251    1
   209   180   252    1
   210   181   182    1
   211   181   253    1
   212   181   254    1
   213   182   183    1
   214   182   195    1
   215   183   184    1
   216   183   255    1
   217   183   256    1
   218   184   185    1
   219   184   257    1
   220   184   258    1
   221   185   186    1
   222   185   259    1
   223   185   260    1
   224   186   187    1
   225   186   261    1
   226   186   262    1
   227   187   188    1
   228   187   263    1
   229   187   264    1
   230   188   189    1
   231   188   265    1
   232   188   266    1
   233   189   190    1
   234   189   267    1
   235   189   268    1
   236   190   191    1
   237   190   269    1
   238   190   270    1
   239   191   192    1
   240   191   271    1
   241   191   272    1
   242   192   193    1
   243   192   273    1
   244   192   274    1
   245   193   194    1
   246   193   275    1
   247   193   276    1
   248   194   277    1
   249   194   278    1
   250   194   279    1
   251   195   196    2
   252   195   197    1
   253   197   198    1
   254   197   280    1
   255   197   281    1
   256   198   199    1
   257   199   200    1
   258   199   282    1
   259   199   283    1
   260   200   201    1
   261   200   284    1
   262   200   285    1
   263   201   202    1
   264   202   203    1
   265   202   286    1
   266   202   287    1
   267   203   204    2
   268   203   205    1
   269   205   206    1
   270   205   218    1
   271   206   207    1
   272   206   288    1
   273   206   289    1
   274   207   208    1
   275   207   290    1
   276   207   291    1
   277   208   209    1
   278   208   292    1
   279   208   293    1
   280   209   210    1
   281   209   294    1
   282   209   295    1
   283   210   211    1
   284   210   296    1
   285   210   297    1
   286   211   212    1
   287   211   298    1
   288   211   299    1
   289   212   213    1
   290   212   300    1
   291   212   301    1
   292   213   214    1
   293   213   302    1
   294   213   303    1
   295   214   215    1
   296   214   304    1
   297   214   305    1
   298   215   216    1
   299   215   306    1
   300   215   307    1
   301   216   217    1
   302   216   308    1
   303   216   309    1
   304   217   310    1
   305   217   311    1
   306   217   312    1
   307   218   219    1
   308   218   313    1
   309   218   314    1
   310   219   220    1
   311   219   315    1
   312   219   316    1
   313   220   221    1
   314   220   317    1
   315   220   318    1
   316   221   222    1
   317   221   319    1
   318   221   320    1
   319   222   223    1
   320   222   321    1
   321   222   322    1
   322   223   224    1
   323   223   323    1
   324   223   324    1
   325   224   225    1
   326   224   325    1
   327   224   326    1
   328   225   226    1
   329   225   327    1
   330   225   328    1
   331   226   227    1
   332   226   329    1
   333   226   330    1
   334   227   228    1
   335   227   331    1
   336   227   332    1
   337   228   229    1
   338   228   333    1
   339   228   334    1
   340   229   335    1
   341   229   336    1
   342   229   337    1
@<TRIPOS>SUBSTRUCTURE
     1 RES1      337 GROUP             0 ****  ****    0  
