@<TRIPOS>MOLECULE
YEMSEP_geometry_0_nunpairedes_0_charge_2 Charge: 2 Unpaired_Electrons: 6 XTB_Unpaired_Electrons: 0 XTB_Charge: 2
   131   143     1     0     0
SMALL
NoCharges
****
Generated from Architector

@<TRIPOS>ATOM
     1 Tb1      -0.4133   -0.0586   -0.1779   Tb        1 RES1   0.0000
     2 C1        7.0279    3.9527    3.2137   C.3       1 RES1   0.0000
     3 C2        7.5637    2.6410    3.7780   C.3       1 RES1   0.0000
     4 C3        8.3464    1.8230    2.7397   C.3       1 RES1   0.0000
     5 C4        8.3066    0.2996    2.9934   C.3       1 RES1   0.0000
     6 C5        7.6796   -0.4971    1.8301   C.3       1 RES1   0.0000
     7 C6        6.3691   -1.2114    2.2006   C.3       1 RES1   0.0000
     8 C7        5.5761   -1.5493    0.9326   C.3       1 RES1   0.0000
     9 C8        4.2318   -2.2561    1.1732   C.3       1 RES1   0.0000
    10 N1        3.5277   -2.4487   -0.1064   N.am      1 RES1   0.0000
    11 C9        2.2516   -2.1444   -0.3202   C.2       1 RES1   0.0000
    12 O1        1.4978   -1.6439    0.5371   O.2       1 RES1   0.0000
    13 C10       1.6988   -2.3167   -1.7153   C.ar      1 RES1   0.0000
    14 C11       2.0015   -3.3418   -2.6283   C.ar      1 RES1   0.0000
    15 C12       1.5515   -3.2244   -3.9239   C.ar      1 RES1   0.0000
    16 C13       0.8006   -2.1031   -4.3111   C.ar      1 RES1   0.0000
    17 C14       0.4437   -1.8098   -5.6589   C.ar      1 RES1   0.0000
    18 C15      -0.3358   -0.7399   -5.9500   C.ar      1 RES1   0.0000
    19 C16      -0.8183    0.1193   -4.9224   C.ar      1 RES1   0.0000
    20 C17      -1.6128    1.2470   -5.1925   C.ar      1 RES1   0.0000
    21 C18      -1.9365    2.0900   -4.1589   C.ar      1 RES1   0.0000
    22 C19      -1.5175    1.7818   -2.8632   C.ar      1 RES1   0.0000
    23 N2       -0.8196    0.6973   -2.5651   N.ar      1 RES1   0.0000
    24 C20      -0.4586   -0.1191   -3.5803   C.ar      1 RES1   0.0000
    25 C21       0.3919   -1.2341   -3.2745   C.ar      1 RES1   0.0000
    26 N3        0.8373   -1.3494   -2.0093   N.ar      1 RES1   0.0000
    27 C22       4.3692   -2.8460   -1.1922   C.ar      1 RES1   0.0000
    28 C23       4.8734   -4.1366   -1.2468   C.ar      1 RES1   0.0000
    29 C24       5.7470   -4.4847   -2.2578   C.ar      1 RES1   0.0000
    30 C25       6.1319   -3.5517   -3.2150   C.ar      1 RES1   0.0000
    31 C26       7.1120   -3.8910   -4.2856   C.3       1 RES1   0.0000
    32 C27       5.5735   -2.2746   -3.1753   C.ar      1 RES1   0.0000
    33 C28       4.6994   -1.9157   -2.1699   C.ar      1 RES1   0.0000
    34 H1        6.3953    4.4640    3.9361   H         1 RES1   0.0000
    35 H2        6.4311    3.7813    2.3197   H         1 RES1   0.0000
    36 H3        7.8438    4.6130    2.9363   H         1 RES1   0.0000
    37 H4        6.7271    2.0414    4.1381   H         1 RES1   0.0000
    38 H5        8.2038    2.8536    4.6344   H         1 RES1   0.0000
    39 H6        9.3773    2.1720    2.7279   H         1 RES1   0.0000
    40 H7        7.9354    2.0434    1.7501   H         1 RES1   0.0000
    41 H8        7.7211    0.1158    3.9002   H         1 RES1   0.0000
    42 H9        9.3185   -0.0525    3.2030   H         1 RES1   0.0000
    43 H10       8.3911   -1.2283    1.4483   H         1 RES1   0.0000
    44 H11       7.4814    0.1829    1.0011   H         1 RES1   0.0000
    45 H12       5.7527   -0.5800    2.8438   H         1 RES1   0.0000
    46 H13       6.5999   -2.1205    2.7546   H         1 RES1   0.0000
    47 H14       6.2056   -2.1659    0.2896   H         1 RES1   0.0000
    48 H15       5.3665   -0.6260    0.3826   H         1 RES1   0.0000
    49 H16       3.6085   -1.6505    1.8349   H         1 RES1   0.0000
    50 H17       4.3765   -3.2322    1.6527   H         1 RES1   0.0000
    51 H18       2.5741   -4.2011   -2.3229   H         1 RES1   0.0000
    52 H19       1.7875   -3.9721   -4.6620   H         1 RES1   0.0000
    53 H20       0.8360   -2.4400   -6.4430   H         1 RES1   0.0000
    54 H21      -0.5788   -0.4789   -6.9684   H         1 RES1   0.0000
    55 H22      -1.9458    1.4468   -6.1998   H         1 RES1   0.0000
    56 H23      -2.4931    2.9929   -4.3332   H         1 RES1   0.0000
    57 H24      -1.7298    2.4495   -2.0377   H         1 RES1   0.0000
    58 H25       4.5827   -4.8535   -0.4956   H         1 RES1   0.0000
    59 H26       6.1453   -5.4866   -2.2930   H         1 RES1   0.0000
    60 H27       7.6376   -4.8132   -4.0551   H         1 RES1   0.0000
    61 H28       7.8342   -3.0848   -4.4035   H         1 RES1   0.0000
    62 H29       6.5885   -4.0102   -5.2345   H         1 RES1   0.0000
    63 H30       5.8448   -1.5482   -3.9274   H         1 RES1   0.0000
    64 H31       4.2926   -0.9140   -2.1139   H         1 RES1   0.0000
    65 C29      -4.8105    0.3306   -3.0594   C.3       1 RES1   0.0000
    66 C30      -5.8921   -0.4481   -2.3187   C.3       1 RES1   0.0000
    67 C31      -5.6436   -0.4889   -0.8092   C.3       1 RES1   0.0000
    68 C32      -6.7231   -1.2869   -0.0779   C.3       1 RES1   0.0000
    69 C33      -6.7085   -1.1571    1.4467   C.3       1 RES1   0.0000
    70 C34      -5.6657   -2.0032    2.1897   C.3       1 RES1   0.0000
    71 C35      -4.3739   -1.2305    2.4543   C.3       1 RES1   0.0000
    72 C36      -3.3435   -2.0407    3.2475   C.3       1 RES1   0.0000
    73 N4       -2.1792   -1.2222    3.5931   N.am      1 RES1   0.0000
    74 C37      -1.2764   -0.9243    2.6752   C.2       1 RES1   0.0000
    75 O2       -1.3900   -1.2917    1.4773   O.2       1 RES1   0.0000
    76 C38       0.0181   -0.2179    3.0214   C.ar      1 RES1   0.0000
    77 C39       0.7727   -0.3870    4.1984   C.ar      1 RES1   0.0000
    78 C40       2.0364    0.1490    4.2629   C.ar      1 RES1   0.0000
    79 C41       2.6033    0.7616    3.1305   C.ar      1 RES1   0.0000
    80 C42       3.9664    1.1574    3.0703   C.ar      1 RES1   0.0000
    81 C43       4.4958    1.6316    1.9176   C.ar      1 RES1   0.0000
    82 C44       3.7003    1.7913    0.7467   C.ar      1 RES1   0.0000
    83 C45       4.2089    2.3383   -0.4463   C.ar      1 RES1   0.0000
    84 C46       3.3801    2.4699   -1.5352   C.ar      1 RES1   0.0000
    85 C47       2.0788    1.9658   -1.4582   C.ar      1 RES1   0.0000
    86 N5        1.5820    1.4080   -0.3631   N.ar      1 RES1   0.0000
    87 C48       2.3516    1.3734    0.7495   C.ar      1 RES1   0.0000
    88 C49       1.7918    0.8591    1.9788   C.ar      1 RES1   0.0000
    89 N6        0.5184    0.4257    1.9690   N.ar      1 RES1   0.0000
    90 C50      -2.0758   -0.7389    4.9243   C.ar      1 RES1   0.0000
    91 C51      -1.9807   -1.6576    5.9627   C.ar      1 RES1   0.0000
    92 C52      -1.7991   -1.2034    7.2532   C.ar      1 RES1   0.0000
    93 C53      -1.7060    0.1583    7.5311   C.ar      1 RES1   0.0000
    94 C54      -1.4158    0.6273    8.9205   C.3       1 RES1   0.0000
    95 C55      -1.8593    1.0631    6.4831   C.ar      1 RES1   0.0000
    96 C56      -2.0381    0.6276    5.1827   C.ar      1 RES1   0.0000
    97 H32      -4.9721    0.2831   -4.1328   H         1 RES1   0.0000
    98 H33      -3.8237   -0.0723   -2.8302   H         1 RES1   0.0000
    99 H34      -4.8248    1.3768   -2.7681   H         1 RES1   0.0000
   100 H35      -5.9346   -1.4667   -2.7102   H         1 RES1   0.0000
   101 H36      -6.8618    0.0128   -2.5147   H         1 RES1   0.0000
   102 H37      -5.6343    0.5337   -0.4230   H         1 RES1   0.0000
   103 H38      -4.6544   -0.9173   -0.6344   H         1 RES1   0.0000
   104 H39      -6.6559   -2.3387   -0.3612   H         1 RES1   0.0000
   105 H40      -7.6929   -0.9265   -0.4259   H         1 RES1   0.0000
   106 H41      -7.6917   -1.4596    1.8031   H         1 RES1   0.0000
   107 H42      -6.5742   -0.1080    1.7143   H         1 RES1   0.0000
   108 H43      -5.4580   -2.9190    1.6361   H         1 RES1   0.0000
   109 H44      -6.0837   -2.3009    3.1538   H         1 RES1   0.0000
   110 H45      -4.6233   -0.3470    3.0456   H         1 RES1   0.0000
   111 H46      -3.9186   -0.9062    1.5195   H         1 RES1   0.0000
   112 H47      -2.9959   -2.9136    2.6858   H         1 RES1   0.0000
   113 H48      -3.7907   -2.3734    4.1856   H         1 RES1   0.0000
   114 H49       0.4091   -0.9690    5.0289   H         1 RES1   0.0000
   115 H50       2.6358    0.0478    5.1571   H         1 RES1   0.0000
   116 H51       4.5640    1.0205    3.9605   H         1 RES1   0.0000
   117 H52       5.5393    1.8934    1.8714   H         1 RES1   0.0000
   118 H53       5.2362    2.6689   -0.5008   H         1 RES1   0.0000
   119 H54       3.7270    2.9449   -2.4410   H         1 RES1   0.0000
   120 H55       1.4226    2.0156   -2.3263   H         1 RES1   0.0000
   121 H56      -2.0264   -2.7176    5.7590   H         1 RES1   0.0000
   122 H57      -1.7397   -1.9095    8.0646   H         1 RES1   0.0000
   123 H58      -1.6721   -0.1344    9.6529   H         1 RES1   0.0000
   124 H59      -1.9566    1.5426    9.1463   H         1 RES1   0.0000
   125 H60      -0.3517    0.8492    9.0206   H         1 RES1   0.0000
   126 H61      -1.8545    2.1212    6.6995   H         1 RES1   0.0000
   127 H62      -2.1676    1.3260    4.3689   H         1 RES1   0.0000
   128 N7       -2.1670    1.1653    0.5161   N.3       1 RES1   0.0000
   129 O3       -2.6269    1.2857    1.6086   O.2       1 RES1   0.0000
   130 O4       -2.5139    0.2598   -0.2503   O.co2     1 RES1   0.0000
   131 O5       -1.2520    1.9041    0.1204   O.co2     1 RES1   0.0000
@<TRIPOS>BOND
     1     1    12    1
     2     1    23    1
     3     1    26    1
     4     1    75    1
     5     1    86    1
     6     1    89    1
     7     1   130    1
     8     1   131    1
     9     2     3    1
    10     2    34    1
    11     2    35    1
    12     2    36    1
    13     3     4    1
    14     3    37    1
    15     3    38    1
    16     4     5    1
    17     4    39    1
    18     4    40    1
    19     5     6    1
    20     5    41    1
    21     5    42    1
    22     6     7    1
    23     6    43    1
    24     6    44    1
    25     7     8    1
    26     7    45    1
    27     7    46    1
    28     8     9    1
    29     8    47    1
    30     8    48    1
    31     9    10    1
    32     9    49    1
    33     9    50    1
    34    10    11    1
    35    10    27    1
    36    11    12    2
    37    11    13    1
    38    13    14    1
    39    13    26    2
    40    14    15    2
    41    14    51    1
    42    15    16    1
    43    15    52    1
    44    16    17    1
    45    16    25    2
    46    17    18    2
    47    17    53    1
    48    18    19    1
    49    18    54    1
    50    19    20    1
    51    19    24    2
    52    20    21    2
    53    20    55    1
    54    21    22    1
    55    21    56    1
    56    22    23    2
    57    22    57    1
    58    23    24    1
    59    24    25    1
    60    25    26    1
    61    27    28    1
    62    27    33    2
    63    28    29    2
    64    28    58    1
    65    29    30    1
    66    29    59    1
    67    30    31    1
    68    30    32    2
    69    31    60    1
    70    31    61    1
    71    31    62    1
    72    32    33    1
    73    32    63    1
    74    33    64    1
    75    65    66    1
    76    65    97    1
    77    65    98    1
    78    65    99    1
    79    66    67    1
    80    66   100    1
    81    66   101    1
    82    67    68    1
    83    67   102    1
    84    67   103    1
    85    68    69    1
    86    68   104    1
    87    68   105    1
    88    69    70    1
    89    69   106    1
    90    69   107    1
    91    70    71    1
    92    70   108    1
    93    70   109    1
    94    71    72    1
    95    71   110    1
    96    71   111    1
    97    72    73    1
    98    72   112    1
    99    72   113    1
   100    73    74    1
   101    73    90    1
   102    74    75    2
   103    74    76    1
   104    76    77    1
   105    76    89    2
   106    77    78    2
   107    77   114    1
   108    78    79    1
   109    78   115    1
   110    79    80    1
   111    79    88    2
   112    80    81    2
   113    80   116    1
   114    81    82    1
   115    81   117    1
   116    82    83    1
   117    82    87    2
   118    83    84    2
   119    83   118    1
   120    84    85    1
   121    84   119    1
   122    85    86    2
   123    85   120    1
   124    86    87    1
   125    87    88    1
   126    88    89    1
   127    90    91    1
   128    90    96    2
   129    91    92    2
   130    91   121    1
   131    92    93    1
   132    92   122    1
   133    93    94    1
   134    93    95    2
   135    94   123    1
   136    94   124    1
   137    94   125    1
   138    95    96    1
   139    95   126    1
   140    96   127    1
   141   128   129    2
   142   128   130    1
   143   128   131    1
@<TRIPOS>SUBSTRUCTURE
     1 RES1      131 GROUP             0 ****  ****    0  
