@<TRIPOS>MOLECULE
ICIGOT_geomtry_0_nunpairedes_0_charge_3 Charge: 3 Unpaired_Electrons: 6 XTB_Unpaired_Electrons: 0 XTB_Charge: 3
   193   206     1     0     0
SMALL
NoCharges
****
Generated from Architector

@<TRIPOS>ATOM
     1 Tb1       0.0086   -0.2574    0.1608   Tb        1 RES1   0.0000
     2 C1       -3.5011   -1.0704   -5.1450   C.3       1 RES1   0.0000
     3 C2       -4.4259   -2.1920   -4.6833   C.3       1 RES1   0.0000
     4 C3       -5.4911   -1.6761   -3.7145   C.3       1 RES1   0.0000
     5 C4       -6.5840   -2.7104   -3.4489   C.3       1 RES1   0.0000
     6 C5       -7.7560   -2.1617   -2.6338   C.3       1 RES1   0.0000
     7 C6       -7.5715   -2.2269   -1.1082   C.3       1 RES1   0.0000
     8 C7       -6.5523   -1.2897   -0.5410   C.ar      1 RES1   0.0000
     9 C8       -6.7333    0.0887   -0.6086   C.ar      1 RES1   0.0000
    10 C9       -5.8532    0.9687   -0.0026   C.ar      1 RES1   0.0000
    11 C10      -4.7369    0.4915    0.6810   C.ar      1 RES1   0.0000
    12 N1       -3.8617    1.3212    1.4466   N.am      1 RES1   0.0000
    13 C11      -4.4044    2.5820    1.9406   C.3       1 RES1   0.0000
    14 C12      -4.1260    3.7098    0.9540   C.3       1 RES1   0.0000
    15 C13      -2.5425    1.0441    1.4114   C.2       1 RES1   0.0000
    16 O1       -2.0387    0.5293    0.3808   O.2       1 RES1   0.0000
    17 C14      -1.6219    1.2398    2.5951   C.ar      1 RES1   0.0000
    18 C15      -1.9391    1.7021    3.8750   C.ar      1 RES1   0.0000
    19 C16      -0.9308    1.7928    4.8236   C.ar      1 RES1   0.0000
    20 C17       0.3637    1.4313    4.4974   C.ar      1 RES1   0.0000
    21 C18       0.5986    0.8951    3.2311   C.ar      1 RES1   0.0000
    22 C19       1.9334    0.4065    2.7961   C.ar      1 RES1   0.0000
    23 C20       3.1114    0.6659    3.4964   C.ar      1 RES1   0.0000
    24 C21       4.3052    0.1624    3.0028   C.ar      1 RES1   0.0000
    25 C22       4.3125   -0.5636    1.8213   C.ar      1 RES1   0.0000
    26 C23       3.0989   -0.7997    1.1821   C.ar      1 RES1   0.0000
    27 C24       2.8334   -1.7248    0.0312   C.2       1 RES1   0.0000
    28 O2        1.6143   -1.9147   -0.2356   O.2       1 RES1   0.0000
    29 N2        3.7626   -2.4455   -0.6024   N.am      1 RES1   0.0000
    30 C25       3.2523   -3.5836   -1.3801   C.3       1 RES1   0.0000
    31 C26       2.9004   -4.7645   -0.4832   C.3       1 RES1   0.0000
    32 C27       5.1425   -2.1708   -0.8054   C.ar      1 RES1   0.0000
    33 C28       6.0234   -3.2400   -0.9402   C.ar      1 RES1   0.0000
    34 C29       7.3161   -3.0441   -1.3716   C.ar      1 RES1   0.0000
    35 C30       7.8108   -1.7682   -1.6322   C.ar      1 RES1   0.0000
    36 C31       9.2435   -1.5902   -2.0227   C.3       1 RES1   0.0000
    37 C32      10.2208   -2.1867   -0.9906   C.3       1 RES1   0.0000
    38 C33      10.4055   -1.3452    0.2710   C.3       1 RES1   0.0000
    39 C34       9.1633   -1.2191    1.1498   C.3       1 RES1   0.0000
    40 C35       9.4760   -0.5137    2.4708   C.3       1 RES1   0.0000
    41 C36       8.2202   -0.2658    3.2993   C.3       1 RES1   0.0000
    42 C37       6.9268   -0.6986   -1.4908   C.ar      1 RES1   0.0000
    43 C38       5.6088   -0.8904   -1.1042   C.ar      1 RES1   0.0000
    44 N3        1.9427   -0.3205    1.6761   N.ar      1 RES1   0.0000
    45 N4       -0.3858    0.7875    2.3356   N.ar      1 RES1   0.0000
    46 C39      -4.5242   -0.8850    0.7180   C.ar      1 RES1   0.0000
    47 C40      -5.4168   -1.7553    0.1229   C.ar      1 RES1   0.0000
    48 H1       -2.7380   -1.4532   -5.8192   H         1 RES1   0.0000
    49 H2       -3.0131   -0.5948   -4.2921   H         1 RES1   0.0000
    50 H3       -4.0717   -0.3137   -5.6785   H         1 RES1   0.0000
    51 H4       -3.8420   -2.9824   -4.2019   H         1 RES1   0.0000
    52 H5       -4.9167   -2.6270   -5.5559   H         1 RES1   0.0000
    53 H6       -5.9551   -0.7918   -4.1572   H         1 RES1   0.0000
    54 H7       -5.0211   -1.3695   -2.7744   H         1 RES1   0.0000
    55 H8       -6.1679   -3.5863   -2.9462   H         1 RES1   0.0000
    56 H9       -6.9676   -3.0442   -4.4144   H         1 RES1   0.0000
    57 H10      -8.6413   -2.7548   -2.8675   H         1 RES1   0.0000
    58 H11      -7.9601   -1.1333   -2.9328   H         1 RES1   0.0000
    59 H12      -7.3324   -3.2522   -0.8220   H         1 RES1   0.0000
    60 H13      -8.5396   -1.9778   -0.6625   H         1 RES1   0.0000
    61 H14      -7.5873    0.4885   -1.1329   H         1 RES1   0.0000
    62 H15      -6.0585    2.0236   -0.0629   H         1 RES1   0.0000
    63 H16      -3.9534    2.8449    2.8947   H         1 RES1   0.0000
    64 H17      -5.4781    2.4633    2.0951   H         1 RES1   0.0000
    65 H18      -3.0581    3.8666    0.8316   H         1 RES1   0.0000
    66 H19      -4.5650    4.6280    1.3340   H         1 RES1   0.0000
    67 H20      -4.5552    3.5005   -0.0224   H         1 RES1   0.0000
    68 H21      -2.9433    1.9651    4.1584   H         1 RES1   0.0000
    69 H22      -1.1620    2.1363    5.8213   H         1 RES1   0.0000
    70 H23       1.1371    1.5273    5.2366   H         1 RES1   0.0000
    71 H24       3.0990    1.2553    4.3958   H         1 RES1   0.0000
    72 H25       5.2299    0.3442    3.5327   H         1 RES1   0.0000
    73 H26       5.2386   -0.9338    1.4100   H         1 RES1   0.0000
    74 H27       4.0209   -3.8553   -2.0982   H         1 RES1   0.0000
    75 H28       2.3631   -3.2420   -1.9186   H         1 RES1   0.0000
    76 H29       3.7678   -5.1263    0.0646   H         1 RES1   0.0000
    77 H30       2.5389   -5.5797   -1.1029   H         1 RES1   0.0000
    78 H31       2.1313   -4.4874    0.2343   H         1 RES1   0.0000
    79 H32       5.6995   -4.2393   -0.7105   H         1 RES1   0.0000
    80 H33       7.9386   -3.9086   -1.5266   H         1 RES1   0.0000
    81 H34       9.4744   -0.5339   -2.1685   H         1 RES1   0.0000
    82 H35       9.4142   -2.1050   -2.9737   H         1 RES1   0.0000
    83 H36      11.1972   -2.2757   -1.4689   H         1 RES1   0.0000
    84 H37       9.8975   -3.1925   -0.7156   H         1 RES1   0.0000
    85 H38      10.7470   -0.3492   -0.0117   H         1 RES1   0.0000
    86 H39      11.2005   -1.8011    0.8638   H         1 RES1   0.0000
    87 H40       8.7621   -2.2153    1.3564   H         1 RES1   0.0000
    88 H41       8.3911   -0.6537    0.6211   H         1 RES1   0.0000
    89 H42       9.9588    0.4419    2.2576   H         1 RES1   0.0000
    90 H43      10.1779   -1.1160    3.0494   H         1 RES1   0.0000
    91 H44       7.5405    0.3952    2.7617   H         1 RES1   0.0000
    92 H45       8.4804    0.2026    4.2447   H         1 RES1   0.0000
    93 H46       7.7077   -1.2035    3.5088   H         1 RES1   0.0000
    94 H47       7.2594    0.3034   -1.7153   H         1 RES1   0.0000
    95 H48       4.9359   -0.0445   -1.0632   H         1 RES1   0.0000
    96 H49      -3.6638   -1.2704    1.2477   H         1 RES1   0.0000
    97 H50      -5.2482   -2.8190    0.1876   H         1 RES1   0.0000
    98 C41       4.3521    3.4299    5.8208   C.3       1 RES1   0.0000
    99 C42       3.4776    4.5205    6.4295   C.3       1 RES1   0.0000
   100 C43       2.0295    4.4422    5.9507   C.3       1 RES1   0.0000
   101 C44       1.1839    5.5634    6.5469   C.3       1 RES1   0.0000
   102 C45      -0.2248    5.6338    5.9564   C.3       1 RES1   0.0000
   103 C46      -0.3319    6.4550    4.6562   C.3       1 RES1   0.0000
   104 C47       0.1481    5.7589    3.4189   C.ar      1 RES1   0.0000
   105 C48       1.3659    6.0818    2.8273   C.ar      1 RES1   0.0000
   106 C49       1.7769    5.4877    1.6474   C.ar      1 RES1   0.0000
   107 C50       0.9724    4.5498    1.0043   C.ar      1 RES1   0.0000
   108 N5        1.2665    4.0689   -0.3132   N.am      1 RES1   0.0000
   109 C51       1.9386    5.0139   -1.2019   C.3       1 RES1   0.0000
   110 C52       1.0762    6.2247   -1.5456   C.3       1 RES1   0.0000
   111 C53       0.9386    2.8139   -0.6391   C.2       1 RES1   0.0000
   112 O3        0.7828    1.9462    0.2550   O.2       1 RES1   0.0000
   113 C54       0.6641    2.3382   -2.0460   C.ar      1 RES1   0.0000
   114 C55       0.4423    3.1224   -3.1771   C.ar      1 RES1   0.0000
   115 C56       0.1511    2.4946   -4.3780   C.ar      1 RES1   0.0000
   116 C57       0.0230    1.1184   -4.4195   C.ar      1 RES1   0.0000
   117 C58       0.1419    0.4033   -3.2241   C.ar      1 RES1   0.0000
   118 C59      -0.2363   -1.0228   -3.1233   C.ar      1 RES1   0.0000
   119 C60      -0.3754   -1.8615   -4.2284   C.ar      1 RES1   0.0000
   120 C61      -0.9988   -3.0849   -4.0403   C.ar      1 RES1   0.0000
   121 C62      -1.3723   -3.4839   -2.7658   C.ar      1 RES1   0.0000
   122 C63      -1.0050   -2.6854   -1.6821   C.ar      1 RES1   0.0000
   123 C64      -1.0995   -3.0332   -0.2132   C.2       1 RES1   0.0000
   124 O4       -1.1783   -2.0756    0.5963   O.2       1 RES1   0.0000
   125 N6       -1.0374   -4.2945    0.2149   N.am      1 RES1   0.0000
   126 C65      -0.6432   -5.4316   -0.6063   C.3       1 RES1   0.0000
   127 C66      -1.7951   -6.4014   -0.8397   C.3       1 RES1   0.0000
   128 C67      -1.3390   -4.5945    1.5807   C.ar      1 RES1   0.0000
   129 C68      -0.6403   -5.5758    2.2793   C.ar      1 RES1   0.0000
   130 C69      -1.0391   -5.9522    3.5481   C.ar      1 RES1   0.0000
   131 C70      -2.1223   -5.3515    4.1822   C.ar      1 RES1   0.0000
   132 C71      -2.5890   -5.7833    5.5387   C.3       1 RES1   0.0000
   133 C72      -2.4275   -4.7234    6.6429   C.3       1 RES1   0.0000
   134 C73      -1.0253   -4.6388    7.2420   C.3       1 RES1   0.0000
   135 C74       0.0704   -4.1601    6.2899   C.3       1 RES1   0.0000
   136 C75      -0.1410   -2.7349    5.7823   C.3       1 RES1   0.0000
   137 C76       1.0108   -2.2867    4.8910   C.3       1 RES1   0.0000
   138 C77      -2.7897   -4.3417    3.4913   C.ar      1 RES1   0.0000
   139 C78      -2.4163   -3.9747    2.2126   C.ar      1 RES1   0.0000
   140 N7       -0.5194   -1.4531   -1.8888   N.ar      1 RES1   0.0000
   141 N8        0.4786    1.0050   -2.0778   N.ar      1 RES1   0.0000
   142 C79      -0.2311    4.1906    1.6116   C.ar      1 RES1   0.0000
   143 C80      -0.6315    4.7868    2.7923   C.ar      1 RES1   0.0000
   144 H51       5.3821    3.5535    6.1434   H         1 RES1   0.0000
   145 H52       4.3234    3.4824    4.7317   H         1 RES1   0.0000
   146 H53       4.0173    2.4438    6.1416   H         1 RES1   0.0000
   147 H54       3.8868    5.4966    6.1621   H         1 RES1   0.0000
   148 H55       3.5007    4.4411    7.5181   H         1 RES1   0.0000
   149 H56       1.5997    3.4835    6.2546   H         1 RES1   0.0000
   150 H57       1.9969    4.4940    4.8583   H         1 RES1   0.0000
   151 H58       1.6903    6.5184    6.4061   H         1 RES1   0.0000
   152 H59       1.1108    5.3977    7.6229   H         1 RES1   0.0000
   153 H60      -0.8804    6.1067    6.6886   H         1 RES1   0.0000
   154 H61      -0.5985    4.6227    5.7811   H         1 RES1   0.0000
   155 H62       0.2222    7.3851    4.7912   H         1 RES1   0.0000
   156 H63      -1.3849    6.7129    4.5133   H         1 RES1   0.0000
   157 H64       1.9903    6.8360    3.2794   H         1 RES1   0.0000
   158 H65       2.7265    5.7902    1.2362   H         1 RES1   0.0000
   159 H66       2.2680    4.4765   -2.0895   H         1 RES1   0.0000
   160 H67       2.8448    5.3594   -0.6964   H         1 RES1   0.0000
   161 H68       0.1557    5.9466   -2.0535   H         1 RES1   0.0000
   162 H69       1.6389    6.8878   -2.1966   H         1 RES1   0.0000
   163 H70       0.8091    6.7714   -0.6462   H         1 RES1   0.0000
   164 H71       0.4526    4.1978   -3.1388   H         1 RES1   0.0000
   165 H72      -0.0131    3.0813   -5.2710   H         1 RES1   0.0000
   166 H73      -0.2170    0.6276   -5.3462   H         1 RES1   0.0000
   167 H74      -0.0243   -1.5669   -5.2026   H         1 RES1   0.0000
   168 H75      -1.1980   -3.7254   -4.8839   H         1 RES1   0.0000
   169 H76      -1.9367   -4.3932   -2.6435   H         1 RES1   0.0000
   170 H77       0.1536   -5.9677   -0.0880   H         1 RES1   0.0000
   171 H78      -0.2193   -5.0655   -1.5405   H         1 RES1   0.0000
   172 H79      -2.1351   -6.8159    0.1047   H         1 RES1   0.0000
   173 H80      -1.4499   -7.2196   -1.4659   H         1 RES1   0.0000
   174 H81      -2.6394   -5.9224   -1.3284   H         1 RES1   0.0000
   175 H82       0.2150   -6.0748    1.8526   H         1 RES1   0.0000
   176 H83      -0.5003   -6.7492    4.0380   H         1 RES1   0.0000
   177 H84      -2.0772   -6.6983    5.8422   H         1 RES1   0.0000
   178 H85      -3.6559   -6.0123    5.4603   H         1 RES1   0.0000
   179 H86      -3.1123   -4.9797    7.4516   H         1 RES1   0.0000
   180 H87      -2.7333   -3.7491    6.2643   H         1 RES1   0.0000
   181 H88      -0.7429   -5.6211    7.6249   H         1 RES1   0.0000
   182 H89      -1.0647   -3.9588    8.0952   H         1 RES1   0.0000
   183 H90       0.1390   -4.8357    5.4364   H         1 RES1   0.0000
   184 H91       1.0259   -4.2038    6.8196   H         1 RES1   0.0000
   185 H92      -0.2266   -2.0570    6.6348   H         1 RES1   0.0000
   186 H93      -1.0683   -2.6769    5.2081   H         1 RES1   0.0000
   187 H94       1.9482   -2.2988    5.4424   H         1 RES1   0.0000
   188 H95       0.8382   -1.2763    4.5240   H         1 RES1   0.0000
   189 H96       1.1041   -2.9486    4.0311   H         1 RES1   0.0000
   190 H97      -3.6402   -3.8531    3.9458   H         1 RES1   0.0000
   191 H98      -2.9848   -3.2232    1.6872   H         1 RES1   0.0000
   192 H99      -0.8702    3.4572    1.1350   H         1 RES1   0.0000
   193 H100     -1.5924    4.5308    3.2210   H         1 RES1   0.0000
@<TRIPOS>BOND
     1     1    16    1
     2     1    28    1
     3     1    44    1
     4     1    45    1
     5     1   112    1
     6     1   124    1
     7     1   140    1
     8     1   141    1
     9     2     3    1
    10     2    48    1
    11     2    49    1
    12     2    50    1
    13     3     4    1
    14     3    51    1
    15     3    52    1
    16     4     5    1
    17     4    53    1
    18     4    54    1
    19     5     6    1
    20     5    55    1
    21     5    56    1
    22     6     7    1
    23     6    57    1
    24     6    58    1
    25     7     8    1
    26     7    59    1
    27     7    60    1
    28     8     9    1
    29     8    47    2
    30     9    10    2
    31     9    61    1
    32    10    11    1
    33    10    62    1
    34    11    12    1
    35    11    46    2
    36    12    13    1
    37    12    15    1
    38    13    14    1
    39    13    63    1
    40    13    64    1
    41    14    65    1
    42    14    66    1
    43    14    67    1
    44    15    16    2
    45    15    17    1
    46    17    18    1
    47    17    45    2
    48    18    19    2
    49    18    68    1
    50    19    20    1
    51    19    69    1
    52    20    21    2
    53    20    70    1
    54    21    22    1
    55    21    45    1
    56    22    23    1
    57    22    44    2
    58    23    24    2
    59    23    71    1
    60    24    25    1
    61    24    72    1
    62    25    26    2
    63    25    73    1
    64    26    27    1
    65    26    44    1
    66    27    28    2
    67    27    29    1
    68    29    30    1
    69    29    32    1
    70    30    31    1
    71    30    74    1
    72    30    75    1
    73    31    76    1
    74    31    77    1
    75    31    78    1
    76    32    33    1
    77    32    43    2
    78    33    34    2
    79    33    79    1
    80    34    35    1
    81    34    80    1
    82    35    36    1
    83    35    42    2
    84    36    37    1
    85    36    81    1
    86    36    82    1
    87    37    38    1
    88    37    83    1
    89    37    84    1
    90    38    39    1
    91    38    85    1
    92    38    86    1
    93    39    40    1
    94    39    87    1
    95    39    88    1
    96    40    41    1
    97    40    89    1
    98    40    90    1
    99    41    91    1
   100    41    92    1
   101    41    93    1
   102    42    43    1
   103    42    94    1
   104    43    95    1
   105    46    47    1
   106    46    96    1
   107    47    97    1
   108    98    99    1
   109    98   144    1
   110    98   145    1
   111    98   146    1
   112    99   100    1
   113    99   147    1
   114    99   148    1
   115   100   101    1
   116   100   149    1
   117   100   150    1
   118   101   102    1
   119   101   151    1
   120   101   152    1
   121   102   103    1
   122   102   153    1
   123   102   154    1
   124   103   104    1
   125   103   155    1
   126   103   156    1
   127   104   105    1
   128   104   143    2
   129   105   106    2
   130   105   157    1
   131   106   107    1
   132   106   158    1
   133   107   108    1
   134   107   142    2
   135   108   109    1
   136   108   111    1
   137   109   110    1
   138   109   159    1
   139   109   160    1
   140   110   161    1
   141   110   162    1
   142   110   163    1
   143   111   112    2
   144   111   113    1
   145   113   114    1
   146   113   141    2
   147   114   115    2
   148   114   164    1
   149   115   116    1
   150   115   165    1
   151   116   117    2
   152   116   166    1
   153   117   118    1
   154   117   141    1
   155   118   119    1
   156   118   140    2
   157   119   120    2
   158   119   167    1
   159   120   121    1
   160   120   168    1
   161   121   122    2
   162   121   169    1
   163   122   123    1
   164   122   140    1
   165   123   124    2
   166   123   125    1
   167   125   126    1
   168   125   128    1
   169   126   127    1
   170   126   170    1
   171   126   171    1
   172   127   172    1
   173   127   173    1
   174   127   174    1
   175   128   129    1
   176   128   139    2
   177   129   130    2
   178   129   175    1
   179   130   131    1
   180   130   176    1
   181   131   132    1
   182   131   138    2
   183   132   133    1
   184   132   177    1
   185   132   178    1
   186   133   134    1
   187   133   179    1
   188   133   180    1
   189   134   135    1
   190   134   181    1
   191   134   182    1
   192   135   136    1
   193   135   183    1
   194   135   184    1
   195   136   137    1
   196   136   185    1
   197   136   186    1
   198   137   187    1
   199   137   188    1
   200   137   189    1
   201   138   139    1
   202   138   190    1
   203   139   191    1
   204   142   143    1
   205   142   192    1
   206   143   193    1
@<TRIPOS>SUBSTRUCTURE
     1 RES1      193 GROUP             0 ****  ****    0  
