@<TRIPOS>MOLECULE
YEMSEP_geometry_0_nunpairedes_0_charge_2 Charge: 2 Unpaired_Electrons: 6 XTB_Unpaired_Electrons: 0 XTB_Charge: 2
   119   129     1     0     0
SMALL
NoCharges
****
Generated from Architector

@<TRIPOS>ATOM
     1 Tb1      -0.1762    0.2338    0.1122   Tb        1 RES1   0.0000
     2 C1        4.8940   -1.7092    0.2397   C.3       1 RES1   0.0000
     3 C2        3.9379   -2.8928    0.1398   C.3       1 RES1   0.0000
     4 N1        3.1208   -2.8322   -1.0681   N.am      1 RES1   0.0000
     5 C3        2.0465   -2.0252   -1.0362   C.2       1 RES1   0.0000
     6 O1        1.6533   -1.5011    0.0188   O.2       1 RES1   0.0000
     7 C4        1.3673   -1.6290   -2.3218   C.ar      1 RES1   0.0000
     8 C5        1.8799   -1.8579   -3.5963   C.ar      1 RES1   0.0000
     9 C6        1.1780   -1.3838   -4.6875   C.ar      1 RES1   0.0000
    10 C7        0.0226   -0.6386   -4.5002   C.ar      1 RES1   0.0000
    11 C8       -0.3934   -0.3605   -3.1979   C.ar      1 RES1   0.0000
    12 C9       -1.4913    0.5703   -2.7163   C.2       1 RES1   0.0000
    13 O2       -1.4930    0.7794   -1.4786   O.2       1 RES1   0.0000
    14 N2       -2.3855    1.1952   -3.4832   N.am      1 RES1   0.0000
    15 C10      -2.6815    0.8466   -4.8657   C.3       1 RES1   0.0000
    16 C11      -3.2249   -0.5761   -4.9893   C.3       1 RES1   0.0000
    17 C12      -3.2311    2.1846   -2.8783   C.ar      1 RES1   0.0000
    18 C13      -4.5827    2.2220   -3.2055   C.ar      1 RES1   0.0000
    19 C14      -5.3955    3.2136   -2.6935   C.ar      1 RES1   0.0000
    20 C15      -4.8972    4.1671   -1.8154   C.ar      1 RES1   0.0000
    21 C16      -5.7773    5.2262   -1.2466   C.3       1 RES1   0.0000
    22 C17      -3.5478    4.1074   -1.4731   C.ar      1 RES1   0.0000
    23 C18      -2.7155    3.1416   -2.0043   C.ar      1 RES1   0.0000
    24 N3        0.2719   -0.8838   -2.1492   N.ar      1 RES1   0.0000
    25 C19       3.2835   -3.8809   -2.0085   C.ar      1 RES1   0.0000
    26 C20       2.1550   -4.5746   -2.4425   C.ar      1 RES1   0.0000
    27 C21       2.2823   -5.5988   -3.3576   C.ar      1 RES1   0.0000
    28 C22       3.5339   -5.9908   -3.8230   C.ar      1 RES1   0.0000
    29 C23       3.6711   -7.0755   -4.8363   C.3       1 RES1   0.0000
    30 C24       4.6607   -5.3476   -3.3136   C.ar      1 RES1   0.0000
    31 C25       4.5466   -4.2938   -2.4253   C.ar      1 RES1   0.0000
    32 H1        5.5445   -1.8592    1.0977   H         1 RES1   0.0000
    33 H2        4.3455   -0.7767    0.3673   H         1 RES1   0.0000
    34 H3        5.5160   -1.6347   -0.6500   H         1 RES1   0.0000
    35 H4        3.2682   -2.8990    1.0034   H         1 RES1   0.0000
    36 H5        4.4972   -3.8262    0.1116   H         1 RES1   0.0000
    37 H6        2.8053   -2.3813   -3.7408   H         1 RES1   0.0000
    38 H7        1.5363   -1.5904   -5.6853   H         1 RES1   0.0000
    39 H8       -0.4833   -0.2663   -5.3703   H         1 RES1   0.0000
    40 H9       -1.7903    1.0089   -5.4742   H         1 RES1   0.0000
    41 H10      -3.4286    1.5505   -5.2315   H         1 RES1   0.0000
    42 H11      -2.5130   -1.3143   -4.6254   H         1 RES1   0.0000
    43 H12      -3.4479   -0.7891   -6.0318   H         1 RES1   0.0000
    44 H13      -4.1433   -0.6818   -4.4136   H         1 RES1   0.0000
    45 H14      -5.0209    1.4748   -3.8472   H         1 RES1   0.0000
    46 H15      -6.4324    3.2409   -2.9889   H         1 RES1   0.0000
    47 H16      -6.7883    5.1333   -1.6332   H         1 RES1   0.0000
    48 H17      -5.3890    6.2135   -1.4928   H         1 RES1   0.0000
    49 H18      -5.8000    5.1489   -0.1603   H         1 RES1   0.0000
    50 H19      -3.1521    4.8349   -0.7811   H         1 RES1   0.0000
    51 H20      -1.6631    3.1418   -1.7511   H         1 RES1   0.0000
    52 H21       1.1832   -4.3172   -2.0428   H         1 RES1   0.0000
    53 H22       1.3930   -6.1169   -3.6835   H         1 RES1   0.0000
    54 H23       2.6952   -7.4376   -5.1457   H         1 RES1   0.0000
    55 H24       4.2487   -7.9096   -4.4424   H         1 RES1   0.0000
    56 H25       4.2032   -6.7008   -5.7087   H         1 RES1   0.0000
    57 H26       5.6405   -5.6918   -3.6087   H         1 RES1   0.0000
    58 H27       5.4331   -3.7991   -2.0541   H         1 RES1   0.0000
    59 C26      -1.8003   -0.6860    5.4947   C.3       1 RES1   0.0000
    60 C27      -1.3768   -2.0233    4.8935   C.3       1 RES1   0.0000
    61 N4       -1.4508   -2.0562    3.4399   N.am      1 RES1   0.0000
    62 C28      -0.6264   -1.3847    2.6315   C.2       1 RES1   0.0000
    63 O3       -0.7588   -1.4647    1.3903   O.2       1 RES1   0.0000
    64 C29       0.5566   -0.5205    3.0929   C.ar      1 RES1   0.0000
    65 C30       1.2712   -0.5183    4.2895   C.ar      1 RES1   0.0000
    66 C31       2.4718    0.1771    4.3495   C.ar      1 RES1   0.0000
    67 C32       2.9583    0.8644    3.2487   C.ar      1 RES1   0.0000
    68 C33       2.1558    0.9187    2.1107   C.ar      1 RES1   0.0000
    69 C34       2.5300    1.4795    0.7484   C.2       1 RES1   0.0000
    70 O4        1.8711    1.0698   -0.2347   O.2       1 RES1   0.0000
    71 N5        3.6189    2.2336    0.5575   N.am      1 RES1   0.0000
    72 C35       4.0962    2.3832   -0.8202   C.3       1 RES1   0.0000
    73 C36       3.8417    3.7726   -1.3866   C.3       1 RES1   0.0000
    74 C37       4.2253    3.0825    1.5206   C.ar      1 RES1   0.0000
    75 C38       3.4453    3.7256    2.4814   C.ar      1 RES1   0.0000
    76 C39       4.0357    4.5801    3.3919   C.ar      1 RES1   0.0000
    77 C40       5.3972    4.8595    3.3422   C.ar      1 RES1   0.0000
    78 C41       6.0325    5.7888    4.3164   C.3       1 RES1   0.0000
    79 C42       6.1571    4.2567    2.3442   C.ar      1 RES1   0.0000
    80 C43       5.5896    3.3659    1.4551   C.ar      1 RES1   0.0000
    81 N6        0.9978    0.2523    2.0889   N.ar      1 RES1   0.0000
    82 C44      -2.5099   -2.8565    2.8943   C.ar      1 RES1   0.0000
    83 C45      -3.7160   -2.9516    3.5873   C.ar      1 RES1   0.0000
    84 C46      -4.7289   -3.7698    3.1274   C.ar      1 RES1   0.0000
    85 C47      -4.5926   -4.4909    1.9488   C.ar      1 RES1   0.0000
    86 C48      -5.6985   -5.3407    1.4200   C.3       1 RES1   0.0000
    87 C49      -3.3867   -4.3916    1.2626   C.ar      1 RES1   0.0000
    88 C50      -2.3520   -3.6022    1.7276   C.ar      1 RES1   0.0000
    89 H28      -1.7083   -0.7479    6.5768   H         1 RES1   0.0000
    90 H29      -2.8370   -0.4677    5.2468   H         1 RES1   0.0000
    91 H30      -1.1938    0.1420    5.1340   H         1 RES1   0.0000
    92 H31      -2.0359   -2.8076    5.2634   H         1 RES1   0.0000
    93 H32      -0.3681   -2.3102    5.1906   H         1 RES1   0.0000
    94 H33       0.9666   -1.0550    5.1666   H         1 RES1   0.0000
    95 H34       3.0395    0.1452    5.2673   H         1 RES1   0.0000
    96 H35       3.9314    1.3203    3.2649   H         1 RES1   0.0000
    97 H36       3.5891    1.6379   -1.4340   H         1 RES1   0.0000
    98 H37       5.1659    2.1677   -0.8259   H         1 RES1   0.0000
    99 H38       2.7784    4.0027   -1.3754   H         1 RES1   0.0000
   100 H39       4.1922    3.7978   -2.4157   H         1 RES1   0.0000
   101 H40       4.3758    4.5304   -0.8173   H         1 RES1   0.0000
   102 H41       2.3749    3.5743    2.5005   H         1 RES1   0.0000
   103 H42       3.4207    5.0634    4.1349   H         1 RES1   0.0000
   104 H43       5.3021    6.1472    5.0346   H         1 RES1   0.0000
   105 H44       6.4695    6.6408    3.7989   H         1 RES1   0.0000
   106 H45       6.8388    5.2825    4.8442   H         1 RES1   0.0000
   107 H46       7.2044    4.5028    2.2588   H         1 RES1   0.0000
   108 H47       6.2148    2.8981    0.7101   H         1 RES1   0.0000
   109 H48      -3.8957   -2.3883    4.4885   H         1 RES1   0.0000
   110 H49      -5.6344   -3.8493    3.7079   H         1 RES1   0.0000
   111 H50      -6.5561   -5.3172    2.0859   H         1 RES1   0.0000
   112 H51      -5.3664   -6.3711    1.3022   H         1 RES1   0.0000
   113 H52      -6.0036   -4.9819    0.4375   H         1 RES1   0.0000
   114 H53      -3.2576   -4.9610    0.3539   H         1 RES1   0.0000
   115 H54      -1.4194   -3.5788    1.1868   H         1 RES1   0.0000
   116 N7       -1.3858    2.1701    1.1505   N.3       1 RES1   0.0000
   117 O5       -2.0297    3.0954    1.5223   O.2       1 RES1   0.0000
   118 O6       -1.7579    0.9999    1.3381   O.co2     1 RES1   0.0000
   119 O7       -0.2872    2.3367    0.5847   O.co2     1 RES1   0.0000
@<TRIPOS>BOND
     1     1     6    1
     2     1    13    1
     3     1    24    1
     4     1    63    1
     5     1    70    1
     6     1    81    1
     7     1   118    1
     8     1   119    1
     9     2     3    1
    10     2    32    1
    11     2    33    1
    12     2    34    1
    13     3     4    1
    14     3    35    1
    15     3    36    1
    16     4     5    1
    17     4    25    1
    18     5     6    2
    19     5     7    1
    20     7     8    1
    21     7    24    2
    22     8     9    2
    23     8    37    1
    24     9    10    1
    25     9    38    1
    26    10    11    2
    27    10    39    1
    28    11    12    1
    29    11    24    1
    30    12    13    2
    31    12    14    1
    32    14    15    1
    33    14    17    1
    34    15    16    1
    35    15    40    1
    36    15    41    1
    37    16    42    1
    38    16    43    1
    39    16    44    1
    40    17    18    1
    41    17    23    2
    42    18    19    2
    43    18    45    1
    44    19    20    1
    45    19    46    1
    46    20    21    1
    47    20    22    2
    48    21    47    1
    49    21    48    1
    50    21    49    1
    51    22    23    1
    52    22    50    1
    53    23    51    1
    54    25    26    1
    55    25    31    2
    56    26    27    2
    57    26    52    1
    58    27    28    1
    59    27    53    1
    60    28    29    1
    61    28    30    2
    62    29    54    1
    63    29    55    1
    64    29    56    1
    65    30    31    1
    66    30    57    1
    67    31    58    1
    68    59    60    1
    69    59    89    1
    70    59    90    1
    71    59    91    1
    72    60    61    1
    73    60    92    1
    74    60    93    1
    75    61    62    1
    76    61    82    1
    77    62    63    2
    78    62    64    1
    79    64    65    1
    80    64    81    2
    81    65    66    2
    82    65    94    1
    83    66    67    1
    84    66    95    1
    85    67    68    2
    86    67    96    1
    87    68    69    1
    88    68    81    1
    89    69    70    2
    90    69    71    1
    91    71    72    1
    92    71    74    1
    93    72    73    1
    94    72    97    1
    95    72    98    1
    96    73    99    1
    97    73   100    1
    98    73   101    1
    99    74    75    1
   100    74    80    2
   101    75    76    2
   102    75   102    1
   103    76    77    1
   104    76   103    1
   105    77    78    1
   106    77    79    2
   107    78   104    1
   108    78   105    1
   109    78   106    1
   110    79    80    1
   111    79   107    1
   112    80   108    1
   113    82    83    1
   114    82    88    2
   115    83    84    2
   116    83   109    1
   117    84    85    1
   118    84   110    1
   119    85    86    1
   120    85    87    2
   121    86   111    1
   122    86   112    1
   123    86   113    1
   124    87    88    1
   125    87   114    1
   126    88   115    1
   127   116   117    2
   128   116   118    1
   129   116   119    1
@<TRIPOS>SUBSTRUCTURE
     1 RES1      119 GROUP             0 ****  ****    0  
