@<TRIPOS>MOLECULE
ICIGOT_geomtry_0_nunpairedes_0_charge_3 Charge: 3 Unpaired_Electrons: 6 XTB_Unpaired_Electrons: 0 XTB_Charge: 3
    61    66     1     0     0
SMALL
NoCharges
****
Generated from Architector

@<TRIPOS>ATOM
     1 Tb1      -0.1381   -0.0727    0.1598   Tb        1 RES1   0.0000
     2 C1       -1.7153    0.2376   -2.9878   C.3       1 RES1   0.0000
     3 O1       -0.5885    0.9211   -2.4033   O.3       1 RES1   0.0000
     4 C2       -0.4525    2.2227   -3.0140   C.3       1 RES1   0.0000
     5 C3        0.9460    2.8147   -2.7777   C.3       1 RES1   0.0000
     6 N1        1.2031    2.7718   -1.3505   N.am      1 RES1   0.0000
     7 C4        0.5965    3.8462   -0.5657   C.3       1 RES1   0.0000
     8 C5       -0.3216    3.4317    0.5995   C.3       1 RES1   0.0000
     9 O2       -1.1012    2.2384    0.3262   O.3       1 RES1   0.0000
    10 C6       -2.4251    2.3610    0.8760   C.3       1 RES1   0.0000
    11 C7        1.6496    1.6788   -0.7526   C.2       1 RES1   0.0000
    12 O3        1.4148    1.4580    0.4577   O.2       1 RES1   0.0000
    13 C8        2.4727    0.5823   -1.4565   C.3       1 RES1   0.0000
    14 O4        2.2728   -0.5205   -0.5714   O.3       1 RES1   0.0000
    15 C9        2.2674   -1.8524   -1.0729   C.3       1 RES1   0.0000
    16 C10       1.0278   -2.4081   -0.3676   C.2       1 RES1   0.0000
    17 O5       -0.0765   -2.0560   -0.8581   O.2       1 RES1   0.0000
    18 N2        1.1091   -3.0773    0.7745   N.am      1 RES1   0.0000
    19 C11       2.2297   -2.9153    1.6936   C.3       1 RES1   0.0000
    20 C12       1.8330   -1.9203    2.7934   C.3       1 RES1   0.0000
    21 O6        1.2671   -0.7286    2.2227   O.3       1 RES1   0.0000
    22 C13       1.1703    0.2838    3.2361   C.3       1 RES1   0.0000
    23 C14      -0.0335   -3.8486    1.2585   C.3       1 RES1   0.0000
    24 C15      -1.3339   -3.0773    1.5889   C.3       1 RES1   0.0000
    25 O7       -1.1409   -1.6632    1.7744   O.3       1 RES1   0.0000
    26 C16      -2.0720   -1.1538    2.7454   C.3       1 RES1   0.0000
    27 H1       -1.7369    0.3873   -4.0714   H         1 RES1   0.0000
    28 H2       -2.6560    0.6254   -2.5718   H         1 RES1   0.0000
    29 H3       -1.5895   -0.8273   -2.7882   H         1 RES1   0.0000
    30 H4       -1.2185    2.8938   -2.6020   H         1 RES1   0.0000
    31 H5       -0.6098    2.1340   -4.0933   H         1 RES1   0.0000
    32 H6        0.9529    3.8486   -3.1316   H         1 RES1   0.0000
    33 H7        1.7200    2.2785   -3.3279   H         1 RES1   0.0000
    34 H8        0.0413    4.4723   -1.2624   H         1 RES1   0.0000
    35 H9        1.4026    4.4455   -0.1331   H         1 RES1   0.0000
    36 H10      -1.0007    4.2700    0.7764   H         1 RES1   0.0000
    37 H11       0.2643    3.2723    1.5108   H         1 RES1   0.0000
    38 H12      -2.9394    3.2205    0.4374   H         1 RES1   0.0000
    39 H13      -2.3923    2.4876    1.9633   H         1 RES1   0.0000
    40 H14      -2.9748    1.4525    0.6175   H         1 RES1   0.0000
    41 H15       3.5261    0.8990   -1.4518   H         1 RES1   0.0000
    42 H16       2.1657    0.3228   -2.4759   H         1 RES1   0.0000
    43 H17       3.2164   -2.3595   -0.8674   H         1 RES1   0.0000
    44 H18       2.0725   -1.8982   -2.1496   H         1 RES1   0.0000
    45 H19       3.0993   -2.5390    1.1593   H         1 RES1   0.0000
    46 H20       2.4937   -3.8710    2.1510   H         1 RES1   0.0000
    47 H21       2.7223   -1.6605    3.3787   H         1 RES1   0.0000
    48 H22       1.1012   -2.3798    3.4713   H         1 RES1   0.0000
    49 H23       2.1728    0.6199    3.5218   H         1 RES1   0.0000
    50 H24       0.6560   -0.1003    4.1244   H         1 RES1   0.0000
    51 H25       0.6164    1.1294    2.8111   H         1 RES1   0.0000
    52 H26       0.3060   -4.4000    2.1339   H         1 RES1   0.0000
    53 H27      -0.2795   -4.5827    0.4868   H         1 RES1   0.0000
    54 H28      -1.7522   -3.4910    2.5089   H         1 RES1   0.0000
    55 H29      -2.0665   -3.2381    0.7906   H         1 RES1   0.0000
    56 H30      -3.1048   -1.3363    2.4299   H         1 RES1   0.0000
    57 H31      -1.8960   -0.0769    2.8582   H         1 RES1   0.0000
    58 H32      -1.9084   -1.6479    3.7090   H         1 RES1   0.0000
    59 O8       -2.5435   -0.7928   -0.3618   O.3       1 RES1   0.0000
    60 H33      -2.5551   -1.5953   -0.9137   H         1 RES1   0.0000
    61 H34      -3.4789   -0.6366   -0.1547   H         1 RES1   0.0000
@<TRIPOS>BOND
     1     1     3    1
     2     1     9    1
     3     1    12    1
     4     1    14    1
     5     1    17    1
     6     1    21    1
     7     1    25    1
     8     1    59    1
     9     2     3    1
    10     2    27    1
    11     2    28    1
    12     2    29    1
    13     3     4    1
    14     4     5    1
    15     4    30    1
    16     4    31    1
    17     5     6    1
    18     5    32    1
    19     5    33    1
    20     6     7    1
    21     6    11    1
    22     7     8    1
    23     7    34    1
    24     7    35    1
    25     8     9    1
    26     8    36    1
    27     8    37    1
    28     9    10    1
    29    10    38    1
    30    10    39    1
    31    10    40    1
    32    11    12    2
    33    11    13    1
    34    13    14    1
    35    13    41    1
    36    13    42    1
    37    14    15    1
    38    15    16    1
    39    15    43    1
    40    15    44    1
    41    16    17    2
    42    16    18    1
    43    18    19    1
    44    18    23    1
    45    19    20    1
    46    19    45    1
    47    19    46    1
    48    20    21    1
    49    20    47    1
    50    20    48    1
    51    21    22    1
    52    22    49    1
    53    22    50    1
    54    22    51    1
    55    23    24    1
    56    23    52    1
    57    23    53    1
    58    24    25    1
    59    24    54    1
    60    24    55    1
    61    25    26    1
    62    26    56    1
    63    26    57    1
    64    26    58    1
    65    59    60    1
    66    59    61    1
@<TRIPOS>SUBSTRUCTURE
     1 RES1       61 GROUP             0 ****  ****    0  
