@<TRIPOS>MOLECULE
ICIGOT_geomtry_0_nunpairedes_0_charge_2 Charge: 2 Unpaired_Electrons: 6 XTB_Unpaired_Electrons: 0 XTB_Charge: 2
   315   319     1     0     0
SMALL
NoCharges
****
Generated from Architector

@<TRIPOS>ATOM
     1 Tb1      -0.2454   -0.1067   -0.3023   Tb        1 RES1   0.0000
     2 C1        6.0168    2.9450    3.0819   C.3       1 RES1   0.0000
     3 C2        6.0352    4.4352    2.7520   C.3       1 RES1   0.0000
     4 C3        6.8626    4.7617    1.5088   C.3       1 RES1   0.0000
     5 C4        6.2049    4.3708    0.1788   C.3       1 RES1   0.0000
     6 C5        7.2588    3.9245   -0.8424   C.3       1 RES1   0.0000
     7 C6        7.7138    2.4687   -0.6175   C.3       1 RES1   0.0000
     8 C7        7.0292    1.5138   -1.5990   C.3       1 RES1   0.0000
     9 C8        7.0118    0.0348   -1.1933   C.3       1 RES1   0.0000
    10 C9        6.1530   -0.3036    0.0452   C.3       1 RES1   0.0000
    11 C10       4.9747   -1.2361   -0.2762   C.3       1 RES1   0.0000
    12 N1        4.1632   -1.5972    0.8925   N.am      1 RES1   0.0000
    13 C11       4.9039   -2.2055    1.9971   C.3       1 RES1   0.0000
    14 C12       5.3694   -3.6411    1.7031   C.3       1 RES1   0.0000
    15 C13       4.5258   -4.7504    2.3367   C.3       1 RES1   0.0000
    16 C14       4.7808   -4.9789    3.8343   C.3       1 RES1   0.0000
    17 C15       3.8675   -4.2522    4.8294   C.3       1 RES1   0.0000
    18 C16       2.4111   -4.7238    4.7959   C.3       1 RES1   0.0000
    19 C17       1.6150   -4.3764    6.0575   C.3       1 RES1   0.0000
    20 C18       1.3187   -2.8876    6.2295   C.3       1 RES1   0.0000
    21 C19       0.5224   -2.5998    7.5027   C.3       1 RES1   0.0000
    22 C20       0.1363   -1.1281    7.6068   C.3       1 RES1   0.0000
    23 C21       2.8464   -1.4151    0.8989   C.2       1 RES1   0.0000
    24 O1        2.1966   -0.8906   -0.0330   O.2       1 RES1   0.0000
    25 C22       2.0483   -1.8564    2.1369   C.3       1 RES1   0.0000
    26 C23       2.1925   -0.8724    3.3193   C.3       1 RES1   0.0000
    27 C24       2.8277    0.4711    2.9682   C.3       1 RES1   0.0000
    28 C25       2.9470    1.3629    4.1981   C.3       1 RES1   0.0000
    29 O2        0.6704   -1.9416    1.7611   O.3       1 RES1   0.0000
    30 C26       0.1541   -3.2745    1.6081   C.3       1 RES1   0.0000
    31 C27      -0.8957   -3.5177    2.7096   C.3       1 RES1   0.0000
    32 C28      -2.1674   -2.6882    2.5414   C.3       1 RES1   0.0000
    33 C29      -3.1528   -3.2719    1.5379   C.3       1 RES1   0.0000
    34 C30      -0.3468   -3.3925    0.1612   C.2       1 RES1   0.0000
    35 O3       -0.3780   -2.3546   -0.5348   O.2       1 RES1   0.0000
    36 N2       -0.7015   -4.5673   -0.3387   N.am      1 RES1   0.0000
    37 C31      -1.2453   -4.5782   -1.6997   C.3       1 RES1   0.0000
    38 C32      -0.1710   -4.4103   -2.7737   C.3       1 RES1   0.0000
    39 C33      -0.8150   -4.2715   -4.1530   C.3       1 RES1   0.0000
    40 C34      -1.3039   -2.8427   -4.4303   C.3       1 RES1   0.0000
    41 C35      -2.6485   -2.7936   -5.1611   C.3       1 RES1   0.0000
    42 C36      -3.8254   -3.0556   -4.2220   C.3       1 RES1   0.0000
    43 C37      -5.1661   -3.0455   -4.9541   C.3       1 RES1   0.0000
    44 C38      -6.3594   -2.9989   -3.9997   C.3       1 RES1   0.0000
    45 C39      -6.5139   -4.2517   -3.1392   C.3       1 RES1   0.0000
    46 C40      -7.7141   -4.1309   -2.2083   C.3       1 RES1   0.0000
    47 C41      -0.5717   -5.8545    0.3193   C.3       1 RES1   0.0000
    48 C42       0.5263   -6.7207   -0.3009   C.3       1 RES1   0.0000
    49 C43       0.6625   -8.0404    0.4607   C.3       1 RES1   0.0000
    50 C44       1.3350   -9.1389   -0.3633   C.3       1 RES1   0.0000
    51 C45       0.5781   -9.5869   -1.6206   C.3       1 RES1   0.0000
    52 C46      -0.8776  -10.0256   -1.3976   C.3       1 RES1   0.0000
    53 C47      -1.8960   -8.9079   -1.6361   C.3       1 RES1   0.0000
    54 C48      -3.3356   -9.3978   -1.5086   C.3       1 RES1   0.0000
    55 C49      -4.3754   -8.3066   -1.7676   C.3       1 RES1   0.0000
    56 C50      -4.4215   -7.2206   -0.6952   C.3       1 RES1   0.0000
    57 H1        5.5453    2.7783    4.0471   H         1 RES1   0.0000
    58 H2        7.0308    2.5554    3.1405   H         1 RES1   0.0000
    59 H3        5.4731    2.3682    2.3325   H         1 RES1   0.0000
    60 H4        6.4741    4.9641    3.5986   H         1 RES1   0.0000
    61 H5        5.0130    4.7995    2.6260   H         1 RES1   0.0000
    62 H6        7.8219    4.2492    1.5918   H         1 RES1   0.0000
    63 H7        7.0700    5.8311    1.4960   H         1 RES1   0.0000
    64 H8        5.6484    5.2252   -0.2166   H         1 RES1   0.0000
    65 H9        5.4861    3.5666    0.3359   H         1 RES1   0.0000
    66 H10       8.1167    4.5948   -0.7632   H         1 RES1   0.0000
    67 H11       6.8604    4.0285   -1.8545   H         1 RES1   0.0000
    68 H12       7.4822    2.1809    0.4074   H         1 RES1   0.0000
    69 H13       8.7938    2.3921   -0.7373   H         1 RES1   0.0000
    70 H14       7.5481    1.5811   -2.5568   H         1 RES1   0.0000
    71 H15       6.0146    1.8621   -1.7622   H         1 RES1   0.0000
    72 H16       8.0406   -0.2792   -1.0072   H         1 RES1   0.0000
    73 H17       6.6471   -0.5391   -2.0492   H         1 RES1   0.0000
    74 H18       5.7807    0.6113    0.5046   H         1 RES1   0.0000
    75 H19       6.8092   -0.7877    0.7662   H         1 RES1   0.0000
    76 H20       5.3763   -2.1538   -0.7132   H         1 RES1   0.0000
    77 H21       4.2956   -0.7825   -0.9955   H         1 RES1   0.0000
    78 H22       4.3076   -2.1864    2.8996   H         1 RES1   0.0000
    79 H23       5.7756   -1.5768    2.1837   H         1 RES1   0.0000
    80 H24       6.3993   -3.7511    2.0419   H         1 RES1   0.0000
    81 H25       5.3716   -3.7905    0.6233   H         1 RES1   0.0000
    82 H26       4.7811   -5.6725    1.8132   H         1 RES1   0.0000
    83 H27       3.4686   -4.5692    2.1428   H         1 RES1   0.0000
    84 H28       5.8155   -4.7047    4.0531   H         1 RES1   0.0000
    85 H29       4.6879   -6.0483    4.0330   H         1 RES1   0.0000
    86 H30       3.9260   -3.1723    4.6830   H         1 RES1   0.0000
    87 H31       4.2658   -4.4599    5.8235   H         1 RES1   0.0000
    88 H32       2.4112   -5.8095    4.6813   H         1 RES1   0.0000
    89 H33       1.8906   -4.3056    3.9302   H         1 RES1   0.0000
    90 H34       2.1580   -4.7395    6.9302   H         1 RES1   0.0000
    91 H35       0.6659   -4.9145    6.0168   H         1 RES1   0.0000
    92 H36       0.7419   -2.5333    5.3694   H         1 RES1   0.0000
    93 H37       2.2518   -2.3220    6.2650   H         1 RES1   0.0000
    94 H38       1.1188   -2.8813    8.3716   H         1 RES1   0.0000
    95 H39      -0.3822   -3.2116    7.5119   H         1 RES1   0.0000
    96 H40       1.0185   -0.4932    7.5607   H         1 RES1   0.0000
    97 H41      -0.3693   -0.9357    8.5477   H         1 RES1   0.0000
    98 H42      -0.5357   -0.8504    6.7973   H         1 RES1   0.0000
    99 H43       2.3793   -2.8484    2.4511   H         1 RES1   0.0000
   100 H44       1.1901   -0.7145    3.7168   H         1 RES1   0.0000
   101 H45       2.7756   -1.3397    4.1150   H         1 RES1   0.0000
   102 H46       2.2264    0.9558    2.1936   H         1 RES1   0.0000
   103 H47       3.8297    0.3173    2.5677   H         1 RES1   0.0000
   104 H48       2.0049    1.4348    4.7360   H         1 RES1   0.0000
   105 H49       3.2517    2.3633    3.9043   H         1 RES1   0.0000
   106 H50       3.6913    0.9631    4.8839   H         1 RES1   0.0000
   107 H51       0.9675   -3.9976    1.7447   H         1 RES1   0.0000
   108 H52      -1.1543   -4.5739    2.7756   H         1 RES1   0.0000
   109 H53      -0.4140   -3.2509    3.6544   H         1 RES1   0.0000
   110 H54      -1.8826   -1.6833    2.2297   H         1 RES1   0.0000
   111 H55      -2.6663   -2.6281    3.5118   H         1 RES1   0.0000
   112 H56      -2.7228   -3.3284    0.5407   H         1 RES1   0.0000
   113 H57      -4.0295   -2.6340    1.4834   H         1 RES1   0.0000
   114 H58      -3.4665   -4.2665    1.8445   H         1 RES1   0.0000
   115 H59      -1.9747   -3.7658   -1.7830   H         1 RES1   0.0000
   116 H60      -1.7622   -5.5270   -1.8469   H         1 RES1   0.0000
   117 H61       0.4885   -5.2767   -2.7535   H         1 RES1   0.0000
   118 H62       0.4300   -3.5227   -2.5622   H         1 RES1   0.0000
   119 H63      -1.6446   -4.9754   -4.2296   H         1 RES1   0.0000
   120 H64      -0.0842   -4.5612   -4.9092   H         1 RES1   0.0000
   121 H65      -0.5546   -2.3330   -5.0334   H         1 RES1   0.0000
   122 H66      -1.4000   -2.2814   -3.4937   H         1 RES1   0.0000
   123 H67      -2.6467   -3.5194   -5.9791   H         1 RES1   0.0000
   124 H68      -2.7706   -1.8021   -5.6019   H         1 RES1   0.0000
   125 H69      -3.8385   -2.2745   -3.4567   H         1 RES1   0.0000
   126 H70      -3.6865   -4.0171   -3.7239   H         1 RES1   0.0000
   127 H71      -5.2434   -3.9271   -5.5938   H         1 RES1   0.0000
   128 H72      -5.2064   -2.1646   -5.5998   H         1 RES1   0.0000
   129 H73      -7.2703   -2.8698   -4.5874   H         1 RES1   0.0000
   130 H74      -6.2623   -2.1268   -3.3476   H         1 RES1   0.0000
   131 H75      -5.6135   -4.4034   -2.5408   H         1 RES1   0.0000
   132 H76      -6.6378   -5.1225   -3.7862   H         1 RES1   0.0000
   133 H77      -7.5916   -3.2761   -1.5464   H         1 RES1   0.0000
   134 H78      -7.8264   -5.0245   -1.5995   H         1 RES1   0.0000
   135 H79      -8.6274   -3.9917   -2.7807   H         1 RES1   0.0000
   136 H80      -1.5331   -6.3700    0.2401   H         1 RES1   0.0000
   137 H81      -0.3585   -5.7271    1.3783   H         1 RES1   0.0000
   138 H82       1.4739   -6.1787   -0.2856   H         1 RES1   0.0000
   139 H83       0.2728   -6.9364   -1.3375   H         1 RES1   0.0000
   140 H84      -0.3221   -8.3868    0.7716   H         1 RES1   0.0000
   141 H85       1.2425   -7.8744    1.3712   H         1 RES1   0.0000
   142 H86       1.4703  -10.0062    0.2847   H         1 RES1   0.0000
   143 H87       2.3271   -8.7963   -0.6683   H         1 RES1   0.0000
   144 H88       1.1350  -10.4280   -2.0363   H         1 RES1   0.0000
   145 H89       0.5996   -8.7996   -2.3767   H         1 RES1   0.0000
   146 H90      -0.9881  -10.4302   -0.3890   H         1 RES1   0.0000
   147 H91      -1.1102  -10.8352   -2.0922   H         1 RES1   0.0000
   148 H92      -1.7449   -8.5075   -2.6424   H         1 RES1   0.0000
   149 H93      -1.7327   -8.1037   -0.9225   H         1 RES1   0.0000
   150 H94      -3.4920   -9.8147   -0.5114   H         1 RES1   0.0000
   151 H95      -3.4914  -10.2020   -2.2286   H         1 RES1   0.0000
   152 H96      -5.3561   -8.7797   -1.8137   H         1 RES1   0.0000
   153 H97      -4.1890   -7.8448   -2.7394   H         1 RES1   0.0000
   154 H98      -4.4753   -7.6628    0.2982   H         1 RES1   0.0000
   155 H99      -5.2990   -6.5928   -0.8349   H         1 RES1   0.0000
   156 H100     -3.5467   -6.5726   -0.7383   H         1 RES1   0.0000
   157 C51      -3.5033    3.0994    5.6626   C.3       1 RES1   0.0000
   158 C52      -4.1533    1.9020    6.3531   C.3       1 RES1   0.0000
   159 C53      -5.5278    1.5743    5.7696   C.3       1 RES1   0.0000
   160 C54      -5.4638    0.7681    4.4708   C.3       1 RES1   0.0000
   161 C55      -6.8147    0.7596    3.7482   C.3       1 RES1   0.0000
   162 C56      -7.0300    2.0186    2.9008   C.3       1 RES1   0.0000
   163 C57      -6.4274    1.8734    1.5013   C.3       1 RES1   0.0000
   164 C58      -6.3225    3.2149    0.7735   C.3       1 RES1   0.0000
   165 C59      -5.0479    3.9763    1.1604   C.3       1 RES1   0.0000
   166 C60      -3.8717    3.5641    0.2682   C.3       1 RES1   0.0000
   167 N3       -2.5532    3.8103    0.8625   N.am      1 RES1   0.0000
   168 C61      -2.3316    5.0923    1.5134   C.3       1 RES1   0.0000
   169 C62      -1.8295    6.1591    0.5165   C.3       1 RES1   0.0000
   170 C63      -0.4558    6.7636    0.8274   C.3       1 RES1   0.0000
   171 C64      -0.3709    7.4844    2.1830   C.3       1 RES1   0.0000
   172 C65       0.4461    6.7741    3.2712   C.3       1 RES1   0.0000
   173 C66       1.9451    6.6895    2.9643   C.3       1 RES1   0.0000
   174 C67       2.8175    6.6090    4.2201   C.3       1 RES1   0.0000
   175 C68       2.7029    5.2866    4.9752   C.3       1 RES1   0.0000
   176 C69       3.5956    5.2659    6.2161   C.3       1 RES1   0.0000
   177 C70       3.5895    3.9110    6.9138   C.3       1 RES1   0.0000
   178 C71      -1.5843    2.9442    0.6121   C.2       1 RES1   0.0000
   179 O4       -1.7214    1.9481   -0.1274   O.2       1 RES1   0.0000
   180 C72      -0.2105    3.0841    1.2859   C.3       1 RES1   0.0000
   181 C73      -0.2517    2.5023    2.7067   C.3       1 RES1   0.0000
   182 C74      -0.9074    1.1211    2.7718   C.3       1 RES1   0.0000
   183 C75      -1.0742    0.6217    4.2066   C.3       1 RES1   0.0000
   184 O5        0.7257    2.3523    0.4800   O.3       1 RES1   0.0000
   185 C76       1.2272    3.1219   -0.6323   C.3       1 RES1   0.0000
   186 C77       2.7512    3.2043   -0.4585   C.3       1 RES1   0.0000
   187 C78       3.4348    1.8695   -0.7508   C.3       1 RES1   0.0000
   188 C79       3.5836    1.4954   -2.2260   C.3       1 RES1   0.0000
   189 C80       0.8634    2.4378   -1.9626   C.2       1 RES1   0.0000
   190 O6        0.4771    1.2536   -1.9227   O.2       1 RES1   0.0000
   191 N4        1.0400    3.0948   -3.1053   N.am      1 RES1   0.0000
   192 C81       0.9828    2.3376   -4.3603   C.3       1 RES1   0.0000
   193 C82      -0.2589    2.5705   -5.2251   C.3       1 RES1   0.0000
   194 C83      -0.1283    1.7622   -6.5225   C.3       1 RES1   0.0000
   195 C84      -0.5992    0.3142   -6.3537   C.3       1 RES1   0.0000
   196 C85       0.1233   -0.6823   -7.2682   C.3       1 RES1   0.0000
   197 C86       1.4988   -1.0918   -6.7349   C.3       1 RES1   0.0000
   198 C87       2.1013   -2.2500   -7.5294   C.3       1 RES1   0.0000
   199 C88       3.3643   -2.8299   -6.8896   C.3       1 RES1   0.0000
   200 C89       4.5540   -1.8711   -6.8931   C.3       1 RES1   0.0000
   201 C90       5.8014   -2.5294   -6.3143   C.3       1 RES1   0.0000
   202 C91       1.6575    4.4235   -3.1596   C.3       1 RES1   0.0000
   203 C92       1.4764    5.2545   -4.4274   C.3       1 RES1   0.0000
   204 C93       2.4834    6.4093   -4.3879   C.3       1 RES1   0.0000
   205 C94       2.3801    7.3309   -5.6016   C.3       1 RES1   0.0000
   206 C95       2.6598    6.6758   -6.9581   C.3       1 RES1   0.0000
   207 C96       4.0707    6.0899   -7.1317   C.3       1 RES1   0.0000
   208 C97       4.1674    4.5900   -6.8437   C.3       1 RES1   0.0000
   209 C98       5.5141    4.0158   -7.2780   C.3       1 RES1   0.0000
   210 C99       5.6190    2.5010   -7.0997   C.3       1 RES1   0.0000
   211 C100      5.6238    2.0584   -5.6392   C.3       1 RES1   0.0000
   212 H101     -2.5027    3.2785    6.0553   H         1 RES1   0.0000
   213 H102     -4.0972    3.9938    5.8413   H         1 RES1   0.0000
   214 H103     -3.4367    2.9474    4.5847   H         1 RES1   0.0000
   215 H104     -4.2624    2.1357    7.4126   H         1 RES1   0.0000
   216 H105     -3.5111    1.0203    6.2775   H         1 RES1   0.0000
   217 H106     -6.0727    2.5056    5.6059   H         1 RES1   0.0000
   218 H107     -6.0930    0.9902    6.4962   H         1 RES1   0.0000
   219 H108     -5.1771   -0.2569    4.7122   H         1 RES1   0.0000
   220 H109     -4.7022    1.1712    3.7990   H         1 RES1   0.0000
   221 H110     -7.6092    0.6830    4.4925   H         1 RES1   0.0000
   222 H111     -6.8863   -0.1169    3.0986   H         1 RES1   0.0000
   223 H112     -6.5980    2.8807    3.4168   H         1 RES1   0.0000
   224 H113     -8.0989    2.2137    2.7951   H         1 RES1   0.0000
   225 H114     -7.0632    1.2002    0.9263   H         1 RES1   0.0000
   226 H115     -5.4396    1.4102    1.5616   H         1 RES1   0.0000
   227 H116     -7.1904    3.8260    1.0265   H         1 RES1   0.0000
   228 H117     -6.3430    3.0599   -0.3043   H         1 RES1   0.0000
   229 H118     -4.8148    3.7530    2.2043   H         1 RES1   0.0000
   230 H119     -5.2295    5.0474    1.0700   H         1 RES1   0.0000
   231 H120     -3.9354    4.0865   -0.6963   H         1 RES1   0.0000
   232 H121     -3.9288    2.4899    0.0683   H         1 RES1   0.0000
   233 H122     -1.6271    4.9783    2.3307   H         1 RES1   0.0000
   234 H123     -3.2817    5.4036    1.9395   H         1 RES1   0.0000
   235 H124     -2.5548    6.9728    0.4745   H         1 RES1   0.0000
   236 H125     -1.7909    5.7054   -0.4794   H         1 RES1   0.0000
   237 H126     -0.2450    7.4775    0.0320   H         1 RES1   0.0000
   238 H127      0.3193    5.9999    0.7689   H         1 RES1   0.0000
   239 H128     -1.3830    7.6548    2.5569   H         1 RES1   0.0000
   240 H129      0.0799    8.4669    2.0282   H         1 RES1   0.0000
   241 H130      0.0451    5.7759    3.4656   H         1 RES1   0.0000
   242 H131      0.3194    7.3532    4.1860   H         1 RES1   0.0000
   243 H132      2.2322    7.5851    2.4099   H         1 RES1   0.0000
   244 H133      2.1584    5.8266    2.3266   H         1 RES1   0.0000
   245 H134      2.5612    7.4355    4.8845   H         1 RES1   0.0000
   246 H135      3.8592    6.7433    3.9218   H         1 RES1   0.0000
   247 H136      3.0047    4.4759    4.3048   H         1 RES1   0.0000
   248 H137      1.6662    5.1109    5.2709   H         1 RES1   0.0000
   249 H138      3.2598    6.0314    6.9170   H         1 RES1   0.0000
   250 H139      4.6181    5.5161    5.9247   H         1 RES1   0.0000
   251 H140      2.5771    3.6098    7.1736   H         1 RES1   0.0000
   252 H141      4.1763    3.9533    7.8261   H         1 RES1   0.0000
   253 H142      4.0209    3.1497    6.2688   H         1 RES1   0.0000
   254 H143      0.1322    4.1214    1.3450   H         1 RES1   0.0000
   255 H144      0.7711    2.4577    3.0830   H         1 RES1   0.0000
   256 H145     -0.8093    3.1927    3.3413   H         1 RES1   0.0000
   257 H146     -0.2970    0.4013    2.1801   H         1 RES1   0.0000
   258 H147     -1.9060    1.1705    2.3292   H         1 RES1   0.0000
   259 H148     -0.1228    0.5743    4.7344   H         1 RES1   0.0000
   260 H149     -1.5279   -0.3674    4.1999   H         1 RES1   0.0000
   261 H150     -1.7332    1.2831    4.7623   H         1 RES1   0.0000
   262 H151      0.7905    4.1261   -0.5970   H         1 RES1   0.0000
   263 H152      3.1764    3.9963   -1.0701   H         1 RES1   0.0000
   264 H153      2.9310    3.4692    0.5880   H         1 RES1   0.0000
   265 H154      2.8733    1.0884   -0.2405   H         1 RES1   0.0000
   266 H155      4.4251    1.9197   -0.3002   H         1 RES1   0.0000
   267 H156      2.7008    1.0028   -2.6171   H         1 RES1   0.0000
   268 H157      4.4098    0.8033   -2.3523   H         1 RES1   0.0000
   269 H158      3.8042    2.3729   -2.8309   H         1 RES1   0.0000
   270 H159      1.0294    1.2739   -4.1113   H         1 RES1   0.0000
   271 H160      1.8750    2.6005   -4.9356   H         1 RES1   0.0000
   272 H161     -0.3686    3.6284   -5.4622   H         1 RES1   0.0000
   273 H162     -1.1484    2.2546   -4.6786   H         1 RES1   0.0000
   274 H163      0.9134    1.7844   -6.8452   H         1 RES1   0.0000
   275 H164     -0.7156    2.2379   -7.3069   H         1 RES1   0.0000
   276 H165     -1.6702    0.2733   -6.5590   H         1 RES1   0.0000
   277 H166     -0.4608   -0.0019   -5.3174   H         1 RES1   0.0000
   278 H167      0.2187   -0.2591   -8.2707   H         1 RES1   0.0000
   279 H168     -0.4946   -1.5793   -7.3559   H         1 RES1   0.0000
   280 H169      1.3960   -1.4073   -5.6921   H         1 RES1   0.0000
   281 H170      2.1730   -0.2348   -6.7571   H         1 RES1   0.0000
   282 H171      2.3311   -1.9220   -8.5443   H         1 RES1   0.0000
   283 H172      1.3572   -3.0478   -7.6009   H         1 RES1   0.0000
   284 H173      3.6481   -3.7312   -7.4369   H         1 RES1   0.0000
   285 H174      3.1455   -3.1303   -5.8600   H         1 RES1   0.0000
   286 H175      4.3132   -0.9808   -6.3084   H         1 RES1   0.0000
   287 H176      4.7557   -1.5545   -7.9179   H         1 RES1   0.0000
   288 H177      5.6248   -2.8462   -5.2877   H         1 RES1   0.0000
   289 H178      6.6415   -1.8395   -6.3224   H         1 RES1   0.0000
   290 H179      6.0740   -3.4045   -6.8982   H         1 RES1   0.0000
   291 H180      2.7383    4.2938   -3.0338   H         1 RES1   0.0000
   292 H181      1.2885    5.0240   -2.3269   H         1 RES1   0.0000
   293 H182      0.4643    5.6541   -4.4935   H         1 RES1   0.0000
   294 H183      1.6783    4.6656   -5.3169   H         1 RES1   0.0000
   295 H184      3.4973    6.0096   -4.3292   H         1 RES1   0.0000
   296 H185      2.3244    7.0039   -3.4856   H         1 RES1   0.0000
   297 H186      3.0857    8.1518   -5.4631   H         1 RES1   0.0000
   298 H187      1.3785    7.7661   -5.6318   H         1 RES1   0.0000
   299 H188      2.5184    7.4549   -7.7089   H         1 RES1   0.0000
   300 H189      1.9164    5.9036   -7.1651   H         1 RES1   0.0000
   301 H190      4.7752    6.6426   -6.5061   H         1 RES1   0.0000
   302 H191      4.3820    6.2416   -8.1673   H         1 RES1   0.0000
   303 H192      3.3776    4.0783   -7.3991   H         1 RES1   0.0000
   304 H193      4.0154    4.4002   -5.7808   H         1 RES1   0.0000
   305 H194      6.3182    4.4994   -6.7192   H         1 RES1   0.0000
   306 H195      5.6618    4.2481   -8.3338   H         1 RES1   0.0000
   307 H196      6.5472    2.1658   -7.5634   H         1 RES1   0.0000
   308 H197      4.7953    2.0109   -7.6237   H         1 RES1   0.0000
   309 H198      6.3929    2.5916   -5.0829   H         1 RES1   0.0000
   310 H199      5.8290    0.9918   -5.5682   H         1 RES1   0.0000
   311 H200      4.6606    2.2459   -5.1666   H         1 RES1   0.0000
   312 N5       -2.6295   -0.3408   -0.7660   N.3       1 RES1   0.0000
   313 O7       -3.8010   -0.2715   -0.9404   O.2       1 RES1   0.0000
   314 O8       -2.1641   -0.4699    0.3864   O.co2     1 RES1   0.0000
   315 O9       -1.8261   -0.3341   -1.7001   O.co2     1 RES1   0.0000
@<TRIPOS>BOND
     1     1    24    1
     2     1    29    1
     3     1    35    1
     4     1   179    1
     5     1   184    1
     6     1   190    1
     7     1   314    1
     8     1   315    1
     9     2     3    1
    10     2    57    1
    11     2    58    1
    12     2    59    1
    13     3     4    1
    14     3    60    1
    15     3    61    1
    16     4     5    1
    17     4    62    1
    18     4    63    1
    19     5     6    1
    20     5    64    1
    21     5    65    1
    22     6     7    1
    23     6    66    1
    24     6    67    1
    25     7     8    1
    26     7    68    1
    27     7    69    1
    28     8     9    1
    29     8    70    1
    30     8    71    1
    31     9    10    1
    32     9    72    1
    33     9    73    1
    34    10    11    1
    35    10    74    1
    36    10    75    1
    37    11    12    1
    38    11    76    1
    39    11    77    1
    40    12    13    1
    41    12    23    1
    42    13    14    1
    43    13    78    1
    44    13    79    1
    45    14    15    1
    46    14    80    1
    47    14    81    1
    48    15    16    1
    49    15    82    1
    50    15    83    1
    51    16    17    1
    52    16    84    1
    53    16    85    1
    54    17    18    1
    55    17    86    1
    56    17    87    1
    57    18    19    1
    58    18    88    1
    59    18    89    1
    60    19    20    1
    61    19    90    1
    62    19    91    1
    63    20    21    1
    64    20    92    1
    65    20    93    1
    66    21    22    1
    67    21    94    1
    68    21    95    1
    69    22    96    1
    70    22    97    1
    71    22    98    1
    72    23    24    2
    73    23    25    1
    74    25    26    1
    75    25    29    1
    76    25    99    1
    77    26    27    1
    78    26   100    1
    79    26   101    1
    80    27    28    1
    81    27   102    1
    82    27   103    1
    83    28   104    1
    84    28   105    1
    85    28   106    1
    86    29    30    1
    87    30    31    1
    88    30    34    1
    89    30   107    1
    90    31    32    1
    91    31   108    1
    92    31   109    1
    93    32    33    1
    94    32   110    1
    95    32   111    1
    96    33   112    1
    97    33   113    1
    98    33   114    1
    99    34    35    2
   100    34    36    1
   101    36    37    1
   102    36    47    1
   103    37    38    1
   104    37   115    1
   105    37   116    1
   106    38    39    1
   107    38   117    1
   108    38   118    1
   109    39    40    1
   110    39   119    1
   111    39   120    1
   112    40    41    1
   113    40   121    1
   114    40   122    1
   115    41    42    1
   116    41   123    1
   117    41   124    1
   118    42    43    1
   119    42   125    1
   120    42   126    1
   121    43    44    1
   122    43   127    1
   123    43   128    1
   124    44    45    1
   125    44   129    1
   126    44   130    1
   127    45    46    1
   128    45   131    1
   129    45   132    1
   130    46   133    1
   131    46   134    1
   132    46   135    1
   133    47    48    1
   134    47   136    1
   135    47   137    1
   136    48    49    1
   137    48   138    1
   138    48   139    1
   139    49    50    1
   140    49   140    1
   141    49   141    1
   142    50    51    1
   143    50   142    1
   144    50   143    1
   145    51    52    1
   146    51   144    1
   147    51   145    1
   148    52    53    1
   149    52   146    1
   150    52   147    1
   151    53    54    1
   152    53   148    1
   153    53   149    1
   154    54    55    1
   155    54   150    1
   156    54   151    1
   157    55    56    1
   158    55   152    1
   159    55   153    1
   160    56   154    1
   161    56   155    1
   162    56   156    1
   163   157   158    1
   164   157   212    1
   165   157   213    1
   166   157   214    1
   167   158   159    1
   168   158   215    1
   169   158   216    1
   170   159   160    1
   171   159   217    1
   172   159   218    1
   173   160   161    1
   174   160   219    1
   175   160   220    1
   176   161   162    1
   177   161   221    1
   178   161   222    1
   179   162   163    1
   180   162   223    1
   181   162   224    1
   182   163   164    1
   183   163   225    1
   184   163   226    1
   185   164   165    1
   186   164   227    1
   187   164   228    1
   188   165   166    1
   189   165   229    1
   190   165   230    1
   191   166   167    1
   192   166   231    1
   193   166   232    1
   194   167   168    1
   195   167   178    1
   196   168   169    1
   197   168   233    1
   198   168   234    1
   199   169   170    1
   200   169   235    1
   201   169   236    1
   202   170   171    1
   203   170   237    1
   204   170   238    1
   205   171   172    1
   206   171   239    1
   207   171   240    1
   208   172   173    1
   209   172   241    1
   210   172   242    1
   211   173   174    1
   212   173   243    1
   213   173   244    1
   214   174   175    1
   215   174   245    1
   216   174   246    1
   217   175   176    1
   218   175   247    1
   219   175   248    1
   220   176   177    1
   221   176   249    1
   222   176   250    1
   223   177   251    1
   224   177   252    1
   225   177   253    1
   226   178   179    2
   227   178   180    1
   228   180   181    1
   229   180   184    1
   230   180   254    1
   231   181   182    1
   232   181   255    1
   233   181   256    1
   234   182   183    1
   235   182   257    1
   236   182   258    1
   237   183   259    1
   238   183   260    1
   239   183   261    1
   240   184   185    1
   241   185   186    1
   242   185   189    1
   243   185   262    1
   244   186   187    1
   245   186   263    1
   246   186   264    1
   247   187   188    1
   248   187   265    1
   249   187   266    1
   250   188   267    1
   251   188   268    1
   252   188   269    1
   253   189   190    2
   254   189   191    1
   255   191   192    1
   256   191   202    1
   257   192   193    1
   258   192   270    1
   259   192   271    1
   260   193   194    1
   261   193   272    1
   262   193   273    1
   263   194   195    1
   264   194   274    1
   265   194   275    1
   266   195   196    1
   267   195   276    1
   268   195   277    1
   269   196   197    1
   270   196   278    1
   271   196   279    1
   272   197   198    1
   273   197   280    1
   274   197   281    1
   275   198   199    1
   276   198   282    1
   277   198   283    1
   278   199   200    1
   279   199   284    1
   280   199   285    1
   281   200   201    1
   282   200   286    1
   283   200   287    1
   284   201   288    1
   285   201   289    1
   286   201   290    1
   287   202   203    1
   288   202   291    1
   289   202   292    1
   290   203   204    1
   291   203   293    1
   292   203   294    1
   293   204   205    1
   294   204   295    1
   295   204   296    1
   296   205   206    1
   297   205   297    1
   298   205   298    1
   299   206   207    1
   300   206   299    1
   301   206   300    1
   302   207   208    1
   303   207   301    1
   304   207   302    1
   305   208   209    1
   306   208   303    1
   307   208   304    1
   308   209   210    1
   309   209   305    1
   310   209   306    1
   311   210   211    1
   312   210   307    1
   313   210   308    1
   314   211   309    1
   315   211   310    1
   316   211   311    1
   317   312   313    2
   318   312   314    1
   319   312   315    1
@<TRIPOS>SUBSTRUCTURE
     1 RES1      315 GROUP             0 ****  ****    0  
