@<TRIPOS>MOLECULE
bicapped_trigonal_prismatic_0_nunpairedes_0_charge_3 Charge: 3 Unpaired_Electrons: 6 XTB_Unpaired_Electrons: 0 XTB_Charge: 3
   339   344     1     0     0
SMALL
NoCharges
****
Generated from Architector

@<TRIPOS>ATOM
     1 Tb1       0.0968   -0.1970    0.4390   Tb        1 RES1   0.0000
     2 C1       -9.3614   -3.9251   -0.0158   C.3       1 RES1   0.0000
     3 C2       -8.3906   -5.0823    0.2165   C.3       1 RES1   0.0000
     4 C3       -7.5186   -4.8373    1.4510   C.3       1 RES1   0.0000
     5 C4       -6.3809   -5.8508    1.6311   C.3       1 RES1   0.0000
     6 C5       -5.5473   -5.5942    2.9068   C.3       1 RES1   0.0000
     7 C6       -4.1683   -4.9674    2.6207   C.3       1 RES1   0.0000
     8 C7       -3.6217   -4.1986    3.8328   C.3       1 RES1   0.0000
     9 C8       -2.1231   -3.8288    3.7889   C.3       1 RES1   0.0000
    10 N1       -1.7569   -2.5019    3.2752   N.am      1 RES1   0.0000
    11 C9       -2.5342   -1.3350    3.7031   C.3       1 RES1   0.0000
    12 C10      -2.3101   -0.7228    5.0804   C.3       1 RES1   0.0000
    13 C11      -3.2091    0.5215    5.2145   C.3       1 RES1   0.0000
    14 C12      -2.8184    1.6874    4.2848   C.3       1 RES1   0.0000
    15 C13      -3.5647    1.8099    2.9498   C.3       1 RES1   0.0000
    16 C14      -4.9986    2.3224    3.0628   C.3       1 RES1   0.0000
    17 C15      -5.6993    2.3355    1.7014   C.3       1 RES1   0.0000
    18 C16      -7.2115    2.4423    1.8456   C.3       1 RES1   0.0000
    19 C17      -0.7365   -2.2380    2.4627   C.2       1 RES1   0.0000
    20 O1       -0.3509   -1.0618    2.3040   O.2       1 RES1   0.0000
    21 C18      -0.0869   -3.3505    1.6212   C.3       1 RES1   0.0000
    22 N2        1.0580   -2.8859    0.7975   N.4       1 RES1   0.0000
    23 C19       2.3498   -3.1051    1.4727   C.3       1 RES1   0.0000
    24 C20       2.8449   -1.9040    2.2879   C.2       1 RES1   0.0000
    25 O2        2.2499   -0.8245    2.1446   O.2       1 RES1   0.0000
    26 N3        3.9065   -2.1472    3.0623   N.am      1 RES1   0.0000
    27 C21       4.2665   -1.4406    4.3045   C.3       1 RES1   0.0000
    28 C22       4.0158    0.0627    4.3945   C.3       1 RES1   0.0000
    29 C23       5.2940    0.9143    4.3890   C.3       1 RES1   0.0000
    30 C24       5.0916    2.2506    5.1217   C.3       1 RES1   0.0000
    31 C25       5.6163    3.4664    4.3557   C.3       1 RES1   0.0000
    32 C26       5.1270    4.7614    5.0028   C.3       1 RES1   0.0000
    33 C27       5.5284    6.0343    4.2561   C.3       1 RES1   0.0000
    34 C28       4.7515    6.2282    2.9601   C.3       1 RES1   0.0000
    35 C29       4.7658   -3.3149    2.8460   C.3       1 RES1   0.0000
    36 C30       5.7821   -3.0606    1.7239   C.3       1 RES1   0.0000
    37 C31       6.7737   -1.9295    2.0135   C.3       1 RES1   0.0000
    38 C32       7.6690   -1.6619    0.8003   C.3       1 RES1   0.0000
    39 C33       8.6012   -0.4593    0.9733   C.3       1 RES1   0.0000
    40 C34       7.8662    0.8782    1.0449   C.3       1 RES1   0.0000
    41 C35       8.8029    2.0819    0.9540   C.3       1 RES1   0.0000
    42 C36       8.0209    3.3887    1.0194   C.3       1 RES1   0.0000
    43 C37       1.0968   -3.6290   -0.4754   C.3       1 RES1   0.0000
    44 C38       0.3929   -2.8679   -1.5881   C.2       1 RES1   0.0000
    45 O3       -0.2476   -1.8334   -1.2933   O.2       1 RES1   0.0000
    46 N4        0.5530   -3.3089   -2.8267   N.am      1 RES1   0.0000
    47 C39       1.2331   -4.5513   -3.1676   C.3       1 RES1   0.0000
    48 C40       2.4934   -4.3568   -4.0174   C.3       1 RES1   0.0000
    49 C41       3.6165   -3.5685   -3.3311   C.3       1 RES1   0.0000
    50 C42       4.5879   -4.4663   -2.5650   C.3       1 RES1   0.0000
    51 C43       5.7199   -3.6700   -1.9156   C.3       1 RES1   0.0000
    52 C44       6.7864   -3.1843   -2.9072   C.3       1 RES1   0.0000
    53 C45       8.0375   -4.0654   -2.9444   C.3       1 RES1   0.0000
    54 C46       7.7799   -5.4538   -3.5160   C.3       1 RES1   0.0000
    55 C47       0.0085   -2.5390   -3.9360   C.3       1 RES1   0.0000
    56 C48      -1.1111   -3.2374   -4.7189   C.3       1 RES1   0.0000
    57 C49      -0.6408   -4.2130   -5.8193   C.3       1 RES1   0.0000
    58 C50      -1.3341   -5.5774   -5.7378   C.3       1 RES1   0.0000
    59 C51      -0.6871   -6.6162   -6.6631   C.3       1 RES1   0.0000
    60 C52       0.5763   -7.2595   -6.0837   C.3       1 RES1   0.0000
    61 C53       0.2820   -8.2383   -4.9448   C.3       1 RES1   0.0000
    62 C54       1.5663   -8.7670   -4.3163   C.3       1 RES1   0.0000
    63 H1       -9.9672   -4.1155   -0.8965   H         1 RES1   0.0000
    64 H2       -8.8303   -2.9840   -0.1636   H         1 RES1   0.0000
    65 H3      -10.0280   -3.8073    0.8348   H         1 RES1   0.0000
    66 H4       -7.7527   -5.2077   -0.6641   H         1 RES1   0.0000
    67 H5       -8.9521   -6.0096    0.3440   H         1 RES1   0.0000
    68 H6       -8.1557   -4.8462    2.3384   H         1 RES1   0.0000
    69 H7       -7.1032   -3.8309    1.3652   H         1 RES1   0.0000
    70 H8       -5.7286   -5.8192    0.7514   H         1 RES1   0.0000
    71 H9       -6.8201   -6.8488    1.6629   H         1 RES1   0.0000
    72 H10      -5.3892   -6.5353    3.4367   H         1 RES1   0.0000
    73 H11      -6.1186   -4.9437    3.5738   H         1 RES1   0.0000
    74 H12      -4.2476   -4.2905    1.7662   H         1 RES1   0.0000
    75 H13      -3.4865   -5.7770    2.3515   H         1 RES1   0.0000
    76 H14      -3.7813   -4.7935    4.7357   H         1 RES1   0.0000
    77 H15      -4.2175   -3.2998    3.9506   H         1 RES1   0.0000
    78 H16      -1.5875   -4.5794    3.2095   H         1 RES1   0.0000
    79 H17      -1.7376   -3.8715    4.8128   H         1 RES1   0.0000
    80 H18      -3.5847   -1.6080    3.6431   H         1 RES1   0.0000
    81 H19      -2.3215   -0.5648    2.9608   H         1 RES1   0.0000
    82 H20      -1.2671   -0.4465    5.2316   H         1 RES1   0.0000
    83 H21      -2.5856   -1.4392    5.8537   H         1 RES1   0.0000
    84 H22      -3.1192    0.8702    6.2444   H         1 RES1   0.0000
    85 H23      -4.2539    0.2340    5.0705   H         1 RES1   0.0000
    86 H24      -1.7526    1.5879    4.0673   H         1 RES1   0.0000
    87 H25      -2.9624    2.6205    4.8307   H         1 RES1   0.0000
    88 H26      -3.5682    0.8530    2.4298   H         1 RES1   0.0000
    89 H27      -3.0126    2.4960    2.3020   H         1 RES1   0.0000
    90 H28      -4.9980    3.3297    3.4758   H         1 RES1   0.0000
    91 H29      -5.5676    1.7035    3.7579   H         1 RES1   0.0000
    92 H30      -5.4421    1.4245    1.1549   H         1 RES1   0.0000
    93 H31      -5.3323    3.1671    1.0968   H         1 RES1   0.0000
    94 H32      -7.5947    1.6363    2.4655   H         1 RES1   0.0000
    95 H33      -7.7000    2.3973    0.8754   H         1 RES1   0.0000
    96 H34      -7.4839    3.3786    2.3218   H         1 RES1   0.0000
    97 H35      -0.8779   -3.6865    0.9407   H         1 RES1   0.0000
    98 H36       0.2181   -4.2033    2.2450   H         1 RES1   0.0000
    99 H37       3.1140   -3.3024    0.7184   H         1 RES1   0.0000
   100 H38       2.2729   -3.9773    2.1344   H         1 RES1   0.0000
   101 H39       5.3235   -1.6371    4.4867   H         1 RES1   0.0000
   102 H40       3.7108   -1.9568    5.0948   H         1 RES1   0.0000
   103 H41       3.4906    0.2540    5.3291   H         1 RES1   0.0000
   104 H42       3.3590    0.3550    3.5791   H         1 RES1   0.0000
   105 H43       5.6023    1.0981    3.3617   H         1 RES1   0.0000
   106 H44       6.1153    0.3711    4.8566   H         1 RES1   0.0000
   107 H45       5.5750    2.1897    6.0964   H         1 RES1   0.0000
   108 H46       4.0262    2.3840    5.3192   H         1 RES1   0.0000
   109 H47       5.2625    3.4154    3.3249   H         1 RES1   0.0000
   110 H48       6.7072    3.4458    4.3268   H         1 RES1   0.0000
   111 H49       5.5155    4.8153    6.0202   H         1 RES1   0.0000
   112 H50       4.0350    4.7361    5.0645   H         1 RES1   0.0000
   113 H51       6.5970    6.0286    4.0444   H         1 RES1   0.0000
   114 H52       5.3361    6.8910    4.9036   H         1 RES1   0.0000
   115 H53       4.9236    5.4026    2.2742   H         1 RES1   0.0000
   116 H54       5.0554    7.1462    2.4621   H         1 RES1   0.0000
   117 H55       3.6884    6.2856    3.1834   H         1 RES1   0.0000
   118 H56       4.1905   -4.2158    2.6267   H         1 RES1   0.0000
   119 H57       5.3016   -3.5142    3.7731   H         1 RES1   0.0000
   120 H58       5.2440   -2.8174    0.8073   H         1 RES1   0.0000
   121 H59       6.3306   -3.9877    1.5472   H         1 RES1   0.0000
   122 H60       7.3927   -2.2008    2.8693   H         1 RES1   0.0000
   123 H61       6.2203   -1.0228    2.2645   H         1 RES1   0.0000
   124 H62       7.0242   -1.4909   -0.0671   H         1 RES1   0.0000
   125 H63       8.2700   -2.5536    0.6000   H         1 RES1   0.0000
   126 H64       9.2757   -0.4377    0.1180   H         1 RES1   0.0000
   127 H65       9.2152   -0.5911    1.8647   H         1 RES1   0.0000
   128 H66       7.3132    0.9438    1.9834   H         1 RES1   0.0000
   129 H67       7.1445    0.9375    0.2247   H         1 RES1   0.0000
   130 H68       9.3607    2.0390    0.0176   H         1 RES1   0.0000
   131 H69       9.5291    2.0465    1.7671   H         1 RES1   0.0000
   132 H70       7.2761    3.4243    0.2250   H         1 RES1   0.0000
   133 H71       8.6851    4.2414    0.9135   H         1 RES1   0.0000
   134 H72       7.5106    3.4793    1.9748   H         1 RES1   0.0000
   135 H73       0.6610   -4.6272   -0.3542   H         1 RES1   0.0000
   136 H74       2.1387   -3.7462   -0.7863   H         1 RES1   0.0000
   137 H75       0.5175   -5.1530   -3.7271   H         1 RES1   0.0000
   138 H76       1.4877   -5.0963   -2.2641   H         1 RES1   0.0000
   139 H77       2.2311   -3.8643   -4.9540   H         1 RES1   0.0000
   140 H78       2.8595   -5.3544   -4.2725   H         1 RES1   0.0000
   141 H79       3.2057   -2.7985   -2.6667   H         1 RES1   0.0000
   142 H80       4.1907   -3.0358   -4.0897   H         1 RES1   0.0000
   143 H81       5.0090   -5.1889   -3.2604   H         1 RES1   0.0000
   144 H82       4.0571   -5.0339   -1.7966   H         1 RES1   0.0000
   145 H83       6.2065   -4.2857   -1.1566   H         1 RES1   0.0000
   146 H84       5.2792   -2.8034   -1.4119   H         1 RES1   0.0000
   147 H85       7.0939   -2.1747   -2.6297   H         1 RES1   0.0000
   148 H86       6.3703   -3.1250   -3.9151   H         1 RES1   0.0000
   149 H87       8.4475   -4.1549   -1.9350   H         1 RES1   0.0000
   150 H88       8.7889   -3.5658   -3.5596   H         1 RES1   0.0000
   151 H89       7.1248   -6.0308   -2.8686   H         1 RES1   0.0000
   152 H90       8.7129   -5.9998   -3.6159   H         1 RES1   0.0000
   153 H91       7.3274   -5.3815   -4.5024   H         1 RES1   0.0000
   154 H92       0.8314   -2.2940   -4.6051   H         1 RES1   0.0000
   155 H93      -0.3538   -1.6077   -3.4977   H         1 RES1   0.0000
   156 H94      -1.7178   -2.4563   -5.1825   H         1 RES1   0.0000
   157 H95      -1.7488   -3.7641   -4.0085   H         1 RES1   0.0000
   158 H96       0.4371   -4.3661   -5.7731   H         1 RES1   0.0000
   159 H97      -0.8561   -3.7865   -6.7998   H         1 RES1   0.0000
   160 H98      -2.3807   -5.4576   -6.0237   H         1 RES1   0.0000
   161 H99      -1.3071   -5.9436   -4.7064   H         1 RES1   0.0000
   162 H100     -0.4411   -6.1436   -7.6157   H         1 RES1   0.0000
   163 H101     -1.4043   -7.4091   -6.8765   H         1 RES1   0.0000
   164 H102      1.2670   -6.4883   -5.7304   H         1 RES1   0.0000
   165 H103      1.0906   -7.8031   -6.8798   H         1 RES1   0.0000
   166 H104     -0.3064   -9.0693   -5.3382   H         1 RES1   0.0000
   167 H105     -0.3217   -7.7574   -4.1696   H         1 RES1   0.0000
   168 H106      2.1891   -9.2353   -5.0733   H         1 RES1   0.0000
   169 H107      1.3428   -9.5028   -3.5484   H         1 RES1   0.0000
   170 H108      2.1368   -7.9585   -3.8586   H         1 RES1   0.0000
   171 C55       1.4892    8.8068    3.7002   C.3       1 RES1   0.0000
   172 C56       1.6685    8.9887    2.1989   C.3       1 RES1   0.0000
   173 C57       0.4765    8.4645    1.3986   C.3       1 RES1   0.0000
   174 C58       0.7326    8.5769   -0.1058   C.3       1 RES1   0.0000
   175 C59      -0.4875    8.4159   -1.0205   C.3       1 RES1   0.0000
   176 C60      -0.9599    6.9746   -1.2345   C.3       1 RES1   0.0000
   177 C61      -1.9038    6.4969   -0.1320   C.3       1 RES1   0.0000
   178 C62      -2.2673    5.0146   -0.2446   C.3       1 RES1   0.0000
   179 N5       -1.2555    4.0831    0.2598   N.am      1 RES1   0.0000
   180 C63      -0.2381    4.5611    1.1919   C.3       1 RES1   0.0000
   181 C64      -0.7487    4.6483    2.6340   C.3       1 RES1   0.0000
   182 C65       0.4312    4.7777    3.6022   C.3       1 RES1   0.0000
   183 C66       0.9154    3.4390    4.1550   C.3       1 RES1   0.0000
   184 C67       1.3629    2.4128    3.1161   C.3       1 RES1   0.0000
   185 C68       2.6101    2.8095    2.3208   C.3       1 RES1   0.0000
   186 C69       2.6843    2.0929    0.9693   C.3       1 RES1   0.0000
   187 C70       4.1128    1.9019    0.4677   C.3       1 RES1   0.0000
   188 C71      -1.3104    2.7758    0.0549   C.2       1 RES1   0.0000
   189 O4       -0.5031    1.9856    0.6022   O.2       1 RES1   0.0000
   190 C72      -2.3994    2.1690   -0.8116   C.3       1 RES1   0.0000
   191 N6       -1.9697    0.8900   -1.3937   N.4       1 RES1   0.0000
   192 C73      -3.1553    0.0430   -1.5160   C.3       1 RES1   0.0000
   193 C74      -3.4458   -0.6178   -0.1729   C.2       1 RES1   0.0000
   194 O5       -2.5012   -0.7245    0.6369   O.2       1 RES1   0.0000
   195 N7       -4.6829   -1.0473    0.0612   N.am      1 RES1   0.0000
   196 C75      -5.0260   -1.7525    1.2974   C.3       1 RES1   0.0000
   197 C76      -5.8623   -0.9429    2.3002   C.3       1 RES1   0.0000
   198 C77      -6.6684   -1.8558    3.2440   C.3       1 RES1   0.0000
   199 C78      -6.8511   -1.4074    4.7151   C.3       1 RES1   0.0000
   200 C79      -6.0617   -2.2612    5.7151   C.3       1 RES1   0.0000
   201 C80      -6.3732   -1.9732    7.1869   C.3       1 RES1   0.0000
   202 C81      -5.5832   -2.9019    8.1234   C.3       1 RES1   0.0000
   203 C82      -4.1429   -2.4391    8.3548   C.3       1 RES1   0.0000
   204 C83      -5.7209   -1.1100   -0.9609   C.3       1 RES1   0.0000
   205 C84      -5.5158   -2.2072   -2.0264   C.3       1 RES1   0.0000
   206 C85      -4.9389   -3.5453   -1.5390   C.3       1 RES1   0.0000
   207 C86      -3.4197   -3.5296   -1.3112   C.3       1 RES1   0.0000
   208 C87      -2.6957   -4.8206   -1.7076   C.3       1 RES1   0.0000
   209 C88      -2.8004   -6.0164   -0.7641   C.3       1 RES1   0.0000
   210 C89      -2.0485   -7.2096   -1.3594   C.3       1 RES1   0.0000
   211 C90      -2.1106   -8.4475   -0.4764   C.3       1 RES1   0.0000
   212 C91      -1.3079    1.0816   -2.6858   C.3       1 RES1   0.0000
   213 C92       0.2142    1.1759   -2.5567   C.2       1 RES1   0.0000
   214 O6        0.7767    0.7496   -1.5195   O.2       1 RES1   0.0000
   215 N8        0.9234    1.6719   -3.5603   N.am      1 RES1   0.0000
   216 C93       0.4142    2.0781   -4.8655   C.3       1 RES1   0.0000
   217 C94       0.8365    1.1148   -5.9884   C.3       1 RES1   0.0000
   218 C95      -0.2343    0.0853   -6.3602   C.3       1 RES1   0.0000
   219 C96      -1.2050    0.6168   -7.4145   C.3       1 RES1   0.0000
   220 C97      -2.2074   -0.4326   -7.8927   C.3       1 RES1   0.0000
   221 C98      -1.5547   -1.5550   -8.6959   C.3       1 RES1   0.0000
   222 C99      -2.5674   -2.6119   -9.1379   C.3       1 RES1   0.0000
   223 C100     -3.4086   -2.1729  -10.3276   C.3       1 RES1   0.0000
   224 C101      2.3759    1.7523   -3.3726   C.3       1 RES1   0.0000
   225 C102      2.8465    3.0287   -2.6625   C.3       1 RES1   0.0000
   226 C103      2.8403    4.2900   -3.5386   C.3       1 RES1   0.0000
   227 C104      1.7050    5.2466   -3.1763   C.3       1 RES1   0.0000
   228 C105      1.5998    6.4392   -4.1306   C.3       1 RES1   0.0000
   229 C106      1.0352    6.1014   -5.5123   C.3       1 RES1   0.0000
   230 C107     -0.4752    5.8658   -5.4877   C.3       1 RES1   0.0000
   231 C108     -0.9962    5.3409   -6.8215   C.3       1 RES1   0.0000
   232 H109      2.3613    9.1779    4.2296   H         1 RES1   0.0000
   233 H110      1.3517    7.7581    3.9544   H         1 RES1   0.0000
   234 H111      0.6216    9.3563    4.0519   H         1 RES1   0.0000
   235 H112      2.5702    8.4650    1.8743   H         1 RES1   0.0000
   236 H113      1.8032   10.0474    1.9779   H         1 RES1   0.0000
   237 H114     -0.4115    9.0378    1.6676   H         1 RES1   0.0000
   238 H115      0.3080    7.4279    1.6962   H         1 RES1   0.0000
   239 H116      1.5080    7.8598   -0.3927   H         1 RES1   0.0000
   240 H117      1.1393    9.5732   -0.2837   H         1 RES1   0.0000
   241 H118     -0.2202    8.8374   -1.9926   H         1 RES1   0.0000
   242 H119     -1.3190    9.0056   -0.6293   H         1 RES1   0.0000
   243 H120     -0.0971    6.3153   -1.3223   H         1 RES1   0.0000
   244 H121     -1.4971    6.9232   -2.1818   H         1 RES1   0.0000
   245 H122     -2.8295    7.0675   -0.2165   H         1 RES1   0.0000
   246 H123     -1.4887    6.7278    0.8428   H         1 RES1   0.0000
   247 H124     -2.4371    4.7976   -1.3030   H         1 RES1   0.0000
   248 H125     -3.2105    4.8420    0.2863   H         1 RES1   0.0000
   249 H126      0.1405    5.5251    0.8594   H         1 RES1   0.0000
   250 H127      0.5815    3.8499    1.1555   H         1 RES1   0.0000
   251 H128     -1.3189    3.7474    2.8630   H         1 RES1   0.0000
   252 H129     -1.4248    5.4972    2.7458   H         1 RES1   0.0000
   253 H130      0.1376    5.3914    4.4509   H         1 RES1   0.0000
   254 H131      1.2503    5.2973    3.1049   H         1 RES1   0.0000
   255 H132      0.1135    2.9919    4.7450   H         1 RES1   0.0000
   256 H133      1.7426    3.6261    4.8377   H         1 RES1   0.0000
   257 H134      0.5329    2.1889    2.4423   H         1 RES1   0.0000
   258 H135      1.5685    1.4774    3.6383   H         1 RES1   0.0000
   259 H136      3.4871    2.5464    2.9025   H         1 RES1   0.0000
   260 H137      2.6493    3.8849    2.1517   H         1 RES1   0.0000
   261 H138      2.1177    2.6530    0.2221   H         1 RES1   0.0000
   262 H139      2.2143    1.0907    1.0530   H         1 RES1   0.0000
   263 H140      4.6135    2.8604    0.3454   H         1 RES1   0.0000
   264 H141      4.1157    1.3862   -0.4931   H         1 RES1   0.0000
   265 H142      4.6932    1.3194    1.1796   H         1 RES1   0.0000
   266 H143     -2.7432    2.8626   -1.5908   H         1 RES1   0.0000
   267 H144     -3.2358    1.9758   -0.1291   H         1 RES1   0.0000
   268 H145     -2.9728   -0.7584   -2.2296   H         1 RES1   0.0000
   269 H146     -4.0205    0.6113   -1.8738   H         1 RES1   0.0000
   270 H147     -4.0907   -2.0963    1.7351   H         1 RES1   0.0000
   271 H148     -5.6205   -2.6138    0.9979   H         1 RES1   0.0000
   272 H149     -6.5666   -0.3366    1.7367   H         1 RES1   0.0000
   273 H150     -5.2252   -0.2671    2.8617   H         1 RES1   0.0000
   274 H151     -6.2154   -2.8423    3.2628   H         1 RES1   0.0000
   275 H152     -7.6569   -1.9733    2.8044   H         1 RES1   0.0000
   276 H153     -7.9113   -1.5003    4.9636   H         1 RES1   0.0000
   277 H154     -6.5871   -0.3558    4.8514   H         1 RES1   0.0000
   278 H155     -4.9938   -2.1129    5.5627   H         1 RES1   0.0000
   279 H156     -6.2916   -3.3145    5.5438   H         1 RES1   0.0000
   280 H157     -7.4415   -2.1136    7.3697   H         1 RES1   0.0000
   281 H158     -6.1305   -0.9399    7.4426   H         1 RES1   0.0000
   282 H159     -5.5758   -3.9121    7.7030   H         1 RES1   0.0000
   283 H160     -6.1025   -2.9538    9.0843   H         1 RES1   0.0000
   284 H161     -3.5090   -2.6896    7.5029   H         1 RES1   0.0000
   285 H162     -3.7276   -2.9208    9.2366   H         1 RES1   0.0000
   286 H163     -4.1130   -1.3619    8.5124   H         1 RES1   0.0000
   287 H164     -5.8213   -0.1447   -1.4615   H         1 RES1   0.0000
   288 H165     -6.6629   -1.2960   -0.4422   H         1 RES1   0.0000
   289 H166     -4.8883   -1.8484   -2.8458   H         1 RES1   0.0000
   290 H167     -6.5034   -2.3904   -2.4539   H         1 RES1   0.0000
   291 H168     -5.1660   -4.2710   -2.3200   H         1 RES1   0.0000
   292 H169     -5.4588   -3.8713   -0.6405   H         1 RES1   0.0000
   293 H170     -3.1925   -3.2749   -0.2743   H         1 RES1   0.0000
   294 H171     -2.9876   -2.7497   -1.9433   H         1 RES1   0.0000
   295 H172     -1.6315   -4.5756   -1.8128   H         1 RES1   0.0000
   296 H173     -3.0807   -5.1239   -2.6844   H         1 RES1   0.0000
   297 H174     -3.8428   -6.2942   -0.6091   H         1 RES1   0.0000
   298 H175     -2.3766   -5.7664    0.2139   H         1 RES1   0.0000
   299 H176     -1.0026   -6.9299   -1.5199   H         1 RES1   0.0000
   300 H177     -2.4711   -7.4398   -2.3399   H         1 RES1   0.0000
   301 H178     -1.6259   -8.2732    0.4817   H         1 RES1   0.0000
   302 H179     -1.6132   -9.2779   -0.9675   H         1 RES1   0.0000
   303 H180     -3.1414   -8.7310   -0.2892   H         1 RES1   0.0000
   304 H181     -1.7055    1.9662   -3.2018   H         1 RES1   0.0000
   305 H182     -1.4998    0.2097   -3.3185   H         1 RES1   0.0000
   306 H183      0.7982    3.0813   -5.0569   H         1 RES1   0.0000
   307 H184     -0.6715    2.1344   -4.8427   H         1 RES1   0.0000
   308 H185      1.7547    0.6023   -5.7023   H         1 RES1   0.0000
   309 H186      1.0600    1.6979   -6.8807   H         1 RES1   0.0000
   310 H187     -0.7902   -0.2205   -5.4714   H         1 RES1   0.0000
   311 H188      0.2543   -0.8023   -6.7607   H         1 RES1   0.0000
   312 H189     -0.6345    0.9570   -8.2780   H         1 RES1   0.0000
   313 H190     -1.7473    1.4783   -7.0196   H         1 RES1   0.0000
   314 H191     -2.9507    0.0567   -8.5225   H         1 RES1   0.0000
   315 H192     -2.7377   -0.8573   -7.0356   H         1 RES1   0.0000
   316 H193     -0.7743   -2.0323   -8.0972   H         1 RES1   0.0000
   317 H194     -1.0733   -1.1254   -9.5743   H         1 RES1   0.0000
   318 H195     -3.2239   -2.8486   -8.2973   H         1 RES1   0.0000
   319 H196     -2.0339   -3.5250   -9.4042   H         1 RES1   0.0000
   320 H197     -4.0414   -1.3290  -10.0717   H         1 RES1   0.0000
   321 H198     -4.0480   -2.9880  -10.6522   H         1 RES1   0.0000
   322 H199     -2.7721   -1.8855  -11.1593   H         1 RES1   0.0000
   323 H200      2.8707    1.6862   -4.3428   H         1 RES1   0.0000
   324 H201      2.6600    0.8829   -2.7700   H         1 RES1   0.0000
   325 H202      3.8607    2.8321   -2.3126   H         1 RES1   0.0000
   326 H203      2.2314    3.1941   -1.7768   H         1 RES1   0.0000
   327 H204      2.7722    4.0087   -4.5899   H         1 RES1   0.0000
   328 H205      3.7867    4.8143   -3.4049   H         1 RES1   0.0000
   329 H206      1.8999    5.6301   -2.1714   H         1 RES1   0.0000
   330 H207      0.7578    4.6981   -3.1549   H         1 RES1   0.0000
   331 H208      2.5910    6.8781   -4.2488   H         1 RES1   0.0000
   332 H209      0.9580    7.1974   -3.6791   H         1 RES1   0.0000
   333 H210      1.5341    5.2219   -5.9269   H         1 RES1   0.0000
   334 H211      1.2505    6.9317   -6.1872   H         1 RES1   0.0000
   335 H212     -0.9725    6.8084   -5.2524   H         1 RES1   0.0000
   336 H213     -0.7275    5.1535   -4.6939   H         1 RES1   0.0000
   337 H214     -0.7972    6.0563   -7.6154   H         1 RES1   0.0000
   338 H215     -2.0709    5.1760   -6.7747   H         1 RES1   0.0000
   339 H216     -0.5139    4.3996   -7.0853   H         1 RES1   0.0000
@<TRIPOS>BOND
     1     1    20    1
     2     1    22    1
     3     1    25    1
     4     1    45    1
     5     1   189    1
     6     1   191    1
     7     1   194    1
     8     1   214    1
     9     2     3    1
    10     2    63    1
    11     2    64    1
    12     2    65    1
    13     3     4    1
    14     3    66    1
    15     3    67    1
    16     4     5    1
    17     4    68    1
    18     4    69    1
    19     5     6    1
    20     5    70    1
    21     5    71    1
    22     6     7    1
    23     6    72    1
    24     6    73    1
    25     7     8    1
    26     7    74    1
    27     7    75    1
    28     8     9    1
    29     8    76    1
    30     8    77    1
    31     9    10    1
    32     9    78    1
    33     9    79    1
    34    10    11    1
    35    10    19    1
    36    11    12    1
    37    11    80    1
    38    11    81    1
    39    12    13    1
    40    12    82    1
    41    12    83    1
    42    13    14    1
    43    13    84    1
    44    13    85    1
    45    14    15    1
    46    14    86    1
    47    14    87    1
    48    15    16    1
    49    15    88    1
    50    15    89    1
    51    16    17    1
    52    16    90    1
    53    16    91    1
    54    17    18    1
    55    17    92    1
    56    17    93    1
    57    18    94    1
    58    18    95    1
    59    18    96    1
    60    19    20    2
    61    19    21    1
    62    21    22    1
    63    21    97    1
    64    21    98    1
    65    22    23    1
    66    22    43    1
    67    23    24    1
    68    23    99    1
    69    23   100    1
    70    24    25    2
    71    24    26    1
    72    26    27    1
    73    26    35    1
    74    27    28    1
    75    27   101    1
    76    27   102    1
    77    28    29    1
    78    28   103    1
    79    28   104    1
    80    29    30    1
    81    29   105    1
    82    29   106    1
    83    30    31    1
    84    30   107    1
    85    30   108    1
    86    31    32    1
    87    31   109    1
    88    31   110    1
    89    32    33    1
    90    32   111    1
    91    32   112    1
    92    33    34    1
    93    33   113    1
    94    33   114    1
    95    34   115    1
    96    34   116    1
    97    34   117    1
    98    35    36    1
    99    35   118    1
   100    35   119    1
   101    36    37    1
   102    36   120    1
   103    36   121    1
   104    37    38    1
   105    37   122    1
   106    37   123    1
   107    38    39    1
   108    38   124    1
   109    38   125    1
   110    39    40    1
   111    39   126    1
   112    39   127    1
   113    40    41    1
   114    40   128    1
   115    40   129    1
   116    41    42    1
   117    41   130    1
   118    41   131    1
   119    42   132    1
   120    42   133    1
   121    42   134    1
   122    43    44    1
   123    43   135    1
   124    43   136    1
   125    44    45    2
   126    44    46    1
   127    46    47    1
   128    46    55    1
   129    47    48    1
   130    47   137    1
   131    47   138    1
   132    48    49    1
   133    48   139    1
   134    48   140    1
   135    49    50    1
   136    49   141    1
   137    49   142    1
   138    50    51    1
   139    50   143    1
   140    50   144    1
   141    51    52    1
   142    51   145    1
   143    51   146    1
   144    52    53    1
   145    52   147    1
   146    52   148    1
   147    53    54    1
   148    53   149    1
   149    53   150    1
   150    54   151    1
   151    54   152    1
   152    54   153    1
   153    55    56    1
   154    55   154    1
   155    55   155    1
   156    56    57    1
   157    56   156    1
   158    56   157    1
   159    57    58    1
   160    57   158    1
   161    57   159    1
   162    58    59    1
   163    58   160    1
   164    58   161    1
   165    59    60    1
   166    59   162    1
   167    59   163    1
   168    60    61    1
   169    60   164    1
   170    60   165    1
   171    61    62    1
   172    61   166    1
   173    61   167    1
   174    62   168    1
   175    62   169    1
   176    62   170    1
   177   171   172    1
   178   171   232    1
   179   171   233    1
   180   171   234    1
   181   172   173    1
   182   172   235    1
   183   172   236    1
   184   173   174    1
   185   173   237    1
   186   173   238    1
   187   174   175    1
   188   174   239    1
   189   174   240    1
   190   175   176    1
   191   175   241    1
   192   175   242    1
   193   176   177    1
   194   176   243    1
   195   176   244    1
   196   177   178    1
   197   177   245    1
   198   177   246    1
   199   178   179    1
   200   178   247    1
   201   178   248    1
   202   179   180    1
   203   179   188    1
   204   180   181    1
   205   180   249    1
   206   180   250    1
   207   181   182    1
   208   181   251    1
   209   181   252    1
   210   182   183    1
   211   182   253    1
   212   182   254    1
   213   183   184    1
   214   183   255    1
   215   183   256    1
   216   184   185    1
   217   184   257    1
   218   184   258    1
   219   185   186    1
   220   185   259    1
   221   185   260    1
   222   186   187    1
   223   186   261    1
   224   186   262    1
   225   187   263    1
   226   187   264    1
   227   187   265    1
   228   188   189    2
   229   188   190    1
   230   190   191    1
   231   190   266    1
   232   190   267    1
   233   191   192    1
   234   191   212    1
   235   192   193    1
   236   192   268    1
   237   192   269    1
   238   193   194    2
   239   193   195    1
   240   195   196    1
   241   195   204    1
   242   196   197    1
   243   196   270    1
   244   196   271    1
   245   197   198    1
   246   197   272    1
   247   197   273    1
   248   198   199    1
   249   198   274    1
   250   198   275    1
   251   199   200    1
   252   199   276    1
   253   199   277    1
   254   200   201    1
   255   200   278    1
   256   200   279    1
   257   201   202    1
   258   201   280    1
   259   201   281    1
   260   202   203    1
   261   202   282    1
   262   202   283    1
   263   203   284    1
   264   203   285    1
   265   203   286    1
   266   204   205    1
   267   204   287    1
   268   204   288    1
   269   205   206    1
   270   205   289    1
   271   205   290    1
   272   206   207    1
   273   206   291    1
   274   206   292    1
   275   207   208    1
   276   207   293    1
   277   207   294    1
   278   208   209    1
   279   208   295    1
   280   208   296    1
   281   209   210    1
   282   209   297    1
   283   209   298    1
   284   210   211    1
   285   210   299    1
   286   210   300    1
   287   211   301    1
   288   211   302    1
   289   211   303    1
   290   212   213    1
   291   212   304    1
   292   212   305    1
   293   213   214    2
   294   213   215    1
   295   215   216    1
   296   215   224    1
   297   216   217    1
   298   216   306    1
   299   216   307    1
   300   217   218    1
   301   217   308    1
   302   217   309    1
   303   218   219    1
   304   218   310    1
   305   218   311    1
   306   219   220    1
   307   219   312    1
   308   219   313    1
   309   220   221    1
   310   220   314    1
   311   220   315    1
   312   221   222    1
   313   221   316    1
   314   221   317    1
   315   222   223    1
   316   222   318    1
   317   222   319    1
   318   223   320    1
   319   223   321    1
   320   223   322    1
   321   224   225    1
   322   224   323    1
   323   224   324    1
   324   225   226    1
   325   225   325    1
   326   225   326    1
   327   226   227    1
   328   226   327    1
   329   226   328    1
   330   227   228    1
   331   227   329    1
   332   227   330    1
   333   228   229    1
   334   228   331    1
   335   228   332    1
   336   229   230    1
   337   229   333    1
   338   229   334    1
   339   230   231    1
   340   230   335    1
   341   230   336    1
   342   231   337    1
   343   231   338    1
   344   231   339    1
@<TRIPOS>SUBSTRUCTURE
     1 RES1      339 GROUP             0 ****  ****    0  
