@<TRIPOS>MOLECULE
am_c3_9H2O_c0_0_nunpairedes_0_charge_3 Charge: 3 Unpaired_Electrons: 6 XTB_Unpaired_Electrons: 0 XTB_Charge: 3
   280   291     1     0     0
SMALL
NoCharges
****
Generated from Architector

@<TRIPOS>ATOM
     1 Eu1       0.2062   -0.1613    0.1360   Eu        1 RES1   0.0000
     2 C1       -2.3040    1.9552    1.7326   C.3       1 RES1   0.0000
     3 C2       -3.5198    2.5994    1.0688   C.3       1 RES1   0.0000
     4 C3       -3.4330    4.1272    1.0985   C.3       1 RES1   0.0000
     5 C4       -4.4521    4.8223    0.1888   C.3       1 RES1   0.0000
     6 C5       -4.1300    4.7365   -1.3076   C.3       1 RES1   0.0000
     7 C6       -2.8980    5.5547   -1.6948   C.3       1 RES1   0.0000
     8 C7       -2.4671    5.4115   -3.1608   C.3       1 RES1   0.0000
     9 C8       -1.3151    4.4226   -3.4323   C.3       1 RES1   0.0000
    10 N1       -1.5106    3.1200   -2.8097   N.am      1 RES1   0.0000
    11 C9       -2.5508    2.3185   -3.4625   C.3       1 RES1   0.0000
    12 C10      -2.1014    0.9540   -3.9895   C.3       1 RES1   0.0000
    13 C11      -1.3459    0.8966   -5.3182   C.3       1 RES1   0.0000
    14 C12      -1.2659   -0.5845   -5.7126   C.3       1 RES1   0.0000
    15 C13      -0.3372   -0.9473   -6.8805   C.3       1 RES1   0.0000
    16 C14       0.9862   -1.5898   -6.4506   C.3       1 RES1   0.0000
    17 C15       2.0218   -0.5705   -5.9857   C.3       1 RES1   0.0000
    18 C16       3.3426   -1.2150   -5.5826   C.3       1 RES1   0.0000
    19 C17      -0.9225    2.6465   -1.7080   C.2       1 RES1   0.0000
    20 O1       -1.2504    1.5504   -1.1973   O.2       1 RES1   0.0000
    21 C18       0.2837    3.3064   -1.0673   C.ar      1 RES1   0.0000
    22 C19       0.5144    4.6875   -0.9137   C.ar      1 RES1   0.0000
    23 C20       1.6811    5.1269   -0.3398   C.ar      1 RES1   0.0000
    24 C21       2.6558    4.1962    0.0545   C.ar      1 RES1   0.0000
    25 C22       3.8989    4.5696    0.6098   C.ar      1 RES1   0.0000
    26 C23       4.8095    3.6096    0.9475   C.ar      1 RES1   0.0000
    27 C24       4.4951    2.2469    0.7946   C.ar      1 RES1   0.0000
    28 C25       3.2730    1.8526    0.3231   C.ar      1 RES1   0.0000
    29 C26       2.3269    2.8159   -0.0893   C.ar      1 RES1   0.0000
    30 N2        1.1386    2.4013   -0.5969   N.ar      1 RES1   0.0000
    31 H1       -2.2163    0.8950    1.4349   H         1 RES1   0.0000
    32 H2       -2.3866    2.0076    2.8173   H         1 RES1   0.0000
    33 H3       -1.4070    2.4945    1.4199   H         1 RES1   0.0000
    34 H4       -4.4260    2.2806    1.5889   H         1 RES1   0.0000
    35 H5       -3.5691    2.2437    0.0392   H         1 RES1   0.0000
    36 H6       -2.4246    4.4525    0.8283   H         1 RES1   0.0000
    37 H7       -3.6056    4.4544    2.1227   H         1 RES1   0.0000
    38 H8       -4.5083    5.8726    0.4716   H         1 RES1   0.0000
    39 H9       -5.4415    4.3935    0.3524   H         1 RES1   0.0000
    40 H10      -4.9884    5.1020   -1.8727   H         1 RES1   0.0000
    41 H11      -3.9804    3.6925   -1.5745   H         1 RES1   0.0000
    42 H12      -2.0766    5.2566   -1.0502   H         1 RES1   0.0000
    43 H13      -3.1169    6.6024   -1.4920   H         1 RES1   0.0000
    44 H14      -2.1286    6.3775   -3.5332   H         1 RES1   0.0000
    45 H15      -3.3345    5.1313   -3.7547   H         1 RES1   0.0000
    46 H16      -0.3599    4.8381   -3.1218   H         1 RES1   0.0000
    47 H17      -1.2544    4.2613   -4.5129   H         1 RES1   0.0000
    48 H18      -2.9554    2.9065   -4.2867   H         1 RES1   0.0000
    49 H19      -3.3556    2.1358   -2.7452   H         1 RES1   0.0000
    50 H20      -3.0214    0.3922   -4.1496   H         1 RES1   0.0000
    51 H21      -1.5340    0.4398   -3.2127   H         1 RES1   0.0000
    52 H22      -0.3530    1.3396   -5.2471   H         1 RES1   0.0000
    53 H23      -1.9069    1.4437   -6.0780   H         1 RES1   0.0000
    54 H24      -2.2814   -0.9017   -5.9605   H         1 RES1   0.0000
    55 H25      -0.9574   -1.1557   -4.8324   H         1 RES1   0.0000
    56 H26      -0.1271   -0.0634   -7.4831   H         1 RES1   0.0000
    57 H27      -0.8613   -1.6592   -7.5191   H         1 RES1   0.0000
    58 H28       1.4007   -2.1392   -7.2963   H         1 RES1   0.0000
    59 H29       0.7998   -2.3165   -5.6544   H         1 RES1   0.0000
    60 H30       1.6244   -0.0095   -5.1382   H         1 RES1   0.0000
    61 H31       2.2088    0.1322   -6.7985   H         1 RES1   0.0000
    62 H32       3.2152   -1.8392   -4.7003   H         1 RES1   0.0000
    63 H33       4.0857   -0.4530   -5.3582   H         1 RES1   0.0000
    64 H34       3.7262   -1.8326   -6.3895   H         1 RES1   0.0000
    65 H35      -0.2186    5.4193   -1.2021   H         1 RES1   0.0000
    66 H36       1.8486    6.1840   -0.2001   H         1 RES1   0.0000
    67 H37       4.1068    5.6153    0.7806   H         1 RES1   0.0000
    68 H38       5.7694    3.8833    1.3588   H         1 RES1   0.0000
    69 H39       5.2216    1.5039    1.0849   H         1 RES1   0.0000
    70 H40       3.0005    0.8036    0.2626   H         1 RES1   0.0000
    71 C27      -0.2728    5.6402    2.9436   C.3       1 RES1   0.0000
    72 C28      -0.0662    4.5628    4.0030   C.3       1 RES1   0.0000
    73 C29      -0.7398    4.9269    5.3254   C.3       1 RES1   0.0000
    74 C30      -0.3044    4.0404    6.4915   C.3       1 RES1   0.0000
    75 C31      -0.5385    2.5361    6.2737   C.3       1 RES1   0.0000
    76 C32       0.7473    1.7812    5.9349   C.3       1 RES1   0.0000
    77 C33       0.4987    0.2817    5.8136   C.3       1 RES1   0.0000
    78 C34       1.7782   -0.5131    5.5464   C.3       1 RES1   0.0000
    79 N3        2.1900   -0.4223    4.1513   N.am      1 RES1   0.0000
    80 C35       3.3300    0.4425    3.8533   C.3       1 RES1   0.0000
    81 C36       4.4881   -0.3738    3.2793   C.3       1 RES1   0.0000
    82 C37       4.9603   -1.4680    4.2344   C.3       1 RES1   0.0000
    83 C38       5.6839   -0.9151    5.4633   C.3       1 RES1   0.0000
    84 C39       6.2550   -2.0238    6.3488   C.3       1 RES1   0.0000
    85 C40       5.2151   -2.8083    7.1581   C.3       1 RES1   0.0000
    86 C41       5.0233   -2.3107    8.5924   C.3       1 RES1   0.0000
    87 C42       4.3848   -0.9314    8.7009   C.3       1 RES1   0.0000
    88 C43       1.5127   -0.9037    3.1048   C.2       1 RES1   0.0000
    89 O2        1.7526   -0.4923    1.9465   O.2       1 RES1   0.0000
    90 C44       0.4564   -1.9446    3.2774   C.ar      1 RES1   0.0000
    91 C45       0.5831   -2.9402    4.2668   C.ar      1 RES1   0.0000
    92 C46      -0.4833   -3.7521    4.5474   C.ar      1 RES1   0.0000
    93 C47      -1.6080   -3.6877    3.7091   C.ar      1 RES1   0.0000
    94 C48      -2.7293   -4.5256    3.8844   C.ar      1 RES1   0.0000
    95 C49      -3.6489   -4.6654    2.8815   C.ar      1 RES1   0.0000
    96 C50      -3.4688   -3.9815    1.6677   C.ar      1 RES1   0.0000
    97 C51      -2.4343   -3.1027    1.5065   C.ar      1 RES1   0.0000
    98 C52      -1.5080   -2.8682    2.5406   C.ar      1 RES1   0.0000
    99 N4       -0.5278   -1.9317    2.3855   N.ar      1 RES1   0.0000
   100 H41       0.2103    5.3656    2.0029   H         1 RES1   0.0000
   101 H42       0.1470    6.5853    3.2799   H         1 RES1   0.0000
   102 H43      -1.3344    5.7863    2.7581   H         1 RES1   0.0000
   103 H44       1.0066    4.4226    4.1680   H         1 RES1   0.0000
   104 H45      -0.4952    3.6245    3.6411   H         1 RES1   0.0000
   105 H46      -1.8213    4.8626    5.1984   H         1 RES1   0.0000
   106 H47      -0.5023    5.9594    5.5813   H         1 RES1   0.0000
   107 H48      -0.8501    4.3641    7.3770   H         1 RES1   0.0000
   108 H49       0.7536    4.2117    6.6962   H         1 RES1   0.0000
   109 H50      -1.2881    2.3780    5.4937   H         1 RES1   0.0000
   110 H51      -0.9436    2.1048    7.1894   H         1 RES1   0.0000
   111 H52       1.4548    1.9498    6.7462   H         1 RES1   0.0000
   112 H53       1.1980    2.1769    5.0224   H         1 RES1   0.0000
   113 H54      -0.2303    0.0720    5.0265   H         1 RES1   0.0000
   114 H55       0.0714   -0.0648    6.7538   H         1 RES1   0.0000
   115 H56       1.6310   -1.5379    5.8746   H         1 RES1   0.0000
   116 H57       2.5854   -0.1089    6.1574   H         1 RES1   0.0000
   117 H58       3.6352    0.9515    4.7651   H         1 RES1   0.0000
   118 H59       3.0370    1.2018    3.1254   H         1 RES1   0.0000
   119 H60       5.3163    0.3008    3.0687   H         1 RES1   0.0000
   120 H61       4.1675   -0.8174    2.3348   H         1 RES1   0.0000
   121 H62       5.6508   -2.1235    3.7005   H         1 RES1   0.0000
   122 H63       4.1016   -2.0716    4.5370   H         1 RES1   0.0000
   123 H64       5.0205   -0.2811    6.0513   H         1 RES1   0.0000
   124 H65       6.5124   -0.2909    5.1224   H         1 RES1   0.0000
   125 H66       6.9758   -1.5831    7.0371   H         1 RES1   0.0000
   126 H67       6.8042   -2.7149    5.7077   H         1 RES1   0.0000
   127 H68       5.5413   -3.8472    7.2178   H         1 RES1   0.0000
   128 H69       4.2500   -2.8019    6.6453   H         1 RES1   0.0000
   129 H70       5.9903   -2.2948    9.0958   H         1 RES1   0.0000
   130 H71       4.3918   -3.0271    9.1221   H         1 RES1   0.0000
   131 H72       5.0393   -0.1640    8.2964   H         1 RES1   0.0000
   132 H73       4.1944   -0.6882    9.7428   H         1 RES1   0.0000
   133 H74       3.4316   -0.9074    8.1737   H         1 RES1   0.0000
   134 H75       1.5223   -3.0711    4.7749   H         1 RES1   0.0000
   135 H76      -0.4389   -4.4788    5.3460   H         1 RES1   0.0000
   136 H77      -2.8081   -5.1050    4.7933   H         1 RES1   0.0000
   137 H78      -4.4862   -5.3373    2.9921   H         1 RES1   0.0000
   138 H79      -4.1588   -4.1606    0.8534   H         1 RES1   0.0000
   139 H80      -2.2962   -2.5622    0.5849   H         1 RES1   0.0000
   140 C53      -2.8779   -8.8198   -3.0856   C.3       1 RES1   0.0000
   141 C54      -1.6264   -7.9463   -3.0648   C.3       1 RES1   0.0000
   142 C55      -0.6272   -8.2039   -4.1985   C.3       1 RES1   0.0000
   143 C56       0.8190   -7.8648   -3.8052   C.3       1 RES1   0.0000
   144 C57       1.2023   -6.3881   -3.9838   C.3       1 RES1   0.0000
   145 C58       2.3619   -5.9763   -3.0699   C.3       1 RES1   0.0000
   146 C59       2.8465   -4.5481   -3.3340   C.3       1 RES1   0.0000
   147 C60       3.8768   -4.0229   -2.3136   C.3       1 RES1   0.0000
   148 N5        3.2765   -3.5213   -1.0844   N.am      1 RES1   0.0000
   149 C61       3.3110   -4.3433    0.1196   C.3       1 RES1   0.0000
   150 C62       4.3722   -3.7879    1.0833   C.3       1 RES1   0.0000
   151 C63       5.7987   -4.1868    0.7024   C.3       1 RES1   0.0000
   152 C64       6.0440   -5.6821    0.9191   C.3       1 RES1   0.0000
   153 C65       7.4907   -6.1178    0.6749   C.3       1 RES1   0.0000
   154 C66       7.9817   -6.0124   -0.7733   C.3       1 RES1   0.0000
   155 C67       7.7096   -7.2356   -1.6526   C.3       1 RES1   0.0000
   156 C68       6.2532   -7.4416   -2.0541   C.3       1 RES1   0.0000
   157 C69       2.6756   -2.3325   -0.9657   C.2       1 RES1   0.0000
   158 O3        1.7655   -2.1165   -0.1326   O.2       1 RES1   0.0000
   159 C70       3.1558   -1.1508   -1.7409   C.ar      1 RES1   0.0000
   160 C71       4.5379   -0.9180   -1.9153   C.ar      1 RES1   0.0000
   161 C72       4.9554    0.2626   -2.4713   C.ar      1 RES1   0.0000
   162 C73       3.9876    1.1770   -2.9307   C.ar      1 RES1   0.0000
   163 C74       4.3058    2.3610   -3.6289   C.ar      1 RES1   0.0000
   164 C75       3.3133    3.1251   -4.1778   C.ar      1 RES1   0.0000
   165 C76       1.9653    2.7643   -4.0170   C.ar      1 RES1   0.0000
   166 C77       1.6217    1.6682   -3.2764   C.ar      1 RES1   0.0000
   167 C78       2.6186    0.8469   -2.7156   C.ar      1 RES1   0.0000
   168 N6        2.2249   -0.2591   -2.0365   N.ar      1 RES1   0.0000
   169 H81      -3.4849   -8.6049   -2.2054   H         1 RES1   0.0000
   170 H82      -2.6130   -9.8736   -3.0658   H         1 RES1   0.0000
   171 H83      -3.4870   -8.6377   -3.9667   H         1 RES1   0.0000
   172 H84      -1.1273   -8.1264   -2.1094   H         1 RES1   0.0000
   173 H85      -1.9459   -6.9021   -3.0930   H         1 RES1   0.0000
   174 H86      -0.9103   -7.6328   -5.0842   H         1 RES1   0.0000
   175 H87      -0.6666   -9.2581   -4.4684   H         1 RES1   0.0000
   176 H88       1.5013   -8.4719   -4.3981   H         1 RES1   0.0000
   177 H89       0.9712   -8.1437   -2.7604   H         1 RES1   0.0000
   178 H90       0.3390   -5.7593   -3.7660   H         1 RES1   0.0000
   179 H91       1.4781   -6.2111   -5.0234   H         1 RES1   0.0000
   180 H92       3.1922   -6.6652   -3.2217   H         1 RES1   0.0000
   181 H93       2.0416   -6.0753   -2.0332   H         1 RES1   0.0000
   182 H94       1.9976   -3.8622   -3.3740   H         1 RES1   0.0000
   183 H95       3.3219   -4.5185   -4.3160   H         1 RES1   0.0000
   184 H96       4.4504   -3.2360   -2.8016   H         1 RES1   0.0000
   185 H97       4.5578   -4.8327   -2.0499   H         1 RES1   0.0000
   186 H98       3.5390   -5.3743   -0.1389   H         1 RES1   0.0000
   187 H99       2.3381   -4.3004    0.6039   H         1 RES1   0.0000
   188 H100      4.1572   -4.1484    2.0905   H         1 RES1   0.0000
   189 H101      4.2773   -2.6983    1.1039   H         1 RES1   0.0000
   190 H102      6.5077   -3.6238    1.3138   H         1 RES1   0.0000
   191 H103      5.9823   -3.9178   -0.3396   H         1 RES1   0.0000
   192 H104      5.3817   -6.2640    0.2793   H         1 RES1   0.0000
   193 H105      5.7911   -5.9227    1.9552   H         1 RES1   0.0000
   194 H106      7.5933   -7.1526    1.0066   H         1 RES1   0.0000
   195 H107      8.1383   -5.5083    1.3086   H         1 RES1   0.0000
   196 H108      9.0638   -5.8791   -0.7449   H         1 RES1   0.0000
   197 H109      7.5651   -5.1227   -1.2498   H         1 RES1   0.0000
   198 H110      8.0678   -8.1307   -1.1434   H         1 RES1   0.0000
   199 H111      8.2957   -7.1234   -2.5666   H         1 RES1   0.0000
   200 H112      5.6422   -7.7468   -1.2082   H         1 RES1   0.0000
   201 H113      6.1839   -8.2243   -2.8060   H         1 RES1   0.0000
   202 H114      5.8441   -6.5282   -2.4857   H         1 RES1   0.0000
   203 H115      5.2579   -1.6485   -1.5869   H         1 RES1   0.0000
   204 H116      6.0052    0.4812   -2.6028   H         1 RES1   0.0000
   205 H117      5.3423    2.6393   -3.7522   H         1 RES1   0.0000
   206 H118      3.5515    3.9971   -4.7670   H         1 RES1   0.0000
   207 H119      1.2024    3.3507   -4.5045   H         1 RES1   0.0000
   208 H120      0.6011    1.3442   -3.1443   H         1 RES1   0.0000
   209 C79      -0.4266   -7.6684    3.9437   C.3       1 RES1   0.0000
   210 C80       0.7718   -7.6241    3.0022   C.3       1 RES1   0.0000
   211 C81       1.1684   -6.2040    2.5917   C.3       1 RES1   0.0000
   212 C82       0.1708   -5.4911    1.6699   C.3       1 RES1   0.0000
   213 C83       0.1231   -6.0448    0.2473   C.3       1 RES1   0.0000
   214 C84      -0.8461   -5.3066   -0.6958   C.3       1 RES1   0.0000
   215 C85      -0.2750   -3.9990   -1.2490   C.3       1 RES1   0.0000
   216 C86      -0.8478   -3.4978   -2.5896   C.3       1 RES1   0.0000
   217 N7       -2.1134   -2.7627   -2.5269   N.am      1 RES1   0.0000
   218 C87      -3.1584   -3.2390   -3.4178   C.3       1 RES1   0.0000
   219 C88      -3.8472   -4.5169   -2.9352   C.3       1 RES1   0.0000
   220 C89      -5.0804   -4.2356   -2.0803   C.3       1 RES1   0.0000
   221 C90      -5.6856   -5.5566   -1.6026   C.3       1 RES1   0.0000
   222 C91      -7.1804   -5.5218   -1.2687   C.3       1 RES1   0.0000
   223 C92      -7.5568   -5.0470    0.1377   C.3       1 RES1   0.0000
   224 C93      -7.6918   -3.5339    0.3008   C.3       1 RES1   0.0000
   225 C94      -8.4061   -3.1862    1.6034   C.3       1 RES1   0.0000
   226 C95      -2.1051   -1.6288   -1.8323   C.2       1 RES1   0.0000
   227 O4       -1.0110   -1.2069   -1.3743   O.2       1 RES1   0.0000
   228 C96      -3.3682   -0.9820   -1.3539   C.ar      1 RES1   0.0000
   229 C97      -4.5120   -0.6309   -2.0932   C.ar      1 RES1   0.0000
   230 C98      -5.6344   -0.2201   -1.4154   C.ar      1 RES1   0.0000
   231 C99      -5.6481   -0.2373   -0.0060   C.ar      1 RES1   0.0000
   232 C100     -6.8018   -0.0041    0.7719   C.ar      1 RES1   0.0000
   233 C101     -6.7659   -0.1703    2.1300   C.ar      1 RES1   0.0000
   234 C102     -5.5634   -0.5186    2.7720   C.ar      1 RES1   0.0000
   235 C103     -4.4043   -0.6522    2.0592   C.ar      1 RES1   0.0000
   236 C104     -4.4222   -0.5456    0.6499   C.ar      1 RES1   0.0000
   237 N8       -3.2997   -0.8309   -0.0433   N.ar      1 RES1   0.0000
   238 H121     -0.6457   -8.6957    4.2231   H         1 RES1   0.0000
   239 H122     -1.3194   -7.2514    3.4818   H         1 RES1   0.0000
   240 H123     -0.2130   -7.1079    4.8518   H         1 RES1   0.0000
   241 H124      0.5618   -8.2254    2.1181   H         1 RES1   0.0000
   242 H125      1.6256   -8.0816    3.5064   H         1 RES1   0.0000
   243 H126      2.1464   -6.2432    2.1082   H         1 RES1   0.0000
   244 H127      1.2819   -5.6060    3.5002   H         1 RES1   0.0000
   245 H128      0.4429   -4.4313    1.6240   H         1 RES1   0.0000
   246 H129     -0.8273   -5.5668    2.0997   H         1 RES1   0.0000
   247 H130     -0.1732   -7.0935    0.2866   H         1 RES1   0.0000
   248 H131      1.1281   -6.0163   -0.1746   H         1 RES1   0.0000
   249 H132     -1.7910   -5.1379   -0.1724   H         1 RES1   0.0000
   250 H133     -1.0254   -5.9745   -1.5342   H         1 RES1   0.0000
   251 H134      0.7816   -4.1644   -1.4480   H         1 RES1   0.0000
   252 H135     -0.3454   -3.2202   -0.4859   H         1 RES1   0.0000
   253 H136     -1.0116   -4.3361   -3.2692   H         1 RES1   0.0000
   254 H137     -0.1010   -2.8240   -3.0291   H         1 RES1   0.0000
   255 H138     -2.6923   -3.4130   -4.3928   H         1 RES1   0.0000
   256 H139     -3.9153   -2.4752   -3.5597   H         1 RES1   0.0000
   257 H140     -3.1482   -5.1397   -2.3808   H         1 RES1   0.0000
   258 H141     -4.1678   -5.0811   -3.8103   H         1 RES1   0.0000
   259 H142     -5.8113   -3.7027   -2.6904   H         1 RES1   0.0000
   260 H143     -4.8216   -3.5870   -1.2425   H         1 RES1   0.0000
   261 H144     -5.1265   -5.9470   -0.7477   H         1 RES1   0.0000
   262 H145     -5.5580   -6.2757   -2.4142   H         1 RES1   0.0000
   263 H146     -7.5513   -6.5423   -1.3810   H         1 RES1   0.0000
   264 H147     -7.7004   -4.9102   -2.0086   H         1 RES1   0.0000
   265 H148     -6.8356   -5.4347    0.8603   H         1 RES1   0.0000
   266 H149     -8.5252   -5.4871    0.3795   H         1 RES1   0.0000
   267 H150     -8.2752   -3.1374   -0.5321   H         1 RES1   0.0000
   268 H151     -6.7105   -3.0503    0.2770   H         1 RES1   0.0000
   269 H152     -9.3670   -3.6931    1.6488   H         1 RES1   0.0000
   270 H153     -8.5882   -2.1169    1.6742   H         1 RES1   0.0000
   271 H154     -7.8191   -3.4919    2.4675   H         1 RES1   0.0000
   272 H155     -4.5172   -0.6641   -3.1710   H         1 RES1   0.0000
   273 H156     -6.5221    0.0697   -1.9582   H         1 RES1   0.0000
   274 H157     -7.7148    0.2875    0.2755   H         1 RES1   0.0000
   275 H158     -7.6585   -0.0505    2.7292   H         1 RES1   0.0000
   276 H159     -5.5628   -0.6876    3.8410   H         1 RES1   0.0000
   277 H160     -3.4713   -0.9079    2.5398   H         1 RES1   0.0000
   278 O5        0.6843    1.8516    2.1117   O.3       1 RES1   0.0000
   279 H161      1.1330    2.7088    2.0804   H         1 RES1   0.0000
   280 H162      0.5307    1.6689    3.0470   H         1 RES1   0.0000
@<TRIPOS>BOND
     1     1    20    1
     2     1    30    1
     3     1    89    1
     4     1    99    1
     5     1   158    1
     6     1   168    1
     7     1   227    1
     8     1   237    1
     9     1   278    1
    10     2     3    1
    11     2    31    1
    12     2    32    1
    13     2    33    1
    14     3     4    1
    15     3    34    1
    16     3    35    1
    17     4     5    1
    18     4    36    1
    19     4    37    1
    20     5     6    1
    21     5    38    1
    22     5    39    1
    23     6     7    1
    24     6    40    1
    25     6    41    1
    26     7     8    1
    27     7    42    1
    28     7    43    1
    29     8     9    1
    30     8    44    1
    31     8    45    1
    32     9    10    1
    33     9    46    1
    34     9    47    1
    35    10    11    1
    36    10    19    1
    37    11    12    1
    38    11    48    1
    39    11    49    1
    40    12    13    1
    41    12    50    1
    42    12    51    1
    43    13    14    1
    44    13    52    1
    45    13    53    1
    46    14    15    1
    47    14    54    1
    48    14    55    1
    49    15    16    1
    50    15    56    1
    51    15    57    1
    52    16    17    1
    53    16    58    1
    54    16    59    1
    55    17    18    1
    56    17    60    1
    57    17    61    1
    58    18    62    1
    59    18    63    1
    60    18    64    1
    61    19    20    2
    62    19    21    1
    63    21    22    1
    64    21    30    2
    65    22    23    2
    66    22    65    1
    67    23    24    1
    68    23    66    1
    69    24    25    1
    70    24    29    2
    71    25    26    2
    72    25    67    1
    73    26    27    1
    74    26    68    1
    75    27    28    2
    76    27    69    1
    77    28    29    1
    78    28    70    1
    79    29    30    1
    80    71    72    1
    81    71   100    1
    82    71   101    1
    83    71   102    1
    84    72    73    1
    85    72   103    1
    86    72   104    1
    87    73    74    1
    88    73   105    1
    89    73   106    1
    90    74    75    1
    91    74   107    1
    92    74   108    1
    93    75    76    1
    94    75   109    1
    95    75   110    1
    96    76    77    1
    97    76   111    1
    98    76   112    1
    99    77    78    1
   100    77   113    1
   101    77   114    1
   102    78    79    1
   103    78   115    1
   104    78   116    1
   105    79    80    1
   106    79    88    1
   107    80    81    1
   108    80   117    1
   109    80   118    1
   110    81    82    1
   111    81   119    1
   112    81   120    1
   113    82    83    1
   114    82   121    1
   115    82   122    1
   116    83    84    1
   117    83   123    1
   118    83   124    1
   119    84    85    1
   120    84   125    1
   121    84   126    1
   122    85    86    1
   123    85   127    1
   124    85   128    1
   125    86    87    1
   126    86   129    1
   127    86   130    1
   128    87   131    1
   129    87   132    1
   130    87   133    1
   131    88    89    2
   132    88    90    1
   133    90    91    1
   134    90    99    2
   135    91    92    2
   136    91   134    1
   137    92    93    1
   138    92   135    1
   139    93    94    1
   140    93    98    2
   141    94    95    2
   142    94   136    1
   143    95    96    1
   144    95   137    1
   145    96    97    2
   146    96   138    1
   147    97    98    1
   148    97   139    1
   149    98    99    1
   150   140   141    1
   151   140   169    1
   152   140   170    1
   153   140   171    1
   154   141   142    1
   155   141   172    1
   156   141   173    1
   157   142   143    1
   158   142   174    1
   159   142   175    1
   160   143   144    1
   161   143   176    1
   162   143   177    1
   163   144   145    1
   164   144   178    1
   165   144   179    1
   166   145   146    1
   167   145   180    1
   168   145   181    1
   169   146   147    1
   170   146   182    1
   171   146   183    1
   172   147   148    1
   173   147   184    1
   174   147   185    1
   175   148   149    1
   176   148   157    1
   177   149   150    1
   178   149   186    1
   179   149   187    1
   180   150   151    1
   181   150   188    1
   182   150   189    1
   183   151   152    1
   184   151   190    1
   185   151   191    1
   186   152   153    1
   187   152   192    1
   188   152   193    1
   189   153   154    1
   190   153   194    1
   191   153   195    1
   192   154   155    1
   193   154   196    1
   194   154   197    1
   195   155   156    1
   196   155   198    1
   197   155   199    1
   198   156   200    1
   199   156   201    1
   200   156   202    1
   201   157   158    2
   202   157   159    1
   203   159   160    1
   204   159   168    2
   205   160   161    2
   206   160   203    1
   207   161   162    1
   208   161   204    1
   209   162   163    1
   210   162   167    2
   211   163   164    2
   212   163   205    1
   213   164   165    1
   214   164   206    1
   215   165   166    2
   216   165   207    1
   217   166   167    1
   218   166   208    1
   219   167   168    1
   220   209   210    1
   221   209   238    1
   222   209   239    1
   223   209   240    1
   224   210   211    1
   225   210   241    1
   226   210   242    1
   227   211   212    1
   228   211   243    1
   229   211   244    1
   230   212   213    1
   231   212   245    1
   232   212   246    1
   233   213   214    1
   234   213   247    1
   235   213   248    1
   236   214   215    1
   237   214   249    1
   238   214   250    1
   239   215   216    1
   240   215   251    1
   241   215   252    1
   242   216   217    1
   243   216   253    1
   244   216   254    1
   245   217   218    1
   246   217   226    1
   247   218   219    1
   248   218   255    1
   249   218   256    1
   250   219   220    1
   251   219   257    1
   252   219   258    1
   253   220   221    1
   254   220   259    1
   255   220   260    1
   256   221   222    1
   257   221   261    1
   258   221   262    1
   259   222   223    1
   260   222   263    1
   261   222   264    1
   262   223   224    1
   263   223   265    1
   264   223   266    1
   265   224   225    1
   266   224   267    1
   267   224   268    1
   268   225   269    1
   269   225   270    1
   270   225   271    1
   271   226   227    2
   272   226   228    1
   273   228   229    1
   274   228   237    2
   275   229   230    2
   276   229   272    1
   277   230   231    1
   278   230   273    1
   279   231   232    1
   280   231   236    2
   281   232   233    2
   282   232   274    1
   283   233   234    1
   284   233   275    1
   285   234   235    2
   286   234   276    1
   287   235   236    1
   288   235   277    1
   289   236   237    1
   290   278   279    1
   291   278   280    1
@<TRIPOS>SUBSTRUCTURE
     1 RES1      280 GROUP             0 ****  ****    0  
