@<TRIPOS>MOLECULE
am_c3_9H2O_c0_0_nunpairedes_0_charge_3 Charge: 3 Unpaired_Electrons: 6 XTB_Unpaired_Electrons: 0 XTB_Charge: 3
   190   195     1     0     0
SMALL
NoCharges
****
Generated from Architector

@<TRIPOS>ATOM
     1 Eu1       0.3242    0.0622    0.0488   Eu        1 RES1   0.0000
     2 C1       -7.6841   -2.3396    3.5202   C.3       1 RES1   0.0000
     3 C2       -6.2793   -1.7796    3.3320   C.3       1 RES1   0.0000
     4 C3       -5.2850   -2.8584    2.9041   C.3       1 RES1   0.0000
     5 C4       -3.8032   -2.4899    3.0573   C.3       1 RES1   0.0000
     6 P1       -3.0920   -1.2639    1.8892   P.3       1 RES1   0.0000
     7 S1       -1.1517   -1.6748    1.6873   S.3       1 RES1   0.0000
     8 C5       -3.6936    0.3608    2.5095   C.3       1 RES1   0.0000
     9 C6       -3.3641    1.6781    1.8250   C.3       1 RES1   0.0000
    10 C7       -4.2942    2.7819    2.3297   C.3       1 RES1   0.0000
    11 C8       -4.2768    2.9473    3.8484   C.3       1 RES1   0.0000
    12 C9       -3.8199   -1.5412    0.2036   C.3       1 RES1   0.0000
    13 O1       -3.1654   -0.5634   -0.5990   O.3       1 RES1   0.0000
    14 C10      -4.0557    0.0940   -1.4725   C.3       1 RES1   0.0000
    15 P2       -3.0614    1.3089   -2.4690   P.3       1 RES1   0.0000
    16 S2       -1.4981    1.8606   -1.3568   S.3       1 RES1   0.0000
    17 C11      -4.2531    2.6430   -2.9122   C.3       1 RES1   0.0000
    18 C12      -4.6815    3.5675   -1.7728   C.3       1 RES1   0.0000
    19 C13      -3.6139    4.6044   -1.4261   C.3       1 RES1   0.0000
    20 C14      -4.1804    5.7388   -0.5818   C.3       1 RES1   0.0000
    21 C15      -2.5027    0.5789   -4.0624   C.3       1 RES1   0.0000
    22 C16      -3.5277    0.1420   -5.1132   C.3       1 RES1   0.0000
    23 C17      -4.3349   -1.1183   -4.8050   C.3       1 RES1   0.0000
    24 C18      -3.4620   -2.3217   -4.4702   C.3       1 RES1   0.0000
    25 H1       -8.3554   -1.5448    3.8306   H         1 RES1   0.0000
    26 H2       -7.6954   -3.1168    4.2803   H         1 RES1   0.0000
    27 H3       -8.0623   -2.7637    2.5925   H         1 RES1   0.0000
    28 H4       -5.9434   -1.3302    4.2690   H         1 RES1   0.0000
    29 H5       -6.3330   -0.9904    2.5774   H         1 RES1   0.0000
    30 H6       -5.5004   -3.1699    1.8770   H         1 RES1   0.0000
    31 H7       -5.4379   -3.7328    3.5402   H         1 RES1   0.0000
    32 H8       -3.1863   -3.3895    2.9554   H         1 RES1   0.0000
    33 H9       -3.6162   -2.0804    4.0551   H         1 RES1   0.0000
    34 H10      -3.3328    0.4049    3.5435   H         1 RES1   0.0000
    35 H11      -4.7764    0.2231    2.5454   H         1 RES1   0.0000
    36 H12      -3.4402    1.6072    0.7393   H         1 RES1   0.0000
    37 H13      -2.3375    1.9535    2.0574   H         1 RES1   0.0000
    38 H14      -5.3172    2.5794    2.0035   H         1 RES1   0.0000
    39 H15      -3.9815    3.7206    1.8688   H         1 RES1   0.0000
    40 H16      -4.7902    2.1308    4.3489   H         1 RES1   0.0000
    41 H17      -4.7829    3.8733    4.1224   H         1 RES1   0.0000
    42 H18      -3.2559    2.9978    4.2262   H         1 RES1   0.0000
    43 H19      -4.9098   -1.4072    0.2128   H         1 RES1   0.0000
    44 H20      -3.5809   -2.5562   -0.1492   H         1 RES1   0.0000
    45 H21      -4.8123    0.6575   -0.8990   H         1 RES1   0.0000
    46 H22      -4.5625   -0.6336   -2.1216   H         1 RES1   0.0000
    47 H23      -5.1174    2.1277   -3.3400   H         1 RES1   0.0000
    48 H24      -3.7894    3.2326   -3.7081   H         1 RES1   0.0000
    49 H25      -4.9281    2.9798   -0.8845   H         1 RES1   0.0000
    50 H26      -5.5931    4.0851   -2.0825   H         1 RES1   0.0000
    51 H27      -3.2039    5.0190   -2.3484   H         1 RES1   0.0000
    52 H28      -2.8028    4.1064   -0.8930   H         1 RES1   0.0000
    53 H29      -4.9188    6.3045   -1.1447   H         1 RES1   0.0000
    54 H30      -3.3925    6.4244   -0.2867   H         1 RES1   0.0000
    55 H31      -4.6606    5.3590    0.3183   H         1 RES1   0.0000
    56 H32      -1.8207   -0.2399   -3.8089   H         1 RES1   0.0000
    57 H33      -1.8976    1.3819   -4.4957   H         1 RES1   0.0000
    58 H34      -2.9531   -0.0485   -6.0210   H         1 RES1   0.0000
    59 H35      -4.2115    0.9609   -5.3339   H         1 RES1   0.0000
    60 H36      -4.9242   -1.3479   -5.6948   H         1 RES1   0.0000
    61 H37      -5.0542   -0.9294   -4.0055   H         1 RES1   0.0000
    62 H38      -2.8133   -2.5492   -5.3140   H         1 RES1   0.0000
    63 H39      -4.0862   -3.1906   -4.2750   H         1 RES1   0.0000
    64 H40      -2.8394   -2.1392   -3.5945   H         1 RES1   0.0000
    65 C19       1.2643   -7.8922   -4.0149   C.3       1 RES1   0.0000
    66 C20       1.2956   -6.3921   -3.7431   C.3       1 RES1   0.0000
    67 C21      -0.0410   -5.8952   -3.1956   C.3       1 RES1   0.0000
    68 C22      -0.2436   -4.3808   -3.2481   C.3       1 RES1   0.0000
    69 P3        0.8591   -3.2260   -2.3275   P.3       1 RES1   0.0000
    70 S3       -0.0449   -1.4561   -2.3758   S.3       1 RES1   0.0000
    71 C23       2.5371   -3.3753   -3.0844   C.3       1 RES1   0.0000
    72 C24       3.5013   -2.2210   -2.8455   C.3       1 RES1   0.0000
    73 C25       4.8691   -2.4619   -3.4937   C.3       1 RES1   0.0000
    74 C26       4.8767   -2.1629   -4.9880   C.3       1 RES1   0.0000
    75 C27       1.0414   -3.7907   -0.5587   C.3       1 RES1   0.0000
    76 O2        1.5409   -2.7086    0.2240   O.3       1 RES1   0.0000
    77 C28       2.1494   -3.2232    1.4039   C.3       1 RES1   0.0000
    78 P4        2.7677   -1.8802    2.5593   P.3       1 RES1   0.0000
    79 S4        2.6410   -0.0630    1.7871   S.3       1 RES1   0.0000
    80 C29       4.4693   -2.3928    3.0339   C.3       1 RES1   0.0000
    81 C30       5.5273   -2.4576    1.9266   C.3       1 RES1   0.0000
    82 C31       5.6893   -1.1388    1.1745   C.3       1 RES1   0.0000
    83 C32       6.8914   -1.1290    0.2377   C.3       1 RES1   0.0000
    84 C33       1.7078   -1.8079    4.0647   C.3       1 RES1   0.0000
    85 C34       1.8322   -2.8592    5.1601   C.3       1 RES1   0.0000
    86 C35       1.1920   -4.1996    4.8117   C.3       1 RES1   0.0000
    87 C36      -0.3137   -4.1056    4.5699   C.3       1 RES1   0.0000
    88 H41       2.2356   -8.2289   -4.3643   H         1 RES1   0.0000
    89 H42       0.5277   -8.1288   -4.7779   H         1 RES1   0.0000
    90 H43       1.0103   -8.4435   -3.1125   H         1 RES1   0.0000
    91 H44       1.5324   -5.8609   -4.6689   H         1 RES1   0.0000
    92 H45       2.0875   -6.1833   -3.0221   H         1 RES1   0.0000
    93 H46      -0.1797   -6.2719   -2.1780   H         1 RES1   0.0000
    94 H47      -0.8376   -6.3179   -3.8131   H         1 RES1   0.0000
    95 H48      -1.2646   -4.1285   -2.9382   H         1 RES1   0.0000
    96 H49      -0.1304   -4.0370   -4.2835   H         1 RES1   0.0000
    97 H50       2.3647   -3.5027   -4.1573   H         1 RES1   0.0000
    98 H51       2.9553   -4.3078   -2.6973   H         1 RES1   0.0000
    99 H52       3.6281   -2.0519   -1.7732   H         1 RES1   0.0000
   100 H53       3.0754   -1.3029   -3.2576   H         1 RES1   0.0000
   101 H54       5.1895   -3.4913   -3.3221   H         1 RES1   0.0000
   102 H55       5.5904   -1.8093   -2.9992   H         1 RES1   0.0000
   103 H56       4.3025   -2.8915   -5.5524   H         1 RES1   0.0000
   104 H57       5.8966   -2.1886   -5.3620   H         1 RES1   0.0000
   105 H58       4.4638   -1.1739   -5.1765   H         1 RES1   0.0000
   106 H59       1.7699   -4.6148   -0.5750   H         1 RES1   0.0000
   107 H60       0.0852   -4.1483   -0.1470   H         1 RES1   0.0000
   108 H61       3.0199   -3.8424    1.1341   H         1 RES1   0.0000
   109 H62       1.4200   -3.8312    1.9615   H         1 RES1   0.0000
   110 H63       4.3746   -3.3685    3.5188   H         1 RES1   0.0000
   111 H64       4.7675   -1.6569    3.7882   H         1 RES1   0.0000
   112 H65       5.2964   -3.2585    1.2187   H         1 RES1   0.0000
   113 H66       6.4740   -2.7178    2.4074   H         1 RES1   0.0000
   114 H67       5.7972   -0.3346    1.9060   H         1 RES1   0.0000
   115 H68       4.7874   -0.9469    0.5894   H         1 RES1   0.0000
   116 H69       7.8155   -1.3113    0.7805   H         1 RES1   0.0000
   117 H70       6.9691   -0.1533   -0.2391   H         1 RES1   0.0000
   118 H71       6.8009   -1.8844   -0.5425   H         1 RES1   0.0000
   119 H72       0.6798   -1.7549    3.6909   H         1 RES1   0.0000
   120 H73       1.9486   -0.8174    4.4672   H         1 RES1   0.0000
   121 H74       1.3398   -2.4542    6.0435   H         1 RES1   0.0000
   122 H75       2.8809   -3.0088    5.4172   H         1 RES1   0.0000
   123 H76       1.3685   -4.8901    5.6399   H         1 RES1   0.0000
   124 H77       1.6924   -4.6173    3.9329   H         1 RES1   0.0000
   125 H78      -0.8040   -3.6515    5.4286   H         1 RES1   0.0000
   126 H79      -0.7243   -5.1041    4.4388   H         1 RES1   0.0000
   127 H80      -0.5486   -3.5174    3.6829   H         1 RES1   0.0000
   128 C37      -1.4005    6.5877    2.0525   C.3       1 RES1   0.0000
   129 C38      -0.0441    6.6632    2.7415   C.3       1 RES1   0.0000
   130 C39       0.0623    5.7425    3.9537   C.3       1 RES1   0.0000
   131 C40      -0.3190    4.2970    3.6656   C.3       1 RES1   0.0000
   132 P5        0.6626    3.3293    2.4461   P.3       1 RES1   0.0000
   133 S5       -0.1025    1.4984    2.5170   S.3       1 RES1   0.0000
   134 C41       2.4246    3.3684    2.9790   C.3       1 RES1   0.0000
   135 C42       3.3103    4.5247    2.5127   C.3       1 RES1   0.0000
   136 C43       4.7893    4.1353    2.6126   C.3       1 RES1   0.0000
   137 C44       5.1876    3.1370    1.5321   C.3       1 RES1   0.0000
   138 C45       0.5361    3.8929    0.6455   C.3       1 RES1   0.0000
   139 O3        1.0573    2.8501   -0.1872   O.3       1 RES1   0.0000
   140 C46       1.8726    3.3878   -1.2253   C.3       1 RES1   0.0000
   141 P6        2.4928    2.0275   -2.3736   P.3       1 RES1   0.0000
   142 S6        2.7796    0.4153   -1.2715   S.3       1 RES1   0.0000
   143 C47       1.2014    1.7069   -3.6502   C.3       1 RES1   0.0000
   144 C48       1.3019    2.4933   -4.9491   C.3       1 RES1   0.0000
   145 C49       0.8156    3.9363   -4.8286   C.3       1 RES1   0.0000
   146 C50      -0.7009    4.0424   -4.6812   C.3       1 RES1   0.0000
   147 C51       4.1236    2.3325   -3.1714   C.3       1 RES1   0.0000
   148 C52       4.4944    3.6398   -3.8603   C.3       1 RES1   0.0000
   149 C53       4.8770    4.7292   -2.8620   C.3       1 RES1   0.0000
   150 C54       5.1369    6.0591   -3.5593   C.3       1 RES1   0.0000
   151 H81      -1.4458    7.3093    1.2409   H         1 RES1   0.0000
   152 H82      -2.1956    6.8280    2.7547   H         1 RES1   0.0000
   153 H83      -1.5876    5.5939    1.6433   H         1 RES1   0.0000
   154 H84       0.1239    7.6899    3.0708   H         1 RES1   0.0000
   155 H85       0.7527    6.4137    2.0364   H         1 RES1   0.0000
   156 H86      -0.6113    6.1017    4.7339   H         1 RES1   0.0000
   157 H87       1.0745    5.7846    4.3595   H         1 RES1   0.0000
   158 H88      -1.3721    4.2150    3.3931   H         1 RES1   0.0000
   159 H89      -0.1763    3.6922    4.5691   H         1 RES1   0.0000
   160 H90       2.8530    2.4144    2.6569   H         1 RES1   0.0000
   161 H91       2.3717    3.3475    4.0731   H         1 RES1   0.0000
   162 H92       3.1220    5.4193    3.1076   H         1 RES1   0.0000
   163 H93       3.0964    4.7780    1.4716   H         1 RES1   0.0000
   164 H94       4.9952    3.7172    3.5988   H         1 RES1   0.0000
   165 H95       5.3970    5.0364    2.5045   H         1 RES1   0.0000
   166 H96       4.6003    2.2212    1.5831   H         1 RES1   0.0000
   167 H97       6.2325    2.8708    1.6443   H         1 RES1   0.0000
   168 H98       5.0506    3.5764    0.5454   H         1 RES1   0.0000
   169 H99       1.1191    4.8079    0.5146   H         1 RES1   0.0000
   170 H100     -0.5160    4.0984    0.3924   H         1 RES1   0.0000
   171 H101      2.7633    3.8540   -0.7795   H         1 RES1   0.0000
   172 H102      1.3005    4.1125   -1.8248   H         1 RES1   0.0000
   173 H103      0.2402    1.8829   -3.1586   H         1 RES1   0.0000
   174 H104      1.2847    0.6321   -3.8468   H         1 RES1   0.0000
   175 H105      0.6956    1.9802   -5.6962   H         1 RES1   0.0000
   176 H106      2.3300    2.4787   -5.3111   H         1 RES1   0.0000
   177 H107      1.1123    4.4797   -5.7292   H         1 RES1   0.0000
   178 H108      1.3086    4.4185   -3.9802   H         1 RES1   0.0000
   179 H109     -1.1923    3.5825   -5.5382   H         1 RES1   0.0000
   180 H110     -0.9927    5.0897   -4.6578   H         1 RES1   0.0000
   181 H111     -1.0546    3.5644   -3.7654   H         1 RES1   0.0000
   182 H112      4.1459    1.4926   -3.8776   H         1 RES1   0.0000
   183 H113      4.8597    2.1055   -2.3942   H         1 RES1   0.0000
   184 H114      3.6994    4.0001   -4.5118   H         1 RES1   0.0000
   185 H115      5.3629    3.4196   -4.4850   H         1 RES1   0.0000
   186 H116      5.7717    4.4192   -2.3182   H         1 RES1   0.0000
   187 H117      4.0658    4.8514   -2.1381   H         1 RES1   0.0000
   188 H118      5.9442    5.9623   -4.2809   H         1 RES1   0.0000
   189 H119      5.4299    6.8113   -2.8318   H         1 RES1   0.0000
   190 H120      4.2461    6.4000   -4.0851   H         1 RES1   0.0000
@<TRIPOS>BOND
     1     1     7    1
     2     1    13    1
     3     1    16    1
     4     1    70    1
     5     1    76    1
     6     1    79    1
     7     1   133    1
     8     1   139    1
     9     1   142    1
    10     2     3    1
    11     2    25    1
    12     2    26    1
    13     2    27    1
    14     3     4    1
    15     3    28    1
    16     3    29    1
    17     4     5    1
    18     4    30    1
    19     4    31    1
    20     5     6    1
    21     5    32    1
    22     5    33    1
    23     6     7    2
    24     6     8    1
    25     6    12    1
    26     8     9    1
    27     8    34    1
    28     8    35    1
    29     9    10    1
    30     9    36    1
    31     9    37    1
    32    10    11    1
    33    10    38    1
    34    10    39    1
    35    11    40    1
    36    11    41    1
    37    11    42    1
    38    12    13    1
    39    12    43    1
    40    12    44    1
    41    13    14    1
    42    14    15    1
    43    14    45    1
    44    14    46    1
    45    15    16    2
    46    15    17    1
    47    15    21    1
    48    17    18    1
    49    17    47    1
    50    17    48    1
    51    18    19    1
    52    18    49    1
    53    18    50    1
    54    19    20    1
    55    19    51    1
    56    19    52    1
    57    20    53    1
    58    20    54    1
    59    20    55    1
    60    21    22    1
    61    21    56    1
    62    21    57    1
    63    22    23    1
    64    22    58    1
    65    22    59    1
    66    23    24    1
    67    23    60    1
    68    23    61    1
    69    24    62    1
    70    24    63    1
    71    24    64    1
    72    65    66    1
    73    65    88    1
    74    65    89    1
    75    65    90    1
    76    66    67    1
    77    66    91    1
    78    66    92    1
    79    67    68    1
    80    67    93    1
    81    67    94    1
    82    68    69    1
    83    68    95    1
    84    68    96    1
    85    69    70    2
    86    69    71    1
    87    69    75    1
    88    71    72    1
    89    71    97    1
    90    71    98    1
    91    72    73    1
    92    72    99    1
    93    72   100    1
    94    73    74    1
    95    73   101    1
    96    73   102    1
    97    74   103    1
    98    74   104    1
    99    74   105    1
   100    75    76    1
   101    75   106    1
   102    75   107    1
   103    76    77    1
   104    77    78    1
   105    77   108    1
   106    77   109    1
   107    78    79    2
   108    78    80    1
   109    78    84    1
   110    80    81    1
   111    80   110    1
   112    80   111    1
   113    81    82    1
   114    81   112    1
   115    81   113    1
   116    82    83    1
   117    82   114    1
   118    82   115    1
   119    83   116    1
   120    83   117    1
   121    83   118    1
   122    84    85    1
   123    84   119    1
   124    84   120    1
   125    85    86    1
   126    85   121    1
   127    85   122    1
   128    86    87    1
   129    86   123    1
   130    86   124    1
   131    87   125    1
   132    87   126    1
   133    87   127    1
   134   128   129    1
   135   128   151    1
   136   128   152    1
   137   128   153    1
   138   129   130    1
   139   129   154    1
   140   129   155    1
   141   130   131    1
   142   130   156    1
   143   130   157    1
   144   131   132    1
   145   131   158    1
   146   131   159    1
   147   132   133    2
   148   132   134    1
   149   132   138    1
   150   134   135    1
   151   134   160    1
   152   134   161    1
   153   135   136    1
   154   135   162    1
   155   135   163    1
   156   136   137    1
   157   136   164    1
   158   136   165    1
   159   137   166    1
   160   137   167    1
   161   137   168    1
   162   138   139    1
   163   138   169    1
   164   138   170    1
   165   139   140    1
   166   140   141    1
   167   140   171    1
   168   140   172    1
   169   141   142    2
   170   141   143    1
   171   141   147    1
   172   143   144    1
   173   143   173    1
   174   143   174    1
   175   144   145    1
   176   144   175    1
   177   144   176    1
   178   145   146    1
   179   145   177    1
   180   145   178    1
   181   146   179    1
   182   146   180    1
   183   146   181    1
   184   147   148    1
   185   147   182    1
   186   147   183    1
   187   148   149    1
   188   148   184    1
   189   148   185    1
   190   149   150    1
   191   149   186    1
   192   149   187    1
   193   150   188    1
   194   150   189    1
   195   150   190    1
@<TRIPOS>SUBSTRUCTURE
     1 RES1      190 GROUP             0 ****  ****    0  
