@<TRIPOS>MOLECULE
am_c3_9H2O_c0_0_nunpairedes_0_charge_3 Charge: 3 Unpaired_Electrons: 6 XTB_Unpaired_Electrons: 0 XTB_Charge: 3
   166   183     1     0     0
SMALL
NoCharges
****
Generated from Architector

@<TRIPOS>ATOM
     1 Eu1       0.1434    0.3106    0.1141   Eu        1 RES1   0.0000
     2 S1       -1.2012    2.2314    1.6785   S.3       1 RES1   0.0000
     3 P1       -2.7825    1.2879    2.3751   P.3       1 RES1   0.0000
     4 C1       -3.5963    0.2998    1.0300   C.3       1 RES1   0.0000
     5 O1       -2.6100   -0.4448    0.3311   O.3       1 RES1   0.0000
     6 C2       -3.1541   -1.4292   -0.5443   C.3       1 RES1   0.0000
     7 P2       -2.8086   -0.8715   -2.3122   P.3       1 RES1   0.0000
     8 S2       -0.8323   -0.7930   -2.3968   S.3       1 RES1   0.0000
     9 C3       -3.7082    0.6775   -2.6485   C.ar      1 RES1   0.0000
    10 C4       -3.2271    1.5170   -3.6487   C.ar      1 RES1   0.0000
    11 C5       -3.9032    2.6843   -3.9623   C.ar      1 RES1   0.0000
    12 C6       -5.0400    3.0364   -3.2529   C.ar      1 RES1   0.0000
    13 C7       -5.5427    2.1875   -2.2805   C.ar      1 RES1   0.0000
    14 C8       -4.8984    0.9936   -2.0001   C.ar      1 RES1   0.0000
    15 C9       -3.4425   -2.0985   -3.4853   C.ar      1 RES1   0.0000
    16 C10      -3.6008   -1.6855   -4.8027   C.ar      1 RES1   0.0000
    17 C11      -4.0882   -2.5706   -5.7473   C.ar      1 RES1   0.0000
    18 C12      -4.4122   -3.8648   -5.3755   C.ar      1 RES1   0.0000
    19 C13      -4.2145   -4.2885   -4.0698   C.ar      1 RES1   0.0000
    20 C14      -3.7251   -3.4091   -3.1218   C.ar      1 RES1   0.0000
    21 C15      -2.4591    0.2049    3.7771   C.ar      1 RES1   0.0000
    22 C16      -2.6598   -1.1672    3.8034   C.ar      1 RES1   0.0000
    23 C17      -2.3213   -1.8723    4.9439   C.ar      1 RES1   0.0000
    24 C18      -1.7971   -1.2181    6.0478   C.ar      1 RES1   0.0000
    25 C19      -1.6215    0.1567    6.0254   C.ar      1 RES1   0.0000
    26 C20      -1.9486    0.8686    4.8907   C.ar      1 RES1   0.0000
    27 C21      -4.0011    2.5380    2.7948   C.ar      1 RES1   0.0000
    28 C22      -4.7647    2.4908    3.9528   C.ar      1 RES1   0.0000
    29 C23      -5.6463    3.5232    4.2180   C.ar      1 RES1   0.0000
    30 C24      -5.7612    4.5891    3.3395   C.ar      1 RES1   0.0000
    31 C25      -4.9953    4.6286    2.1836   C.ar      1 RES1   0.0000
    32 C26      -4.1104    3.6077    1.9086   C.ar      1 RES1   0.0000
    33 H1       -4.1106    1.0161    0.3789   H         1 RES1   0.0000
    34 H2       -4.3400   -0.3548    1.5050   H         1 RES1   0.0000
    35 H3       -4.2046   -1.6411   -0.3121   H         1 RES1   0.0000
    36 H4       -2.5536   -2.3435   -0.4011   H         1 RES1   0.0000
    37 H5       -2.3079    1.2567   -4.1600   H         1 RES1   0.0000
    38 H6       -3.5398    3.3272   -4.7510   H         1 RES1   0.0000
    39 H7       -5.5395    3.9639   -3.4729   H         1 RES1   0.0000
    40 H8       -6.4426    2.4497   -1.7422   H         1 RES1   0.0000
    41 H9       -5.3324    0.3019   -1.2914   H         1 RES1   0.0000
    42 H10      -3.3396   -0.6755   -5.0899   H         1 RES1   0.0000
    43 H11      -4.2170   -2.2492   -6.7680   H         1 RES1   0.0000
    44 H12      -4.8163   -4.5393   -6.1091   H         1 RES1   0.0000
    45 H13      -4.4454   -5.3084   -3.7988   H         1 RES1   0.0000
    46 H14      -3.5553   -3.7412   -2.1057   H         1 RES1   0.0000
    47 H15      -3.0541   -1.6895    2.9456   H         1 RES1   0.0000
    48 H16      -2.4701   -2.9407    4.9732   H         1 RES1   0.0000
    49 H17      -1.5431   -1.7802    6.9337   H         1 RES1   0.0000
    50 H18      -1.2405    0.6748    6.8917   H         1 RES1   0.0000
    51 H19      -1.8305    1.9418    4.8330   H         1 RES1   0.0000
    52 H20      -4.6612    1.6530    4.6256   H         1 RES1   0.0000
    53 H21      -6.2472    3.4917    5.1117   H         1 RES1   0.0000
    54 H22      -6.4403    5.3948    3.5650   H         1 RES1   0.0000
    55 H23      -5.0900    5.4541    1.4954   H         1 RES1   0.0000
    56 H24      -3.4936    3.6260    1.0208   H         1 RES1   0.0000
    57 S3       -1.1343    2.3120   -1.5002   S.3       1 RES1   0.0000
    58 P3        0.3410    3.4749   -2.0907   P.3       1 RES1   0.0000
    59 C27       1.5538    3.8030   -0.7155   C.3       1 RES1   0.0000
    60 O2        1.8738    2.6150   -0.0036   O.3       1 RES1   0.0000
    61 C28       2.9716    2.7960    0.9004   C.3       1 RES1   0.0000
    62 P4        2.3241    2.6412    2.6621   P.3       1 RES1   0.0000
    63 S4        1.4796    0.8616    2.7942   S.3       1 RES1   0.0000
    64 C29       1.1965    4.0388    2.9481   C.ar      1 RES1   0.0000
    65 C30       0.1710    3.8981    3.8762   C.ar      1 RES1   0.0000
    66 C31      -0.7295    4.9289    4.0777   C.ar      1 RES1   0.0000
    67 C32      -0.6369    6.0899    3.3261   C.ar      1 RES1   0.0000
    68 C33       0.4118    6.2501    2.4362   C.ar      1 RES1   0.0000
    69 C34       1.3456    5.2423    2.2709   C.ar      1 RES1   0.0000
    70 C35       3.6600    2.6927    3.8827   C.ar      1 RES1   0.0000
    71 C36       3.2293    2.7799    5.2034   C.ar      1 RES1   0.0000
    72 C37       4.1313    2.6019    6.2341   C.ar      1 RES1   0.0000
    73 C38       5.4620    2.3384    5.9470   C.ar      1 RES1   0.0000
    74 C39       5.8961    2.3018    4.6326   C.ar      1 RES1   0.0000
    75 C40       4.9974    2.4701    3.5921   C.ar      1 RES1   0.0000
    76 C41       1.1928    2.8407   -3.5467   C.ar      1 RES1   0.0000
    77 C42       2.5548    2.5963   -3.6459   C.ar      1 RES1   0.0000
    78 C43       3.0752    2.2090   -4.8688   C.ar      1 RES1   0.0000
    79 C44       2.2497    2.0588   -5.9721   C.ar      1 RES1   0.0000
    80 C45       0.8837    2.2727   -5.8593   C.ar      1 RES1   0.0000
    81 C46       0.3542    2.6675   -4.6481   C.ar      1 RES1   0.0000
    82 C47      -0.3338    5.0957   -2.5115   C.ar      1 RES1   0.0000
    83 C48       0.0405    5.7892   -3.6560   C.ar      1 RES1   0.0000
    84 C49      -0.5957    6.9786   -3.9684   C.ar      1 RES1   0.0000
    85 C50      -1.5963    7.4733   -3.1479   C.ar      1 RES1   0.0000
    86 C51      -1.9650    6.7806   -2.0046   C.ar      1 RES1   0.0000
    87 C52      -1.3401    5.5909   -1.6862   C.ar      1 RES1   0.0000
    88 H25       1.0514    4.5312   -0.0589   H         1 RES1   0.0000
    89 H26       2.4526    4.2668   -1.1508   H         1 RES1   0.0000
    90 H27       3.4878    3.7413    0.7093   H         1 RES1   0.0000
    91 H28       3.6805    1.9714    0.7397   H         1 RES1   0.0000
    92 H29       0.0679    2.9662    4.4166   H         1 RES1   0.0000
    93 H30      -1.5136    4.8241    4.8122   H         1 RES1   0.0000
    94 H31      -1.3671    6.8756    3.4534   H         1 RES1   0.0000
    95 H32       0.5133    7.1638    1.8703   H         1 RES1   0.0000
    96 H33       2.2014    5.3994    1.6307   H         1 RES1   0.0000
    97 H34       2.1884    2.9718    5.4182   H         1 RES1   0.0000
    98 H35       3.7942    2.6574    7.2545   H         1 RES1   0.0000
    99 H36       6.1554    2.1724    6.7570   H         1 RES1   0.0000
   100 H37       6.9408    2.1356    4.4222   H         1 RES1   0.0000
   101 H38       5.3351    2.4288    2.5656   H         1 RES1   0.0000
   102 H39       3.1982    2.6926   -2.7874   H         1 RES1   0.0000
   103 H40       4.1373    2.0376   -4.9641   H         1 RES1   0.0000
   104 H41       2.6749    1.7906   -6.9271   H         1 RES1   0.0000
   105 H42       0.2348    2.1567   -6.7139   H         1 RES1   0.0000
   106 H43      -0.7003    2.8653   -4.5229   H         1 RES1   0.0000
   107 H44       0.8172    5.3989   -4.2964   H         1 RES1   0.0000
   108 H45      -0.3088    7.5196   -4.8552   H         1 RES1   0.0000
   109 H46      -2.0928    8.3953   -3.4078   H         1 RES1   0.0000
   110 H47      -2.7413    7.1714   -1.3649   H         1 RES1   0.0000
   111 H48      -1.6307    5.0283   -0.8089   H         1 RES1   0.0000
   112 S5        2.4284   -0.0058   -1.5378   S.3       1 RES1   0.0000
   113 P5        2.5998   -1.7170   -2.5376   P.3       1 RES1   0.0000
   114 C53       2.3508   -3.1446   -1.3930   C.3       1 RES1   0.0000
   115 O3        1.1290   -2.8966   -0.7324   O.3       1 RES1   0.0000
   116 C54       0.7086   -3.9729    0.1019   C.3       1 RES1   0.0000
   117 P6        0.9781   -3.3025    1.8229   P.3       1 RES1   0.0000
   118 S6       -0.3241   -1.8116    1.9357   S.3       1 RES1   0.0000
   119 C55       2.7560   -2.9324    1.8978   C.ar      1 RES1   0.0000
   120 C56       3.2504   -1.6565    1.6495   C.ar      1 RES1   0.0000
   121 C57       4.5992   -1.3969    1.8168   C.ar      1 RES1   0.0000
   122 C58       5.4695   -2.4099    2.1866   C.ar      1 RES1   0.0000
   123 C59       4.9835   -3.6960    2.3807   C.ar      1 RES1   0.0000
   124 C60       3.6304   -3.9594    2.2513   C.ar      1 RES1   0.0000
   125 C61       0.5762   -4.4978    3.1175   C.ar      1 RES1   0.0000
   126 C62       1.1996   -4.4227    4.3583   C.ar      1 RES1   0.0000
   127 C63       0.7460   -5.2196    5.3925   C.ar      1 RES1   0.0000
   128 C64      -0.3338   -6.0674    5.2027   C.ar      1 RES1   0.0000
   129 C65      -0.9367   -6.1569    3.9577   C.ar      1 RES1   0.0000
   130 C66      -0.4862   -5.3727    2.9122   C.ar      1 RES1   0.0000
   131 C67       1.5343   -2.0390   -3.9735   C.ar      1 RES1   0.0000
   132 C68       0.5704   -3.0417   -3.9909   C.ar      1 RES1   0.0000
   133 C69      -0.2119   -3.2170   -5.1173   C.ar      1 RES1   0.0000
   134 C70      -0.0336   -2.4068   -6.2270   C.ar      1 RES1   0.0000
   135 C71       0.9476   -1.4283   -6.2198   C.ar      1 RES1   0.0000
   136 C72       1.7281   -1.2375   -5.0936   C.ar      1 RES1   0.0000
   137 C73       4.3132   -1.8797   -3.0611   C.ar      1 RES1   0.0000
   138 C74       4.6598   -2.5744   -4.2140   C.ar      1 RES1   0.0000
   139 C75       5.9944   -2.6786   -4.5609   C.ar      1 RES1   0.0000
   140 C76       6.9717   -2.0995   -3.7675   C.ar      1 RES1   0.0000
   141 C77       6.6200   -1.4169   -2.6130   C.ar      1 RES1   0.0000
   142 C78       5.2908   -1.3038   -2.2583   C.ar      1 RES1   0.0000
   143 H49       3.1980   -3.1859   -0.6950   H         1 RES1   0.0000
   144 H50       2.3254   -4.0763   -1.9709   H         1 RES1   0.0000
   145 H51       1.2445   -4.8993   -0.1112   H         1 RES1   0.0000
   146 H52      -0.3654   -4.1254   -0.0572   H         1 RES1   0.0000
   147 H53       2.5702   -0.8631    1.3440   H         1 RES1   0.0000
   148 H54       4.9699   -0.3920    1.6835   H         1 RES1   0.0000
   149 H55       6.5182   -2.2027    2.3334   H         1 RES1   0.0000
   150 H56       5.6533   -4.4952    2.6530   H         1 RES1   0.0000
   151 H57       3.2423   -4.9486    2.4323   H         1 RES1   0.0000
   152 H58       2.0209   -3.7375    4.5154   H         1 RES1   0.0000
   153 H59       1.2291   -5.1724    6.3539   H         1 RES1   0.0000
   154 H60      -0.7018   -6.6577    6.0271   H         1 RES1   0.0000
   155 H61      -1.7608   -6.8356    3.8065   H         1 RES1   0.0000
   156 H62      -0.9601   -5.4205    1.9420   H         1 RES1   0.0000
   157 H63       0.3951   -3.6574   -3.1236   H         1 RES1   0.0000
   158 H64      -0.9688   -3.9861   -5.1294   H         1 RES1   0.0000
   159 H65      -0.6545   -2.5462   -7.0987   H         1 RES1   0.0000
   160 H66       1.1100   -0.8131   -7.0900   H         1 RES1   0.0000
   161 H67       2.4843   -0.4655   -5.0578   H         1 RES1   0.0000
   162 H68       3.8853   -3.0159   -4.8235   H         1 RES1   0.0000
   163 H69       6.2700   -3.2219   -5.4492   H         1 RES1   0.0000
   164 H70       8.0078   -2.1787   -4.0530   H         1 RES1   0.0000
   165 H71       7.3803   -0.9807   -1.9862   H         1 RES1   0.0000
   166 H72       4.9930   -0.7637   -1.3709   H         1 RES1   0.0000
@<TRIPOS>BOND
     1     1     2    1
     2     1     5    1
     3     1     8    1
     4     1    57    1
     5     1    60    1
     6     1    63    1
     7     1   112    1
     8     1   115    1
     9     1   118    1
    10     2     3    2
    11     3     4    1
    12     3    21    1
    13     3    27    1
    14     4     5    1
    15     4    33    1
    16     4    34    1
    17     5     6    1
    18     6     7    1
    19     6    35    1
    20     6    36    1
    21     7     8    2
    22     7     9    1
    23     7    15    1
    24     9    10    1
    25     9    14    2
    26    10    11    2
    27    10    37    1
    28    11    12    1
    29    11    38    1
    30    12    13    2
    31    12    39    1
    32    13    14    1
    33    13    40    1
    34    14    41    1
    35    15    16    1
    36    15    20    2
    37    16    17    2
    38    16    42    1
    39    17    18    1
    40    17    43    1
    41    18    19    2
    42    18    44    1
    43    19    20    1
    44    19    45    1
    45    20    46    1
    46    21    22    1
    47    21    26    2
    48    22    23    2
    49    22    47    1
    50    23    24    1
    51    23    48    1
    52    24    25    2
    53    24    49    1
    54    25    26    1
    55    25    50    1
    56    26    51    1
    57    27    28    1
    58    27    32    2
    59    28    29    2
    60    28    52    1
    61    29    30    1
    62    29    53    1
    63    30    31    2
    64    30    54    1
    65    31    32    1
    66    31    55    1
    67    32    56    1
    68    57    58    2
    69    58    59    1
    70    58    76    1
    71    58    82    1
    72    59    60    1
    73    59    88    1
    74    59    89    1
    75    60    61    1
    76    61    62    1
    77    61    90    1
    78    61    91    1
    79    62    63    2
    80    62    64    1
    81    62    70    1
    82    64    65    1
    83    64    69    2
    84    65    66    2
    85    65    92    1
    86    66    67    1
    87    66    93    1
    88    67    68    2
    89    67    94    1
    90    68    69    1
    91    68    95    1
    92    69    96    1
    93    70    71    1
    94    70    75    2
    95    71    72    2
    96    71    97    1
    97    72    73    1
    98    72    98    1
    99    73    74    2
   100    73    99    1
   101    74    75    1
   102    74   100    1
   103    75   101    1
   104    76    77    1
   105    76    81    2
   106    77    78    2
   107    77   102    1
   108    78    79    1
   109    78   103    1
   110    79    80    2
   111    79   104    1
   112    80    81    1
   113    80   105    1
   114    81   106    1
   115    82    83    1
   116    82    87    2
   117    83    84    2
   118    83   107    1
   119    84    85    1
   120    84   108    1
   121    85    86    2
   122    85   109    1
   123    86    87    1
   124    86   110    1
   125    87   111    1
   126   112   113    2
   127   113   114    1
   128   113   131    1
   129   113   137    1
   130   114   115    1
   131   114   143    1
   132   114   144    1
   133   115   116    1
   134   116   117    1
   135   116   145    1
   136   116   146    1
   137   117   118    2
   138   117   119    1
   139   117   125    1
   140   119   120    1
   141   119   124    2
   142   120   121    2
   143   120   147    1
   144   121   122    1
   145   121   148    1
   146   122   123    2
   147   122   149    1
   148   123   124    1
   149   123   150    1
   150   124   151    1
   151   125   126    1
   152   125   130    2
   153   126   127    2
   154   126   152    1
   155   127   128    1
   156   127   153    1
   157   128   129    2
   158   128   154    1
   159   129   130    1
   160   129   155    1
   161   130   156    1
   162   131   132    1
   163   131   136    2
   164   132   133    2
   165   132   157    1
   166   133   134    1
   167   133   158    1
   168   134   135    2
   169   134   159    1
   170   135   136    1
   171   135   160    1
   172   136   161    1
   173   137   138    1
   174   137   142    2
   175   138   139    2
   176   138   162    1
   177   139   140    1
   178   139   163    1
   179   140   141    2
   180   140   164    1
   181   141   142    1
   182   141   165    1
   183   142   166    1
@<TRIPOS>SUBSTRUCTURE
     1 RES1      166 GROUP             0 ****  ****    0  
