@<TRIPOS>MOLECULE
am_c3_9H2O_c0_0_nunpairedes_0_charge_3 Charge: 3 Unpaired_Electrons: 6 XTB_Unpaired_Electrons: 0 XTB_Charge: 3
   280   291     1     0     0
SMALL
NoCharges
****
Generated from Architector

@<TRIPOS>ATOM
     1 Eu1       0.0306    0.1123   -0.0683   Eu        1 RES1   0.0000
     2 C1        3.0882   -2.2636    3.9809   C.3       1 RES1   0.0000
     3 C2        3.3085   -0.9825    3.1832   C.3       1 RES1   0.0000
     4 C3        4.7823   -0.6914    2.9009   C.3       1 RES1   0.0000
     5 C4        4.9786    0.6663    2.2140   C.3       1 RES1   0.0000
     6 C5        4.4266    0.6712    0.7870   C.3       1 RES1   0.0000
     7 C6        4.4604    2.0191    0.0626   C.3       1 RES1   0.0000
     8 C7        3.6227    3.0566    0.8054   C.3       1 RES1   0.0000
     9 C8        3.1152    4.2275   -0.0302   C.3       1 RES1   0.0000
    10 N1        2.0550    4.0179   -1.0291   N.am      1 RES1   0.0000
    11 C9        2.0604    5.0571   -2.0526   C.3       1 RES1   0.0000
    12 C10       1.5980    6.4377   -1.5399   C.3       1 RES1   0.0000
    13 C11       2.6681    7.3702   -0.9612   C.3       1 RES1   0.0000
    14 C12       3.4561    8.1997   -1.9732   C.3       1 RES1   0.0000
    15 C13       4.4505    7.4197   -2.8387   C.3       1 RES1   0.0000
    16 C14       3.8924    7.0130   -4.2027   C.3       1 RES1   0.0000
    17 C15       4.9155    6.2070   -5.0039   C.3       1 RES1   0.0000
    18 C16       4.3788    5.8024   -6.3745   C.3       1 RES1   0.0000
    19 C17       1.0996    3.1012   -0.8848   C.2       1 RES1   0.0000
    20 O1        1.1508    2.2111   -0.0110   O.2       1 RES1   0.0000
    21 C18      -0.1742    3.1299   -1.7132   C.ar      1 RES1   0.0000
    22 C19      -0.8982    4.3260   -1.8936   C.ar      1 RES1   0.0000
    23 C20      -2.1562    4.2953   -2.4342   C.ar      1 RES1   0.0000
    24 C21      -2.6819    3.0712   -2.8806   C.ar      1 RES1   0.0000
    25 C22      -3.9439    2.9446   -3.4945   C.ar      1 RES1   0.0000
    26 C23      -4.3767    1.7311   -3.9507   C.ar      1 RES1   0.0000
    27 C24      -3.5409    0.6112   -3.8490   C.ar      1 RES1   0.0000
    28 C25      -2.3175    0.7021   -3.2502   C.ar      1 RES1   0.0000
    29 C26      -1.8633    1.9175   -2.7002   C.ar      1 RES1   0.0000
    30 N2       -0.6765    1.9488   -2.0439   N.ar      1 RES1   0.0000
    31 H1        2.0273   -2.5114    4.0154   H         1 RES1   0.0000
    32 H2        3.4579   -2.1616    4.9968   H         1 RES1   0.0000
    33 H3        3.6174   -3.0960    3.5269   H         1 RES1   0.0000
    34 H4        2.9078   -0.1323    3.7344   H         1 RES1   0.0000
    35 H5        2.7445   -1.0522    2.2446   H         1 RES1   0.0000
    36 H6        5.2040   -1.4838    2.2795   H         1 RES1   0.0000
    37 H7        5.3242   -0.6898    3.8497   H         1 RES1   0.0000
    38 H8        6.0438    0.9000    2.1809   H         1 RES1   0.0000
    39 H9        4.4927    1.4317    2.8211   H         1 RES1   0.0000
    40 H10       3.3782    0.3389    0.7991   H         1 RES1   0.0000
    41 H11       5.0147   -0.0477    0.2140   H         1 RES1   0.0000
    42 H12       4.0562    1.8623   -0.9413   H         1 RES1   0.0000
    43 H13       5.4876    2.3729   -0.0253   H         1 RES1   0.0000
    44 H14       4.2379    3.5016    1.5889   H         1 RES1   0.0000
    45 H15       2.7872    2.5465    1.2729   H         1 RES1   0.0000
    46 H16       3.9691    4.6653   -0.5552   H         1 RES1   0.0000
    47 H17       2.7104    4.9643    0.6718   H         1 RES1   0.0000
    48 H18       1.4220    4.7393   -2.8741   H         1 RES1   0.0000
    49 H19       3.0738    5.1447   -2.4417   H         1 RES1   0.0000
    50 H20       0.8664    6.2737   -0.7473   H         1 RES1   0.0000
    51 H21       1.0961    6.9689   -2.3521   H         1 RES1   0.0000
    52 H22       3.3672    6.8151   -0.3394   H         1 RES1   0.0000
    53 H23       2.1489    8.0745   -0.3075   H         1 RES1   0.0000
    54 H24       4.0081    8.9431   -1.3992   H         1 RES1   0.0000
    55 H25       2.7630    8.7432   -2.6155   H         1 RES1   0.0000
    56 H26       4.8127    6.5414   -2.2944   H         1 RES1   0.0000
    57 H27       5.3201    8.0503   -3.0263   H         1 RES1   0.0000
    58 H28       3.6396    7.9188   -4.7573   H         1 RES1   0.0000
    59 H29       2.9745    6.4282   -4.1044   H         1 RES1   0.0000
    60 H30       5.1958    5.3084   -4.4411   H         1 RES1   0.0000
    61 H31       5.8176    6.8093   -5.1325   H         1 RES1   0.0000
    62 H32       3.4885    5.1791   -6.2756   H         1 RES1   0.0000
    63 H33       5.1343    5.2455   -6.9251   H         1 RES1   0.0000
    64 H34       4.1157    6.6851   -6.9541   H         1 RES1   0.0000
    65 H35      -0.4880    5.2630   -1.5669   H         1 RES1   0.0000
    66 H36      -2.7302    5.2047   -2.5331   H         1 RES1   0.0000
    67 H37      -4.5572    3.8243   -3.6019   H         1 RES1   0.0000
    68 H38      -5.3387    1.6390   -4.4249   H         1 RES1   0.0000
    69 H39      -3.8699   -0.3211   -4.2806   H         1 RES1   0.0000
    70 H40      -1.6486   -0.1387   -3.2181   H         1 RES1   0.0000
    71 C27      -2.6467    4.9154    1.0047   C.3       1 RES1   0.0000
    72 C28      -2.5694    5.1160    2.5175   C.3       1 RES1   0.0000
    73 C29      -1.5219    6.1710    2.8846   C.3       1 RES1   0.0000
    74 C30      -0.0893    5.6263    2.8984   C.3       1 RES1   0.0000
    75 C31       0.2670    4.9640    4.2311   C.3       1 RES1   0.0000
    76 C32       1.6492    4.3033    4.1989   C.3       1 RES1   0.0000
    77 C33       1.6359    2.8650    3.6641   C.3       1 RES1   0.0000
    78 C34       1.2832    1.9237    4.8089   C.3       1 RES1   0.0000
    79 N3        0.7360    0.5950    4.5358   N.am      1 RES1   0.0000
    80 C35       0.8591   -0.2741    5.6990   C.3       1 RES1   0.0000
    81 C36       0.1310    0.2024    6.9614   C.3       1 RES1   0.0000
    82 C37       1.0413    0.9065    7.9669   C.3       1 RES1   0.0000
    83 C38       0.2793    1.2686    9.2427   C.3       1 RES1   0.0000
    84 C39      -0.7525    2.3893    9.0640   C.3       1 RES1   0.0000
    85 C40      -0.2645    3.8146    9.3414   C.3       1 RES1   0.0000
    86 C41       0.8974    4.3288    8.4815   C.3       1 RES1   0.0000
    87 C42       2.2718    4.0430    9.0823   C.3       1 RES1   0.0000
    88 C43       0.1951    0.1638    3.3950   C.2       1 RES1   0.0000
    89 O2        0.4810    0.6258    2.2670   O.2       1 RES1   0.0000
    90 C44      -0.9072   -0.8623    3.4697   C.ar      1 RES1   0.0000
    91 C45      -1.7861   -0.8731    4.5732   C.ar      1 RES1   0.0000
    92 C46      -2.8538   -1.7261    4.5854   C.ar      1 RES1   0.0000
    93 C47      -3.0757   -2.5619    3.4771   C.ar      1 RES1   0.0000
    94 C48      -4.1429   -3.4815    3.4159   C.ar      1 RES1   0.0000
    95 C49      -4.3626   -4.2202    2.2896   C.ar      1 RES1   0.0000
    96 C50      -3.5166   -4.0685    1.1836   C.ar      1 RES1   0.0000
    97 C51      -2.4690   -3.1920    1.2190   C.ar      1 RES1   0.0000
    98 C52      -2.1940   -2.4160    2.3647   C.ar      1 RES1   0.0000
    99 N4       -1.1405   -1.5606    2.3716   N.ar      1 RES1   0.0000
   100 H41      -3.3236    4.0928    0.7562   H         1 RES1   0.0000
   101 H42      -1.6538    4.7409    0.5908   H         1 RES1   0.0000
   102 H43      -3.0354    5.8088    0.5237   H         1 RES1   0.0000
   103 H44      -2.3319    4.1717    3.0185   H         1 RES1   0.0000
   104 H45      -3.5507    5.4362    2.8676   H         1 RES1   0.0000
   105 H46      -1.7435    6.5791    3.8705   H         1 RES1   0.0000
   106 H47      -1.5999    6.9928    2.1714   H         1 RES1   0.0000
   107 H48       0.6035    6.4552    2.7443   H         1 RES1   0.0000
   108 H49       0.0576    4.9219    2.0717   H         1 RES1   0.0000
   109 H50      -0.4981    4.2342    4.5098   H         1 RES1   0.0000
   110 H51       0.2638    5.7434    4.9941   H         1 RES1   0.0000
   111 H52       2.0695    4.2910    5.2049   H         1 RES1   0.0000
   112 H53       2.3110    4.9201    3.5906   H         1 RES1   0.0000
   113 H54       2.6293    2.6061    3.3057   H         1 RES1   0.0000
   114 H55       0.9519    2.7786    2.8199   H         1 RES1   0.0000
   115 H56       0.5256    2.4099    5.4361   H         1 RES1   0.0000
   116 H57       2.1883    1.7926    5.4127   H         1 RES1   0.0000
   117 H58       1.9255   -0.3536    5.9275   H         1 RES1   0.0000
   118 H59       0.5258   -1.2664    5.4125   H         1 RES1   0.0000
   119 H60      -0.3124   -0.6650    7.4553   H         1 RES1   0.0000
   120 H61      -0.6763    0.8809    6.6846   H         1 RES1   0.0000
   121 H62       1.4674    1.8064    7.5308   H         1 RES1   0.0000
   122 H63       1.8610    0.2316    8.2187   H         1 RES1   0.0000
   123 H64       0.9846    1.5588   10.0201   H         1 RES1   0.0000
   124 H65      -0.2287    0.3650    9.5843   H         1 RES1   0.0000
   125 H66      -1.5749    2.2049    9.7563   H         1 RES1   0.0000
   126 H67      -1.1753    2.3537    8.0567   H         1 RES1   0.0000
   127 H68       0.0161    3.9018   10.3908   H         1 RES1   0.0000
   128 H69      -1.1223    4.4731    9.1862   H         1 RES1   0.0000
   129 H70       0.8031    5.4137    8.3948   H         1 RES1   0.0000
   130 H71       0.8226    3.9203    7.4676   H         1 RES1   0.0000
   131 H72       2.3246    4.4705   10.0807   H         1 RES1   0.0000
   132 H73       3.0548    4.4974    8.4772   H         1 RES1   0.0000
   133 H74       2.4759    2.9792    9.1594   H         1 RES1   0.0000
   134 H75      -1.6369   -0.1978    5.3936   H         1 RES1   0.0000
   135 H76      -3.5175   -1.7536    5.4371   H         1 RES1   0.0000
   136 H77      -4.7934   -3.5754    4.2704   H         1 RES1   0.0000
   137 H78      -5.1825   -4.9163    2.2421   H         1 RES1   0.0000
   138 H79      -3.6931   -4.6614    0.2998   H         1 RES1   0.0000
   139 H80      -1.8582   -3.0817    0.3413   H         1 RES1   0.0000
   140 C53       4.0443   -5.4120   -6.9177   C.3       1 RES1   0.0000
   141 C54       4.4953   -3.9973   -7.2728   C.3       1 RES1   0.0000
   142 C55       5.6783   -3.5655   -6.4038   C.3       1 RES1   0.0000
   143 C56       6.3399   -2.2620   -6.8538   C.3       1 RES1   0.0000
   144 C57       5.5156   -0.9960   -6.6000   C.3       1 RES1   0.0000
   145 C58       5.8067   -0.3023   -5.2662   C.3       1 RES1   0.0000
   146 C59       5.3747   -1.0414   -3.9933   C.3       1 RES1   0.0000
   147 C60       3.8953   -1.4557   -3.9308   C.3       1 RES1   0.0000
   148 N5        3.0420   -0.4600   -3.3109   N.am      1 RES1   0.0000
   149 C61       2.6877    0.7141   -4.1036   C.3       1 RES1   0.0000
   150 C62       1.3560    0.6118   -4.8555   C.3       1 RES1   0.0000
   151 C63       1.3347   -0.4647   -5.9439   C.3       1 RES1   0.0000
   152 C64       0.2629   -0.2384   -7.0160   C.3       1 RES1   0.0000
   153 C65      -1.1845   -0.3334   -6.5118   C.3       1 RES1   0.0000
   154 C66      -2.0753    0.8102   -7.0026   C.3       1 RES1   0.0000
   155 C67      -1.6775    2.1695   -6.4279   C.3       1 RES1   0.0000
   156 C68      -2.6879    3.2545   -6.7858   C.3       1 RES1   0.0000
   157 C69       2.5252   -0.5121   -2.0874   C.2       1 RES1   0.0000
   158 O3        1.6788    0.3363   -1.7258   O.2       1 RES1   0.0000
   159 C70       2.8688   -1.5595   -1.0656   C.ar      1 RES1   0.0000
   160 C71       4.1611   -2.0493   -0.8046   C.ar      1 RES1   0.0000
   161 C72       4.3439   -2.9985    0.1762   C.ar      1 RES1   0.0000
   162 C73       3.2198   -3.5668    0.7992   C.ar      1 RES1   0.0000
   163 C74       3.2402   -4.7149    1.6219   C.ar      1 RES1   0.0000
   164 C75       2.0806   -5.2105    2.1541   C.ar      1 RES1   0.0000
   165 C76       0.8526   -4.5762    1.9081   C.ar      1 RES1   0.0000
   166 C77       0.8075   -3.4649    1.1188   C.ar      1 RES1   0.0000
   167 C78       1.9688   -2.9402    0.5348   C.ar      1 RES1   0.0000
   168 N6        1.8262   -1.8899   -0.3086   N.ar      1 RES1   0.0000
   169 H81       3.1957   -5.7137   -7.5278   H         1 RES1   0.0000
   170 H82       3.7551   -5.4755   -5.8693   H         1 RES1   0.0000
   171 H83       4.8537   -6.1195   -7.0845   H         1 RES1   0.0000
   172 H84       3.6547   -3.3055   -7.1495   H         1 RES1   0.0000
   173 H85       4.7878   -3.9742   -8.3238   H         1 RES1   0.0000
   174 H86       6.4293   -4.3579   -6.4403   H         1 RES1   0.0000
   175 H87       5.3381   -3.4806   -5.3702   H         1 RES1   0.0000
   176 H88       6.5385   -2.3422   -7.9228   H         1 RES1   0.0000
   177 H89       7.3051   -2.1618   -6.3554   H         1 RES1   0.0000
   178 H90       4.4547   -1.2298   -6.6996   H         1 RES1   0.0000
   179 H91       5.7446   -0.2739   -7.3848   H         1 RES1   0.0000
   180 H92       5.3520    0.6900   -5.2903   H         1 RES1   0.0000
   181 H93       6.8847   -0.1432   -5.1982   H         1 RES1   0.0000
   182 H94       5.5761   -0.3898   -3.1406   H         1 RES1   0.0000
   183 H95       6.0012   -1.9277   -3.8949   H         1 RES1   0.0000
   184 H96       3.7851   -2.3884   -3.3826   H         1 RES1   0.0000
   185 H97       3.5359   -1.6295   -4.9436   H         1 RES1   0.0000
   186 H98       3.4941    0.9103   -4.8087   H         1 RES1   0.0000
   187 H99       2.6049    1.5411   -3.3939   H         1 RES1   0.0000
   188 H100      1.1811    1.5826   -5.3240   H         1 RES1   0.0000
   189 H101      0.5596    0.4490   -4.1279   H         1 RES1   0.0000
   190 H102      1.1981   -1.4498   -5.4894   H         1 RES1   0.0000
   191 H103      2.2964   -0.4532   -6.4612   H         1 RES1   0.0000
   192 H104      0.4144   -0.9779   -7.8035   H         1 RES1   0.0000
   193 H105      0.4262    0.7416   -7.4632   H         1 RES1   0.0000
   194 H106     -1.1973   -0.3349   -5.4207   H         1 RES1   0.0000
   195 H107     -1.6229   -1.2743   -6.8473   H         1 RES1   0.0000
   196 H108     -3.1086    0.6028   -6.7100   H         1 RES1   0.0000
   197 H109     -2.0430    0.8566   -8.0920   H         1 RES1   0.0000
   198 H110     -0.6972    2.4641   -6.8073   H         1 RES1   0.0000
   199 H111     -1.5967    2.0876   -5.3396   H         1 RES1   0.0000
   200 H112     -2.7347    3.3886   -7.8636   H         1 RES1   0.0000
   201 H113     -2.4029    4.2026   -6.3321   H         1 RES1   0.0000
   202 H114     -3.6818    2.9837   -6.4332   H         1 RES1   0.0000
   203 H115      5.0005   -1.6517   -1.3516   H         1 RES1   0.0000
   204 H116      5.3349   -3.3498    0.4169   H         1 RES1   0.0000
   205 H117      4.1815   -5.2078    1.8142   H         1 RES1   0.0000
   206 H118      2.1056   -6.0920    2.7711   H         1 RES1   0.0000
   207 H119     -0.0541   -4.9761    2.3355   H         1 RES1   0.0000
   208 H120     -0.1075   -2.9573    0.8773   H         1 RES1   0.0000
   209 C79       6.8157   -4.6376   -1.8458   C.3       1 RES1   0.0000
   210 C80       5.4724   -4.6115   -2.5702   C.3       1 RES1   0.0000
   211 C81       4.6009   -5.8370   -2.2916   C.3       1 RES1   0.0000
   212 C82       3.1708   -5.7045   -2.8499   C.3       1 RES1   0.0000
   213 C83       2.2454   -4.9976   -1.8554   C.3       1 RES1   0.0000
   214 C84       0.7601   -4.8407   -2.2332   C.3       1 RES1   0.0000
   215 C85       0.4938   -3.5884   -3.0721   C.3       1 RES1   0.0000
   216 C86      -0.9675   -3.3464   -3.4873   C.3       1 RES1   0.0000
   217 N7       -2.0179   -3.0203   -2.5026   N.am      1 RES1   0.0000
   218 C87      -3.2214   -3.8307   -2.6235   C.3       1 RES1   0.0000
   219 C88      -4.1032   -3.4458   -3.8314   C.3       1 RES1   0.0000
   220 C89      -3.9010   -4.2606   -5.1137   C.3       1 RES1   0.0000
   221 C90      -4.7532   -5.5233   -5.2461   C.3       1 RES1   0.0000
   222 C91      -4.5145   -6.6188   -4.2023   C.3       1 RES1   0.0000
   223 C92      -5.4038   -6.4848   -2.9663   C.3       1 RES1   0.0000
   224 C93      -5.2049   -7.6402   -1.9849   C.3       1 RES1   0.0000
   225 C94      -6.1255   -7.5051   -0.7744   C.3       1 RES1   0.0000
   226 C95      -1.8876   -1.9389   -1.7331   C.2       1 RES1   0.0000
   227 O4       -0.7616   -1.4024   -1.6004   O.2       1 RES1   0.0000
   228 C96      -3.0358   -1.2608   -1.0029   C.ar      1 RES1   0.0000
   229 C97      -4.3836   -1.3128   -1.4016   C.ar      1 RES1   0.0000
   230 C98      -5.3397   -0.6294   -0.6955   C.ar      1 RES1   0.0000
   231 C99      -4.9738    0.0890    0.4552   C.ar      1 RES1   0.0000
   232 C100     -5.8933    0.7885    1.2660   C.ar      1 RES1   0.0000
   233 C101     -5.4684    1.4843    2.3630   C.ar      1 RES1   0.0000
   234 C102     -4.1098    1.4694    2.7145   C.ar      1 RES1   0.0000
   235 C103     -3.1982    0.7957    1.9536   C.ar      1 RES1   0.0000
   236 C104     -3.5840    0.1137    0.7783   C.ar      1 RES1   0.0000
   237 N8       -2.6440   -0.5031    0.0190   N.ar      1 RES1   0.0000
   238 H121      7.3599   -3.7109   -2.0261   H         1 RES1   0.0000
   239 H122      7.4262   -5.4639   -2.1986   H         1 RES1   0.0000
   240 H123      6.6791   -4.7544   -0.7719   H         1 RES1   0.0000
   241 H124      4.9270   -3.7159   -2.2714   H         1 RES1   0.0000
   242 H125      5.6531   -4.5432   -3.6441   H         1 RES1   0.0000
   243 H126      4.5493   -6.0073   -1.2123   H         1 RES1   0.0000
   244 H127      5.0877   -6.7022   -2.7409   H         1 RES1   0.0000
   245 H128      2.7773   -6.6993   -3.0520   H         1 RES1   0.0000
   246 H129      3.2007   -5.1650   -3.7990   H         1 RES1   0.0000
   247 H130      2.6513   -4.0056   -1.6704   H         1 RES1   0.0000
   248 H131      2.2939   -5.5551   -0.9173   H         1 RES1   0.0000
   249 H132      0.1875   -4.7684   -1.3041   H         1 RES1   0.0000
   250 H133      0.4291   -5.7275   -2.7763   H         1 RES1   0.0000
   251 H134      1.0289   -3.7000   -4.0186   H         1 RES1   0.0000
   252 H135      0.8959   -2.7092   -2.5668   H         1 RES1   0.0000
   253 H136     -1.3065   -4.2447   -4.0032   H         1 RES1   0.0000
   254 H137     -0.9565   -2.5098   -4.1941   H         1 RES1   0.0000
   255 H138     -3.7909   -3.7287   -1.7031   H         1 RES1   0.0000
   256 H139     -2.9142   -4.8729   -2.7139   H         1 RES1   0.0000
   257 H140     -3.8845   -2.4053   -4.0737   H         1 RES1   0.0000
   258 H141     -5.1595   -3.5179   -3.5601   H         1 RES1   0.0000
   259 H142     -2.8500   -4.5210   -5.2321   H         1 RES1   0.0000
   260 H143     -4.1664   -3.6148   -5.9537   H         1 RES1   0.0000
   261 H144     -4.5399   -5.9342   -6.2330   H         1 RES1   0.0000
   262 H145     -5.8092   -5.2487   -5.2371   H         1 RES1   0.0000
   263 H146     -3.4590   -6.6491   -3.9154   H         1 RES1   0.0000
   264 H147     -4.7443   -7.5822   -4.6599   H         1 RES1   0.0000
   265 H148     -6.4471   -6.4755   -3.2905   H         1 RES1   0.0000
   266 H149     -5.2138   -5.5450   -2.4417   H         1 RES1   0.0000
   267 H150     -4.1606   -7.6672   -1.6541   H         1 RES1   0.0000
   268 H151     -5.4134   -8.5841   -2.4929   H         1 RES1   0.0000
   269 H152     -5.9395   -6.5663   -0.2490   H         1 RES1   0.0000
   270 H153     -5.9664   -8.3290   -0.0823   H         1 RES1   0.0000
   271 H154     -7.1675   -7.5187   -1.0892   H         1 RES1   0.0000
   272 H155     -4.6797   -1.8463   -2.2820   H         1 RES1   0.0000
   273 H156     -6.3711   -0.6608   -1.0178   H         1 RES1   0.0000
   274 H157     -6.9384    0.7719    1.0017   H         1 RES1   0.0000
   275 H158     -6.1705    2.0384    2.9626   H         1 RES1   0.0000
   276 H159     -3.7917    1.9982    3.6007   H         1 RES1   0.0000
   277 H160     -2.1599    0.7835    2.2400   H         1 RES1   0.0000
   278 O5       -1.2984    2.2654    0.7527   O.3       1 RES1   0.0000
   279 H161     -0.7061    2.7339    1.3600   H         1 RES1   0.0000
   280 H162     -2.0749    2.8354    0.6490   H         1 RES1   0.0000
@<TRIPOS>BOND
     1     1    20    1
     2     1    30    1
     3     1    89    1
     4     1    99    1
     5     1   158    1
     6     1   168    1
     7     1   227    1
     8     1   237    1
     9     1   278    1
    10     2     3    1
    11     2    31    1
    12     2    32    1
    13     2    33    1
    14     3     4    1
    15     3    34    1
    16     3    35    1
    17     4     5    1
    18     4    36    1
    19     4    37    1
    20     5     6    1
    21     5    38    1
    22     5    39    1
    23     6     7    1
    24     6    40    1
    25     6    41    1
    26     7     8    1
    27     7    42    1
    28     7    43    1
    29     8     9    1
    30     8    44    1
    31     8    45    1
    32     9    10    1
    33     9    46    1
    34     9    47    1
    35    10    11    1
    36    10    19    1
    37    11    12    1
    38    11    48    1
    39    11    49    1
    40    12    13    1
    41    12    50    1
    42    12    51    1
    43    13    14    1
    44    13    52    1
    45    13    53    1
    46    14    15    1
    47    14    54    1
    48    14    55    1
    49    15    16    1
    50    15    56    1
    51    15    57    1
    52    16    17    1
    53    16    58    1
    54    16    59    1
    55    17    18    1
    56    17    60    1
    57    17    61    1
    58    18    62    1
    59    18    63    1
    60    18    64    1
    61    19    20    2
    62    19    21    1
    63    21    22    1
    64    21    30    2
    65    22    23    2
    66    22    65    1
    67    23    24    1
    68    23    66    1
    69    24    25    1
    70    24    29    2
    71    25    26    2
    72    25    67    1
    73    26    27    1
    74    26    68    1
    75    27    28    2
    76    27    69    1
    77    28    29    1
    78    28    70    1
    79    29    30    1
    80    71    72    1
    81    71   100    1
    82    71   101    1
    83    71   102    1
    84    72    73    1
    85    72   103    1
    86    72   104    1
    87    73    74    1
    88    73   105    1
    89    73   106    1
    90    74    75    1
    91    74   107    1
    92    74   108    1
    93    75    76    1
    94    75   109    1
    95    75   110    1
    96    76    77    1
    97    76   111    1
    98    76   112    1
    99    77    78    1
   100    77   113    1
   101    77   114    1
   102    78    79    1
   103    78   115    1
   104    78   116    1
   105    79    80    1
   106    79    88    1
   107    80    81    1
   108    80   117    1
   109    80   118    1
   110    81    82    1
   111    81   119    1
   112    81   120    1
   113    82    83    1
   114    82   121    1
   115    82   122    1
   116    83    84    1
   117    83   123    1
   118    83   124    1
   119    84    85    1
   120    84   125    1
   121    84   126    1
   122    85    86    1
   123    85   127    1
   124    85   128    1
   125    86    87    1
   126    86   129    1
   127    86   130    1
   128    87   131    1
   129    87   132    1
   130    87   133    1
   131    88    89    2
   132    88    90    1
   133    90    91    1
   134    90    99    2
   135    91    92    2
   136    91   134    1
   137    92    93    1
   138    92   135    1
   139    93    94    1
   140    93    98    2
   141    94    95    2
   142    94   136    1
   143    95    96    1
   144    95   137    1
   145    96    97    2
   146    96   138    1
   147    97    98    1
   148    97   139    1
   149    98    99    1
   150   140   141    1
   151   140   169    1
   152   140   170    1
   153   140   171    1
   154   141   142    1
   155   141   172    1
   156   141   173    1
   157   142   143    1
   158   142   174    1
   159   142   175    1
   160   143   144    1
   161   143   176    1
   162   143   177    1
   163   144   145    1
   164   144   178    1
   165   144   179    1
   166   145   146    1
   167   145   180    1
   168   145   181    1
   169   146   147    1
   170   146   182    1
   171   146   183    1
   172   147   148    1
   173   147   184    1
   174   147   185    1
   175   148   149    1
   176   148   157    1
   177   149   150    1
   178   149   186    1
   179   149   187    1
   180   150   151    1
   181   150   188    1
   182   150   189    1
   183   151   152    1
   184   151   190    1
   185   151   191    1
   186   152   153    1
   187   152   192    1
   188   152   193    1
   189   153   154    1
   190   153   194    1
   191   153   195    1
   192   154   155    1
   193   154   196    1
   194   154   197    1
   195   155   156    1
   196   155   198    1
   197   155   199    1
   198   156   200    1
   199   156   201    1
   200   156   202    1
   201   157   158    2
   202   157   159    1
   203   159   160    1
   204   159   168    2
   205   160   161    2
   206   160   203    1
   207   161   162    1
   208   161   204    1
   209   162   163    1
   210   162   167    2
   211   163   164    2
   212   163   205    1
   213   164   165    1
   214   164   206    1
   215   165   166    2
   216   165   207    1
   217   166   167    1
   218   166   208    1
   219   167   168    1
   220   209   210    1
   221   209   238    1
   222   209   239    1
   223   209   240    1
   224   210   211    1
   225   210   241    1
   226   210   242    1
   227   211   212    1
   228   211   243    1
   229   211   244    1
   230   212   213    1
   231   212   245    1
   232   212   246    1
   233   213   214    1
   234   213   247    1
   235   213   248    1
   236   214   215    1
   237   214   249    1
   238   214   250    1
   239   215   216    1
   240   215   251    1
   241   215   252    1
   242   216   217    1
   243   216   253    1
   244   216   254    1
   245   217   218    1
   246   217   226    1
   247   218   219    1
   248   218   255    1
   249   218   256    1
   250   219   220    1
   251   219   257    1
   252   219   258    1
   253   220   221    1
   254   220   259    1
   255   220   260    1
   256   221   222    1
   257   221   261    1
   258   221   262    1
   259   222   223    1
   260   222   263    1
   261   222   264    1
   262   223   224    1
   263   223   265    1
   264   223   266    1
   265   224   225    1
   266   224   267    1
   267   224   268    1
   268   225   269    1
   269   225   270    1
   270   225   271    1
   271   226   227    2
   272   226   228    1
   273   228   229    1
   274   228   237    2
   275   229   230    2
   276   229   272    1
   277   230   231    1
   278   230   273    1
   279   231   232    1
   280   231   236    2
   281   232   233    2
   282   232   274    1
   283   233   234    1
   284   233   275    1
   285   234   235    2
   286   234   276    1
   287   235   236    1
   288   235   277    1
   289   236   237    1
   290   278   279    1
   291   278   280    1
@<TRIPOS>SUBSTRUCTURE
     1 RES1      280 GROUP             0 ****  ****    0  
