@<TRIPOS>MOLECULE
am_c3_9H2O_c0_0_nunpairedes_0_charge_3 Charge: 3 Unpaired_Electrons: 6 XTB_Unpaired_Electrons: 0 XTB_Charge: 3
   190   195     1     0     0
SMALL
NoCharges
****
Generated from Architector

@<TRIPOS>ATOM
     1 Eu1      -0.4088   -0.0581    0.2746   Eu        1 RES1   0.0000
     2 C1       -2.5515    8.3539    0.3885   C.3       1 RES1   0.0000
     3 C2       -2.0708    7.1620   -0.4300   C.3       1 RES1   0.0000
     4 C3       -1.1335    6.2695    0.3832   C.3       1 RES1   0.0000
     5 C4       -0.8003    4.9552   -0.3236   C.3       1 RES1   0.0000
     6 P1       -1.8636    3.4921   -0.0053   P.3       1 RES1   0.0000
     7 S1       -1.3068    2.0722   -1.3051   S.3       1 RES1   0.0000
     8 C5       -3.6728    3.7844   -0.1655   C.3       1 RES1   0.0000
     9 C6       -4.3063    4.7279    0.8573   C.3       1 RES1   0.0000
    10 C7       -5.7616    5.0519    0.5114   C.3       1 RES1   0.0000
    11 C8       -6.3655    5.9580    1.5769   C.3       1 RES1   0.0000
    12 C9       -1.3979    3.0210    1.7616   C.3       1 RES1   0.0000
    13 O1       -1.8238    1.7085    2.0939   O.3       1 RES1   0.0000
    14 C10      -3.0661    1.6724    2.8147   C.3       1 RES1   0.0000
    15 P2       -3.7819   -0.0473    2.5879   P.3       1 RES1   0.0000
    16 S2       -3.2008   -0.6040    0.7589   S.3       1 RES1   0.0000
    17 C11      -5.6104    0.0049    2.4558   C.3       1 RES1   0.0000
    18 C12      -6.4627    0.1829    3.7103   C.3       1 RES1   0.0000
    19 C13      -6.2754    1.5000    4.4685   C.3       1 RES1   0.0000
    20 C14      -6.7175    2.7317    3.6826   C.3       1 RES1   0.0000
    21 C15      -3.3460   -1.1504    4.0084   C.3       1 RES1   0.0000
    22 C16      -2.9603   -0.4618    5.3167   C.3       1 RES1   0.0000
    23 C17      -1.4889   -0.0449    5.3437   C.3       1 RES1   0.0000
    24 C18      -1.1485    0.7501    6.5989   C.3       1 RES1   0.0000
    25 H1       -3.2353    8.9574   -0.1975   H         1 RES1   0.0000
    26 H2       -3.0660    8.0401    1.2936   H         1 RES1   0.0000
    27 H3       -1.7162    8.9839    0.6807   H         1 RES1   0.0000
    28 H4       -2.9288    6.5842   -0.7847   H         1 RES1   0.0000
    29 H5       -1.5393    7.5214   -1.3110   H         1 RES1   0.0000
    30 H6       -0.2012    6.8099    0.5571   H         1 RES1   0.0000
    31 H7       -1.5648    6.0765    1.3655   H         1 RES1   0.0000
    32 H8       -0.8057    5.0904   -1.4109   H         1 RES1   0.0000
    33 H9        0.2010    4.6046   -0.0361   H         1 RES1   0.0000
    34 H10      -3.8068    4.1730   -1.1844   H         1 RES1   0.0000
    35 H11      -4.1399    2.7920   -0.1469   H         1 RES1   0.0000
    36 H12      -4.2768    4.2922    1.8596   H         1 RES1   0.0000
    37 H13      -3.7578    5.6671    0.8976   H         1 RES1   0.0000
    38 H14      -5.8048    5.5532   -0.4564   H         1 RES1   0.0000
    39 H15      -6.3463    4.1344    0.4297   H         1 RES1   0.0000
    40 H16      -5.8428    6.9082    1.6208   H         1 RES1   0.0000
    41 H17      -7.4078    6.1594    1.3565   H         1 RES1   0.0000
    42 H18      -6.3184    5.4894    2.5569   H         1 RES1   0.0000
    43 H19      -0.2945    3.0062    1.7700   H         1 RES1   0.0000
    44 H20      -1.7723    3.7595    2.4762   H         1 RES1   0.0000
    45 H21      -2.8961    1.9251    3.8638   H         1 RES1   0.0000
    46 H22      -3.8035    2.3579    2.3811   H         1 RES1   0.0000
    47 H23      -5.8517    0.7319    1.6753   H         1 RES1   0.0000
    48 H24      -5.8172   -0.9845    2.0282   H         1 RES1   0.0000
    49 H25      -7.5068    0.1080    3.3935   H         1 RES1   0.0000
    50 H26      -6.2650   -0.6513    4.3890   H         1 RES1   0.0000
    51 H27      -6.8727    1.4406    5.3831   H         1 RES1   0.0000
    52 H28      -5.2245    1.5975    4.7682   H         1 RES1   0.0000
    53 H29      -7.7980    2.7305    3.5568   H         1 RES1   0.0000
    54 H30      -6.4412    3.6347    4.2194   H         1 RES1   0.0000
    55 H31      -6.2620    2.7622    2.6936   H         1 RES1   0.0000
    56 H32      -4.2358   -1.7750    4.1392   H         1 RES1   0.0000
    57 H33      -2.5204   -1.7889    3.6861   H         1 RES1   0.0000
    58 H34      -3.6074    0.3992    5.5005   H         1 RES1   0.0000
    59 H35      -3.1338   -1.1736    6.1283   H         1 RES1   0.0000
    60 H36      -0.8656   -0.9397    5.3022   H         1 RES1   0.0000
    61 H37      -1.2473    0.5346    4.4436   H         1 RES1   0.0000
    62 H38      -1.2866    0.1389    7.4870   H         1 RES1   0.0000
    63 H39      -0.1099    1.0684    6.5659   H         1 RES1   0.0000
    64 H40      -1.7808    1.6313    6.6923   H         1 RES1   0.0000
    65 C19       2.7709    3.8014   -6.1261   C.3       1 RES1   0.0000
    66 C20       2.4002    3.1853   -4.7816   C.3       1 RES1   0.0000
    67 C21       2.6935    4.1433   -3.6299   C.3       1 RES1   0.0000
    68 C22       2.1240    3.7089   -2.2813   C.3       1 RES1   0.0000
    69 P3        2.9370    2.3369   -1.3694   P.3       1 RES1   0.0000
    70 S3        1.9360    1.9890    0.3160   S.3       1 RES1   0.0000
    71 C23       4.7147    2.7443   -1.0680   C.3       1 RES1   0.0000
    72 C24       5.6713    2.4768   -2.2369   C.3       1 RES1   0.0000
    73 C25       7.1382    2.4460   -1.7976   C.3       1 RES1   0.0000
    74 C26       8.0308    1.9529   -2.9317   C.3       1 RES1   0.0000
    75 C27       2.7315    0.8248   -2.4510   C.3       1 RES1   0.0000
    76 O2        2.7812   -0.3428   -1.6674   O.3       1 RES1   0.0000
    77 C28       4.0743   -0.8969   -1.5463   C.3       1 RES1   0.0000
    78 P4        3.9567   -2.2012   -0.2124   P.3       1 RES1   0.0000
    79 S4        2.4370   -1.7428    0.9644   S.3       1 RES1   0.0000
    80 C29       5.5841   -2.2244    0.6421   C.3       1 RES1   0.0000
    81 C30       6.7236   -2.9377   -0.0867   C.3       1 RES1   0.0000
    82 C31       7.1743   -2.2800   -1.3935   C.3       1 RES1   0.0000
    83 C32       8.1950   -3.1550   -2.1204   C.3       1 RES1   0.0000
    84 C33       3.7794   -3.8349   -1.0685   C.3       1 RES1   0.0000
    85 C34       3.6531   -4.9696   -0.0478   C.3       1 RES1   0.0000
    86 C35       3.2247   -6.2889   -0.7024   C.3       1 RES1   0.0000
    87 C36       1.7403   -6.4003   -1.0395   C.3       1 RES1   0.0000
    88 H41       2.5603    3.1050   -6.9320   H         1 RES1   0.0000
    89 H42       2.2042    4.7114   -6.3041   H         1 RES1   0.0000
    90 H43       3.8282    4.0441   -6.1622   H         1 RES1   0.0000
    91 H44       1.3375    2.9303   -4.7792   H         1 RES1   0.0000
    92 H45       2.9703    2.2627   -4.6527   H         1 RES1   0.0000
    93 H46       3.7673    4.2986   -3.5523   H         1 RES1   0.0000
    94 H47       2.2384    5.1064   -3.8655   H         1 RES1   0.0000
    95 H48       2.1692    4.5412   -1.5663   H         1 RES1   0.0000
    96 H49       1.0697    3.4163   -2.3848   H         1 RES1   0.0000
    97 H50       4.7330    3.8020   -0.7762   H         1 RES1   0.0000
    98 H51       5.0176    2.1690   -0.1814   H         1 RES1   0.0000
    99 H52       5.4430    1.5108   -2.6938   H         1 RES1   0.0000
   100 H53       5.5576    3.2385   -3.0062   H         1 RES1   0.0000
   101 H54       7.4567    3.4425   -1.4891   H         1 RES1   0.0000
   102 H55       7.2490    1.7858   -0.9337   H         1 RES1   0.0000
   103 H56       7.9741    2.6185   -3.7874   H         1 RES1   0.0000
   104 H57       9.0644    1.9151   -2.6061   H         1 RES1   0.0000
   105 H58       7.7359    0.9556   -3.2497   H         1 RES1   0.0000
   106 H59       1.7121    0.9111   -2.8557   H         1 RES1   0.0000
   107 H60       3.4390    0.7664   -3.2842   H         1 RES1   0.0000
   108 H61       4.4050   -1.3096   -2.5127   H         1 RES1   0.0000
   109 H62       4.8019   -0.1531   -1.1985   H         1 RES1   0.0000
   110 H63       5.8351   -1.1822    0.8691   H         1 RES1   0.0000
   111 H64       5.3751   -2.7168    1.6007   H         1 RES1   0.0000
   112 H65       7.5680   -2.9782    0.6010   H         1 RES1   0.0000
   113 H66       6.4369   -3.9686   -0.2961   H         1 RES1   0.0000
   114 H67       6.3064   -2.1215   -2.0437   H         1 RES1   0.0000
   115 H68       7.6187   -1.3034   -1.1822   H         1 RES1   0.0000
   116 H69       7.7576   -4.1180   -2.3857   H         1 RES1   0.0000
   117 H70       8.5304   -2.6701   -3.0362   H         1 RES1   0.0000
   118 H71       9.0624   -3.3360   -1.4913   H         1 RES1   0.0000
   119 H72       2.8909   -3.8012   -1.7072   H         1 RES1   0.0000
   120 H73       4.6402   -3.9874   -1.7221   H         1 RES1   0.0000
   121 H74       4.6200   -5.1298    0.4314   H         1 RES1   0.0000
   122 H75       2.9495   -4.6840    0.7449   H         1 RES1   0.0000
   123 H76       3.7988   -6.4272   -1.6198   H         1 RES1   0.0000
   124 H77       3.4845   -7.1077   -0.0302   H         1 RES1   0.0000
   125 H78       1.4350   -5.6623   -1.7798   H         1 RES1   0.0000
   126 H79       1.5452   -7.3863   -1.4449   H         1 RES1   0.0000
   127 H80       1.1208   -6.2837   -0.1539   H         1 RES1   0.0000
   128 C37       2.6100   -4.5523   -5.4609   C.3       1 RES1   0.0000
   129 C38       1.5512   -4.0587   -4.4814   C.3       1 RES1   0.0000
   130 C39       0.1400   -4.1589   -5.0478   C.3       1 RES1   0.0000
   131 C40      -0.9580   -3.7512   -4.0645   C.3       1 RES1   0.0000
   132 P5       -0.8987   -2.0407   -3.3477   P.3       1 RES1   0.0000
   133 S5       -2.4540   -1.4516   -2.3088   S.3       1 RES1   0.0000
   134 C41      -0.2176   -0.8068   -4.5727   C.3       1 RES1   0.0000
   135 C42      -1.1953   -0.2765   -5.6236   C.3       1 RES1   0.0000
   136 C43      -1.4859   -1.2253   -6.7876   C.3       1 RES1   0.0000
   137 C44      -0.3121   -1.3900   -7.7516   C.3       1 RES1   0.0000
   138 C45       0.4453   -2.0473   -2.0077   C.3       1 RES1   0.0000
   139 O3       -0.1484   -2.2673   -0.7243   O.3       1 RES1   0.0000
   140 C46       0.0595   -3.5642   -0.1779   C.3       1 RES1   0.0000
   141 P6       -0.6039   -3.5110    1.5904   P.3       1 RES1   0.0000
   142 S6       -0.4146   -1.7065    2.4425   S.3       1 RES1   0.0000
   143 C47       0.3288   -4.5255    2.8061   C.3       1 RES1   0.0000
   144 C48       0.7755   -5.9669    2.6120   C.3       1 RES1   0.0000
   145 C49      -0.3558   -6.9869    2.5261   C.3       1 RES1   0.0000
   146 C50       0.1600   -8.4174    2.6875   C.3       1 RES1   0.0000
   147 C51      -2.3359   -3.9709    1.1693   C.3       1 RES1   0.0000
   148 C52      -3.3296   -4.3788    2.2496   C.3       1 RES1   0.0000
   149 C53      -4.7173   -4.5531    1.6104   C.3       1 RES1   0.0000
   150 C54      -4.7490   -5.6230    0.5223   C.3       1 RES1   0.0000
   151 H81       3.6052   -4.4386   -5.0345   H         1 RES1   0.0000
   152 H82       2.4522   -5.6011   -5.7036   H         1 RES1   0.0000
   153 H83       2.5787   -3.9815   -6.3869   H         1 RES1   0.0000
   154 H84       1.6115   -4.6617   -3.5709   H         1 RES1   0.0000
   155 H85       1.7571   -3.0128   -4.2271   H         1 RES1   0.0000
   156 H86       0.0723   -3.5625   -5.9555   H         1 RES1   0.0000
   157 H87      -0.0445   -5.1966   -5.3334   H         1 RES1   0.0000
   158 H88      -1.9400   -3.8216   -4.5444   H         1 RES1   0.0000
   159 H89      -0.9820   -4.4349   -3.2086   H         1 RES1   0.0000
   160 H90       0.0658    0.0397   -3.9375   H         1 RES1   0.0000
   161 H91       0.6758   -1.1970   -5.0597   H         1 RES1   0.0000
   162 H92      -2.1311   -0.0140   -5.1231   H         1 RES1   0.0000
   163 H93      -0.7698    0.6430   -6.0404   H         1 RES1   0.0000
   164 H94      -1.7951   -2.1971   -6.3960   H         1 RES1   0.0000
   165 H95      -2.3316   -0.8146   -7.3444   H         1 RES1   0.0000
   166 H96       0.6057   -1.6861   -7.2447   H         1 RES1   0.0000
   167 H97      -0.5427   -2.1498   -8.4938   H         1 RES1   0.0000
   168 H98      -0.1195   -0.4566   -8.2742   H         1 RES1   0.0000
   169 H99       1.2618   -2.7490   -2.1725   H         1 RES1   0.0000
   170 H100      0.8172   -1.0080   -1.9914   H         1 RES1   0.0000
   171 H101     -0.5184   -4.3056   -0.7475   H         1 RES1   0.0000
   172 H102      1.1231   -3.8050   -0.1656   H         1 RES1   0.0000
   173 H103      1.1944   -3.8863    3.0253   H         1 RES1   0.0000
   174 H104     -0.3373   -4.4526    3.6765   H         1 RES1   0.0000
   175 H105      1.4230   -6.0558    1.7382   H         1 RES1   0.0000
   176 H106      1.3907   -6.1997    3.4837   H         1 RES1   0.0000
   177 H107     -1.0791   -6.7823    3.3199   H         1 RES1   0.0000
   178 H108     -0.8702   -6.8839    1.5657   H         1 RES1   0.0000
   179 H109      0.5826   -8.5616    3.6811   H         1 RES1   0.0000
   180 H110     -0.6636   -9.1172    2.5607   H         1 RES1   0.0000
   181 H111      0.9258   -8.6527    1.9503   H         1 RES1   0.0000
   182 H112     -2.7288   -3.0917    0.6319   H         1 RES1   0.0000
   183 H113     -2.2564   -4.7960    0.4622   H         1 RES1   0.0000
   184 H114     -3.0252   -5.3192    2.7119   H         1 RES1   0.0000
   185 H115     -3.3936   -3.6252    3.0321   H         1 RES1   0.0000
   186 H116     -5.4275   -4.8308    2.3925   H         1 RES1   0.0000
   187 H117     -5.0333   -3.5976    1.1803   H         1 RES1   0.0000
   188 H118     -4.3963   -6.5789    0.9011   H         1 RES1   0.0000
   189 H119     -5.7672   -5.7658    0.1745   H         1 RES1   0.0000
   190 H120     -4.1514   -5.3450   -0.3451   H         1 RES1   0.0000
@<TRIPOS>BOND
     1     1     7    1
     2     1    13    1
     3     1    16    1
     4     1    70    1
     5     1    76    1
     6     1    79    1
     7     1   133    1
     8     1   139    1
     9     1   142    1
    10     2     3    1
    11     2    25    1
    12     2    26    1
    13     2    27    1
    14     3     4    1
    15     3    28    1
    16     3    29    1
    17     4     5    1
    18     4    30    1
    19     4    31    1
    20     5     6    1
    21     5    32    1
    22     5    33    1
    23     6     7    2
    24     6     8    1
    25     6    12    1
    26     8     9    1
    27     8    34    1
    28     8    35    1
    29     9    10    1
    30     9    36    1
    31     9    37    1
    32    10    11    1
    33    10    38    1
    34    10    39    1
    35    11    40    1
    36    11    41    1
    37    11    42    1
    38    12    13    1
    39    12    43    1
    40    12    44    1
    41    13    14    1
    42    14    15    1
    43    14    45    1
    44    14    46    1
    45    15    16    2
    46    15    17    1
    47    15    21    1
    48    17    18    1
    49    17    47    1
    50    17    48    1
    51    18    19    1
    52    18    49    1
    53    18    50    1
    54    19    20    1
    55    19    51    1
    56    19    52    1
    57    20    53    1
    58    20    54    1
    59    20    55    1
    60    21    22    1
    61    21    56    1
    62    21    57    1
    63    22    23    1
    64    22    58    1
    65    22    59    1
    66    23    24    1
    67    23    60    1
    68    23    61    1
    69    24    62    1
    70    24    63    1
    71    24    64    1
    72    65    66    1
    73    65    88    1
    74    65    89    1
    75    65    90    1
    76    66    67    1
    77    66    91    1
    78    66    92    1
    79    67    68    1
    80    67    93    1
    81    67    94    1
    82    68    69    1
    83    68    95    1
    84    68    96    1
    85    69    70    2
    86    69    71    1
    87    69    75    1
    88    71    72    1
    89    71    97    1
    90    71    98    1
    91    72    73    1
    92    72    99    1
    93    72   100    1
    94    73    74    1
    95    73   101    1
    96    73   102    1
    97    74   103    1
    98    74   104    1
    99    74   105    1
   100    75    76    1
   101    75   106    1
   102    75   107    1
   103    76    77    1
   104    77    78    1
   105    77   108    1
   106    77   109    1
   107    78    79    2
   108    78    80    1
   109    78    84    1
   110    80    81    1
   111    80   110    1
   112    80   111    1
   113    81    82    1
   114    81   112    1
   115    81   113    1
   116    82    83    1
   117    82   114    1
   118    82   115    1
   119    83   116    1
   120    83   117    1
   121    83   118    1
   122    84    85    1
   123    84   119    1
   124    84   120    1
   125    85    86    1
   126    85   121    1
   127    85   122    1
   128    86    87    1
   129    86   123    1
   130    86   124    1
   131    87   125    1
   132    87   126    1
   133    87   127    1
   134   128   129    1
   135   128   151    1
   136   128   152    1
   137   128   153    1
   138   129   130    1
   139   129   154    1
   140   129   155    1
   141   130   131    1
   142   130   156    1
   143   130   157    1
   144   131   132    1
   145   131   158    1
   146   131   159    1
   147   132   133    2
   148   132   134    1
   149   132   138    1
   150   134   135    1
   151   134   160    1
   152   134   161    1
   153   135   136    1
   154   135   162    1
   155   135   163    1
   156   136   137    1
   157   136   164    1
   158   136   165    1
   159   137   166    1
   160   137   167    1
   161   137   168    1
   162   138   139    1
   163   138   169    1
   164   138   170    1
   165   139   140    1
   166   140   141    1
   167   140   171    1
   168   140   172    1
   169   141   142    2
   170   141   143    1
   171   141   147    1
   172   143   144    1
   173   143   173    1
   174   143   174    1
   175   144   145    1
   176   144   175    1
   177   144   176    1
   178   145   146    1
   179   145   177    1
   180   145   178    1
   181   146   179    1
   182   146   180    1
   183   146   181    1
   184   147   148    1
   185   147   182    1
   186   147   183    1
   187   148   149    1
   188   148   184    1
   189   148   185    1
   190   149   150    1
   191   149   186    1
   192   149   187    1
   193   150   188    1
   194   150   189    1
   195   150   190    1
@<TRIPOS>SUBSTRUCTURE
     1 RES1      190 GROUP             0 ****  ****    0  
