@<TRIPOS>MOLECULE
tricapped_trigonal_prismatic_0_nunpairedes_0_charge_3 Charge: 3 Unpaired_Electrons: 6 XTB_Unpaired_Electrons: 0 XTB_Charge: 3
   166   174     1     0     0
SMALL
NoCharges
****
Generated from Architector

@<TRIPOS>ATOM
     1 Eu1       0.0000    0.0000    0.0000   Eu        1 RES1   0.0000
     2 C1        2.6217    6.9277   -4.4668   C.3       1 RES1   0.0000
     3 C2        3.3664    6.6257   -3.1750   C.3       1 RES1   0.0000
     4 C3        2.4359    6.3466   -1.9930   C.3       1 RES1   0.0000
     5 C4        1.6734    7.5890   -1.5190   C.3       1 RES1   0.0000
     6 C5        0.7245    7.2925   -0.3516   C.3       1 RES1   0.0000
     7 C6       -0.7344    7.0524   -0.7605   C.3       1 RES1   0.0000
     8 C7       -0.9301    5.8603   -1.6984   C.3       1 RES1   0.0000
     9 C8       -2.4088    5.5535   -1.9217   C.3       1 RES1   0.0000
    10 C9       -2.6851    4.2189   -2.6232   C.3       1 RES1   0.0000
    11 C10      -2.3143    4.1448   -4.1069   C.3       1 RES1   0.0000
    12 C11      -0.8626    3.8120   -4.4793   C.3       1 RES1   0.0000
    13 C12      -0.3522    2.4583   -3.9791   C.3       1 RES1   0.0000
    14 N1        0.2633    2.5637   -2.6749   N.am      1 RES1   0.0000
    15 C13      -0.0732    1.7387   -1.6279   C.2       1 RES1   0.0000
    16 O1       -0.9104    0.8434   -1.6260   O.2       1 RES1   0.0000
    17 C14       0.5727    2.0495   -0.3444   C.ar      1 RES1   0.0000
    18 C15      -0.2380    2.6425    0.5832   C.ar      1 RES1   0.0000
    19 C16      -0.1017    2.0174    1.8057   C.ar      1 RES1   0.0000
    20 O2       -0.9850    0.8971    1.7134   O.3       1 RES1   0.0000
    21 C17      -2.0704    1.1121    2.6151   C.3       1 RES1   0.0000
    22 C18       1.1313    1.5548    2.2581   C.ar      1 RES1   0.0000
    23 C19       1.9867    1.1695    1.2654   C.ar      1 RES1   0.0000
    24 N2        1.6477    1.2965   -0.0273   N.ar      1 RES1   0.0000
    25 H1        3.3310    7.0272   -5.2947   H         1 RES1   0.0000
    26 H2        2.0594    7.8633   -4.3991   H         1 RES1   0.0000
    27 H3        1.9235    6.1221   -4.7152   H         1 RES1   0.0000
    28 H4        4.0408    7.4560   -2.9360   H         1 RES1   0.0000
    29 H5        3.9953    5.7422   -3.3374   H         1 RES1   0.0000
    30 H6        3.0430    5.9696   -1.1602   H         1 RES1   0.0000
    31 H7        1.7464    5.5411   -2.2617   H         1 RES1   0.0000
    32 H8        1.1203    8.0558   -2.3405   H         1 RES1   0.0000
    33 H9        2.4129    8.3268   -1.1822   H         1 RES1   0.0000
    34 H10       0.7308    8.1612    0.3195   H         1 RES1   0.0000
    35 H11       1.0911    6.4454    0.2406   H         1 RES1   0.0000
    36 H12      -1.1341    7.9578   -1.2337   H         1 RES1   0.0000
    37 H13      -1.3176    6.8952    0.1554   H         1 RES1   0.0000
    38 H14      -0.4307    4.9847   -1.2753   H         1 RES1   0.0000
    39 H15      -0.4644    6.0885   -2.6600   H         1 RES1   0.0000
    40 H16      -2.8751    6.3722   -2.4832   H         1 RES1   0.0000
    41 H17      -2.9132    5.5209   -0.9472   H         1 RES1   0.0000
    42 H18      -3.7709    4.0620   -2.5620   H         1 RES1   0.0000
    43 H19      -2.2445    3.3943   -2.0597   H         1 RES1   0.0000
    44 H20      -2.5938    5.0870   -4.5945   H         1 RES1   0.0000
    45 H21      -2.9490    3.3740   -4.5645   H         1 RES1   0.0000
    46 H22      -0.1860    4.6153   -4.1763   H         1 RES1   0.0000
    47 H23      -0.8253    3.7888   -5.5767   H         1 RES1   0.0000
    48 H24       0.4380    2.1029   -4.6493   H         1 RES1   0.0000
    49 H25      -1.1489    1.7075   -3.9772   H         1 RES1   0.0000
    50 H26       1.0624    3.1749   -2.5608   H         1 RES1   0.0000
    51 H27      -1.2155    3.0016    0.2682   H         1 RES1   0.0000
    52 H28      -1.7117    1.2019    3.6463   H         1 RES1   0.0000
    53 H29      -2.7330    0.2438    2.5576   H         1 RES1   0.0000
    54 H30      -2.6456    2.0004    2.3321   H         1 RES1   0.0000
    55 H31       1.2770    1.2126    3.2748   H         1 RES1   0.0000
    56 H32       2.9089    0.6371    1.4692   H         1 RES1   0.0000
    57 C20      -2.1742   -8.3616   -0.4193   C.3       1 RES1   0.0000
    58 C21      -2.3453   -7.5465   -1.6925   C.3       1 RES1   0.0000
    59 C22      -3.0658   -6.2160   -1.4651   C.3       1 RES1   0.0000
    60 C23      -4.5484   -6.3851   -1.1145   C.3       1 RES1   0.0000
    61 C24      -5.2544   -5.0474   -0.8630   C.3       1 RES1   0.0000
    62 C25      -5.3679   -4.6541    0.6154   C.3       1 RES1   0.0000
    63 C26      -4.0212   -4.4918    1.3219   C.3       1 RES1   0.0000
    64 C27      -4.1857   -3.9210    2.7281   C.3       1 RES1   0.0000
    65 C28      -2.8783   -3.4766    3.3938   C.3       1 RES1   0.0000
    66 C29      -1.9227   -4.5940    3.8210   C.3       1 RES1   0.0000
    67 C30      -0.9604   -5.1701    2.7727   C.3       1 RES1   0.0000
    68 C31       0.0164   -4.1645    2.1580   C.3       1 RES1   0.0000
    69 N3       -0.5243   -3.5478    0.9672   N.am      1 RES1   0.0000
    70 C32      -0.5403   -2.1859    0.7801   C.2       1 RES1   0.0000
    71 O3       -0.1368   -1.3243    1.5530   O.2       1 RES1   0.0000
    72 C33      -1.2199   -1.7224   -0.4383   C.ar      1 RES1   0.0000
    73 C34      -2.4473   -1.1550   -0.2364   C.ar      1 RES1   0.0000
    74 C35      -2.5441    0.0333   -0.9310   C.ar      1 RES1   0.0000
    75 O4       -1.9325    0.9863   -0.0584   O.3       1 RES1   0.0000
    76 C36      -2.9481    1.8705    0.4150   C.3       1 RES1   0.0000
    77 C37      -1.9841    0.1895   -2.1963   C.ar      1 RES1   0.0000
    78 C38      -0.8694   -0.5687   -2.4159   C.ar      1 RES1   0.0000
    79 N4       -0.4188   -1.4221   -1.4828   N.ar      1 RES1   0.0000
    80 H33      -1.5744   -9.2544   -0.6228   H         1 RES1   0.0000
    81 H34      -3.1369   -8.6939   -0.0206   H         1 RES1   0.0000
    82 H35      -1.6624   -7.7798    0.3537   H         1 RES1   0.0000
    83 H36      -2.8799   -8.1415   -2.4416   H         1 RES1   0.0000
    84 H37      -1.3509   -7.3363   -2.1041   H         1 RES1   0.0000
    85 H38      -2.9892   -5.6229   -2.3852   H         1 RES1   0.0000
    86 H39      -2.5405   -5.6515   -0.6894   H         1 RES1   0.0000
    87 H40      -4.6820   -7.0458   -0.2518   H         1 RES1   0.0000
    88 H41      -5.0386   -6.8783   -1.9636   H         1 RES1   0.0000
    89 H42      -6.2772   -5.1251   -1.2539   H         1 RES1   0.0000
    90 H43      -4.7709   -4.2416   -1.4282   H         1 RES1   0.0000
    91 H44      -5.9701   -5.4018    1.1464   H         1 RES1   0.0000
    92 H45      -5.9240   -3.7098    0.6692   H         1 RES1   0.0000
    93 H46      -3.3814   -3.8334    0.7283   H         1 RES1   0.0000
    94 H47      -3.5382   -5.4694    1.3884   H         1 RES1   0.0000
    95 H48      -4.6979   -4.6517    3.3657   H         1 RES1   0.0000
    96 H49      -4.8416   -3.0421    2.6775   H         1 RES1   0.0000
    97 H50      -3.1690   -2.9438    4.3098   H         1 RES1   0.0000
    98 H51      -2.3717   -2.7314    2.7777   H         1 RES1   0.0000
    99 H52      -2.5040   -5.4180    4.2532   H         1 RES1   0.0000
   100 H53      -1.3075   -4.2020    4.6421   H         1 RES1   0.0000
   101 H54      -1.5063   -5.7047    1.9911   H         1 RES1   0.0000
   102 H55      -0.3615   -5.9305    3.2915   H         1 RES1   0.0000
   103 H56       0.9182   -4.6939    1.8315   H         1 RES1   0.0000
   104 H57       0.3216   -3.4076    2.8877   H         1 RES1   0.0000
   105 H58      -0.7795   -4.1382    0.1853   H         1 RES1   0.0000
   106 H59      -2.9080   -1.2437    0.7452   H         1 RES1   0.0000
   107 H60      -3.4256    2.4004   -0.4164   H         1 RES1   0.0000
   108 H61      -2.4735    2.6110    1.0653   H         1 RES1   0.0000
   109 H62      -3.6969    1.3289    1.0032   H         1 RES1   0.0000
   110 H63      -2.1918    1.0554   -2.8121   H         1 RES1   0.0000
   111 H64      -0.2354   -0.4291   -3.2843   H         1 RES1   0.0000
   112 C39      -2.3319   -6.7529    0.5536   C.3       1 RES1   0.0000
   113 C40      -1.2849   -6.1071   -0.3360   C.3       1 RES1   0.0000
   114 C41       0.1649   -6.3902    0.0689   C.3       1 RES1   0.0000
   115 C42       0.5893   -5.8048    1.4208   C.3       1 RES1   0.0000
   116 C43       0.3915   -6.7735    2.5923   C.3       1 RES1   0.0000
   117 C44       0.9840   -6.2695    3.9137   C.3       1 RES1   0.0000
   118 C45       0.3778   -4.9455    4.3823   C.3       1 RES1   0.0000
   119 C46       0.8772   -4.5586    5.7770   C.3       1 RES1   0.0000
   120 C47       0.3077   -3.2260    6.2819   C.3       1 RES1   0.0000
   121 C48       0.5434   -2.0210    5.3657   C.3       1 RES1   0.0000
   122 C49       2.0246   -1.6800    5.1752   C.3       1 RES1   0.0000
   123 C50       2.2352   -0.6989    4.0263   C.3       1 RES1   0.0000
   124 N5        2.0649   -1.3475    2.7426   N.am      1 RES1   0.0000
   125 C51       1.5914   -0.6671    1.6477   C.2       1 RES1   0.0000
   126 O5        1.1516    0.4745    1.6172   O.2       1 RES1   0.0000
   127 C52       1.6559   -1.3658    0.3621   C.ar      1 RES1   0.0000
   128 C53       2.5213   -0.8464   -0.5602   C.ar      1 RES1   0.0000
   129 C54       1.9092   -0.7466   -1.7946   C.ar      1 RES1   0.0000
   130 O6        1.2450    0.5159   -1.7238   O.3       1 RES1   0.0000
   131 C55       1.3950    1.1957   -2.9695   C.3       1 RES1   0.0000
   132 C56       1.0169   -1.7145   -2.2495   C.ar      1 RES1   0.0000
   133 C57       0.3043   -2.3226   -1.2573   C.ar      1 RES1   0.0000
   134 N6        0.5353   -2.0378    0.0334   N.ar      1 RES1   0.0000
   135 H65      -3.3221   -6.6585    0.0956   H         1 RES1   0.0000
   136 H66      -2.3798   -6.2617    1.5293   H         1 RES1   0.0000
   137 H67      -2.1273   -7.8177    0.7007   H         1 RES1   0.0000
   138 H68      -1.4583   -5.0255   -0.3665   H         1 RES1   0.0000
   139 H69      -1.4285   -6.4745   -1.3596   H         1 RES1   0.0000
   140 H70       0.8024   -5.9376   -0.7021   H         1 RES1   0.0000
   141 H71       0.3626   -7.4680    0.0340   H         1 RES1   0.0000
   142 H72       0.0591   -4.8627    1.5970   H         1 RES1   0.0000
   143 H73       1.6575   -5.5593    1.3625   H         1 RES1   0.0000
   144 H74       0.8681   -7.7319    2.3520   H         1 RES1   0.0000
   145 H75      -0.6712   -6.9830    2.7425   H         1 RES1   0.0000
   146 H76       2.0699   -6.1570    3.8071   H         1 RES1   0.0000
   147 H77       0.8196   -7.0378    4.6792   H         1 RES1   0.0000
   148 H78      -0.7161   -5.0179    4.3926   H         1 RES1   0.0000
   149 H79       0.6502   -4.1648    3.6661   H         1 RES1   0.0000
   150 H80       1.9724   -4.5247    5.7829   H         1 RES1   0.0000
   151 H81       0.5942   -5.3429    6.4902   H         1 RES1   0.0000
   152 H82       0.7322   -3.0150    7.2711   H         1 RES1   0.0000
   153 H83      -0.7739   -3.3401    6.4266   H         1 RES1   0.0000
   154 H84       0.0404   -1.1490    5.8031   H         1 RES1   0.0000
   155 H85       0.0539   -2.1898    4.4006   H         1 RES1   0.0000
   156 H86       2.6177   -2.5800    4.9839   H         1 RES1   0.0000
   157 H87       2.4052   -1.2367    6.1031   H         1 RES1   0.0000
   158 H88       3.2643   -0.3236    4.0479   H         1 RES1   0.0000
   159 H89       1.5649    0.1633    4.1101   H         1 RES1   0.0000
   160 H90       2.4443   -2.2756    2.6029   H         1 RES1   0.0000
   161 H91       3.2206   -0.0756   -0.2418   H         1 RES1   0.0000
   162 H92       2.4458    1.2372   -3.2770   H         1 RES1   0.0000
   163 H93       1.0381    2.2213   -2.8372   H         1 RES1   0.0000
   164 H94       0.7870    0.7229   -3.7477   H         1 RES1   0.0000
   165 H95       0.6713   -1.7488   -3.2743   H         1 RES1   0.0000
   166 H96      -0.5467   -2.9610   -1.4636   H         1 RES1   0.0000
@<TRIPOS>BOND
     1     1    16    1
     2     1    20    1
     3     1    24    1
     4     1    71    1
     5     1    75    1
     6     1    79    1
     7     1   126    1
     8     1   130    1
     9     1   134    1
    10     2     3    1
    11     2    25    1
    12     2    26    1
    13     2    27    1
    14     3     4    1
    15     3    28    1
    16     3    29    1
    17     4     5    1
    18     4    30    1
    19     4    31    1
    20     5     6    1
    21     5    32    1
    22     5    33    1
    23     6     7    1
    24     6    34    1
    25     6    35    1
    26     7     8    1
    27     7    36    1
    28     7    37    1
    29     8     9    1
    30     8    38    1
    31     8    39    1
    32     9    10    1
    33     9    40    1
    34     9    41    1
    35    10    11    1
    36    10    42    1
    37    10    43    1
    38    11    12    1
    39    11    44    1
    40    11    45    1
    41    12    13    1
    42    12    46    1
    43    12    47    1
    44    13    14    1
    45    13    48    1
    46    13    49    1
    47    14    15    1
    48    14    50    1
    49    15    16    2
    50    15    17    1
    51    17    18    1
    52    17    24    2
    53    18    19    2
    54    18    51    1
    55    19    20    1
    56    19    22    1
    57    20    21    1
    58    21    52    1
    59    21    53    1
    60    21    54    1
    61    22    23    2
    62    22    55    1
    63    23    24    1
    64    23    56    1
    65    57    58    1
    66    57    80    1
    67    57    81    1
    68    57    82    1
    69    58    59    1
    70    58    83    1
    71    58    84    1
    72    59    60    1
    73    59    85    1
    74    59    86    1
    75    60    61    1
    76    60    87    1
    77    60    88    1
    78    61    62    1
    79    61    89    1
    80    61    90    1
    81    62    63    1
    82    62    91    1
    83    62    92    1
    84    63    64    1
    85    63    93    1
    86    63    94    1
    87    64    65    1
    88    64    95    1
    89    64    96    1
    90    65    66    1
    91    65    97    1
    92    65    98    1
    93    66    67    1
    94    66    99    1
    95    66   100    1
    96    67    68    1
    97    67   101    1
    98    67   102    1
    99    68    69    1
   100    68   103    1
   101    68   104    1
   102    69    70    1
   103    69   105    1
   104    70    71    2
   105    70    72    1
   106    72    73    1
   107    72    79    2
   108    73    74    2
   109    73   106    1
   110    74    75    1
   111    74    77    1
   112    75    76    1
   113    76   107    1
   114    76   108    1
   115    76   109    1
   116    77    78    2
   117    77   110    1
   118    78    79    1
   119    78   111    1
   120   112   113    1
   121   112   135    1
   122   112   136    1
   123   112   137    1
   124   113   114    1
   125   113   138    1
   126   113   139    1
   127   114   115    1
   128   114   140    1
   129   114   141    1
   130   115   116    1
   131   115   142    1
   132   115   143    1
   133   116   117    1
   134   116   144    1
   135   116   145    1
   136   117   118    1
   137   117   146    1
   138   117   147    1
   139   118   119    1
   140   118   148    1
   141   118   149    1
   142   119   120    1
   143   119   150    1
   144   119   151    1
   145   120   121    1
   146   120   152    1
   147   120   153    1
   148   121   122    1
   149   121   154    1
   150   121   155    1
   151   122   123    1
   152   122   156    1
   153   122   157    1
   154   123   124    1
   155   123   158    1
   156   123   159    1
   157   124   125    1
   158   124   160    1
   159   125   126    2
   160   125   127    1
   161   127   128    1
   162   127   134    2
   163   128   129    2
   164   128   161    1
   165   129   130    1
   166   129   132    1
   167   130   131    1
   168   131   162    1
   169   131   163    1
   170   131   164    1
   171   132   133    2
   172   132   165    1
   173   133   134    1
   174   133   166    1
@<TRIPOS>SUBSTRUCTURE
     1 RES1      166 GROUP             0 ****  ****    0  
