@<TRIPOS>MOLECULE
am_c3_9H2O_c0_0_nunpairedes_0_charge_3 Charge: 3 Unpaired_Electrons: 7 XTB_Unpaired_Electrons: 0 XTB_Charge: 3
   439   444     1     0     0
SMALL
NoCharges
****
Generated from Architector

@<TRIPOS>ATOM
     1 Gd1      -0.2620    0.1918   -0.1939   Gd        1 RES1   0.0000
     2 C1       -7.0299    7.8263    5.0160   C.3       1 RES1   0.0000
     3 C2       -5.7436    7.3129    5.6511   C.3       1 RES1   0.0000
     4 C3       -5.6367    5.7889    5.5790   C.3       1 RES1   0.0000
     5 C4       -4.2644    5.3097    6.0453   C.3       1 RES1   0.0000
     6 C5       -4.1310    3.7857    6.0610   C.3       1 RES1   0.0000
     7 C6       -2.6791    3.3223    6.2348   C.3       1 RES1   0.0000
     8 C7       -1.9156    3.0063    4.9455   C.3       1 RES1   0.0000
     9 C8       -1.6856    4.2030    4.0209   C.3       1 RES1   0.0000
    10 C9       -2.8281    4.4190    3.0252   C.3       1 RES1   0.0000
    11 C10      -2.6726    3.6146    1.7315   C.3       1 RES1   0.0000
    12 N1       -3.4668    2.3896    1.5755   N.am      1 RES1   0.0000
    13 C11      -4.9128    2.5382    1.6423   C.3       1 RES1   0.0000
    14 C12      -5.5712    2.9827    0.3209   C.3       1 RES1   0.0000
    15 C13      -6.3162    4.3232    0.4217   C.3       1 RES1   0.0000
    16 C14      -7.4472    4.4061   -0.6114   C.3       1 RES1   0.0000
    17 C15      -8.7185    3.7018   -0.1303   C.3       1 RES1   0.0000
    18 C16      -9.6428    3.2247   -1.2545   C.3       1 RES1   0.0000
    19 C17      -9.1023    2.0812   -2.1222   C.3       1 RES1   0.0000
    20 C18      -8.5409    0.8804   -1.3562   C.3       1 RES1   0.0000
    21 C19      -9.4859    0.2595   -0.3247   C.3       1 RES1   0.0000
    22 C20     -10.6674   -0.4669   -0.9503   C.3       1 RES1   0.0000
    23 C21      -2.8265    1.2907    1.1901   C.2       1 RES1   0.0000
    24 O1       -1.5879    1.1923    1.2746   O.2       1 RES1   0.0000
    25 C22      -3.5920    0.0796    0.6347   C.3       1 RES1   0.0000
    26 C23      -3.8162   -0.8984    1.7856   C.3       1 RES1   0.0000
    27 O2       -2.7295   -0.4252   -0.3970   O.3       1 RES1   0.0000
    28 C24      -3.2164   -1.4573   -1.2872   C.3       1 RES1   0.0000
    29 C25      -4.6395   -1.1723   -1.7914   C.3       1 RES1   0.0000
    30 C26      -5.7274   -1.9901   -1.0904   C.3       1 RES1   0.0000
    31 C27      -2.1287   -1.4789   -2.4151   C.2       1 RES1   0.0000
    32 O3       -1.0783   -0.8404   -2.1572   O.2       1 RES1   0.0000
    33 N2       -2.2812   -2.0777   -3.6035   N.am      1 RES1   0.0000
    34 C28      -3.3511   -2.9608   -4.0816   C.3       1 RES1   0.0000
    35 C29      -3.6407   -4.2146   -3.2516   C.3       1 RES1   0.0000
    36 C30      -2.9047   -5.4353   -3.8128   C.3       1 RES1   0.0000
    37 C31      -1.3928   -5.3225   -3.6335   C.3       1 RES1   0.0000
    38 C32      -0.9850   -5.5506   -2.1822   C.3       1 RES1   0.0000
    39 C33       0.2692   -4.7728   -1.7886   C.3       1 RES1   0.0000
    40 C34       1.5759   -5.3094   -2.3927   C.3       1 RES1   0.0000
    41 C35       2.0382   -4.5450   -3.6333   C.3       1 RES1   0.0000
    42 C36       3.4630   -4.9000   -4.0675   C.3       1 RES1   0.0000
    43 C37       3.5852   -6.2904   -4.6810   C.3       1 RES1   0.0000
    44 C38      -1.4884   -1.5371   -4.7244   C.3       1 RES1   0.0000
    45 C39      -0.5495   -2.4237   -5.5527   C.3       1 RES1   0.0000
    46 C40      -0.1745   -1.6797   -6.8480   C.3       1 RES1   0.0000
    47 C41       0.9418   -2.3592   -7.6633   C.3       1 RES1   0.0000
    48 C42       2.3431   -1.7934   -7.3963   C.3       1 RES1   0.0000
    49 C43       2.5955   -0.4394   -8.0723   C.3       1 RES1   0.0000
    50 C44       4.0170    0.0906   -7.8561   C.3       1 RES1   0.0000
    51 C45       4.3074    1.4082   -8.5940   C.3       1 RES1   0.0000
    52 C46       4.0023    2.6900   -7.7999   C.3       1 RES1   0.0000
    53 C47       3.0679    3.6267   -8.5544   C.3       1 RES1   0.0000
    54 H1       -7.0745    8.9098    5.0771   H         1 RES1   0.0000
    55 H2       -7.8977    7.4202    5.5286   H         1 RES1   0.0000
    56 H3       -7.0811    7.5362    3.9678   H         1 RES1   0.0000
    57 H4       -5.7012    7.6221    6.6977   H         1 RES1   0.0000
    58 H5       -4.8822    7.7580    5.1420   H         1 RES1   0.0000
    59 H6       -5.8033    5.4667    4.5444   H         1 RES1   0.0000
    60 H7       -6.4187    5.3397    6.1958   H         1 RES1   0.0000
    61 H8       -4.0843    5.6833    7.0555   H         1 RES1   0.0000
    62 H9       -3.5092    5.7538    5.3945   H         1 RES1   0.0000
    63 H10      -4.5470    3.3454    5.1500   H         1 RES1   0.0000
    64 H11      -4.7305    3.4017    6.8875   H         1 RES1   0.0000
    65 H12      -2.6674    2.4144    6.8411   H         1 RES1   0.0000
    66 H13      -2.1243    4.0850    6.7859   H         1 RES1   0.0000
    67 H14      -2.4212    2.2144    4.3860   H         1 RES1   0.0000
    68 H15      -0.9429    2.6330    5.2555   H         1 RES1   0.0000
    69 H16      -0.7516    4.0669    3.4630   H         1 RES1   0.0000
    70 H17      -1.5632    5.0975    4.6330   H         1 RES1   0.0000
    71 H18      -2.8718    5.4733    2.7515   H         1 RES1   0.0000
    72 H19      -3.7680    4.1780    3.5130   H         1 RES1   0.0000
    73 H20      -1.6285    3.3174    1.6046   H         1 RES1   0.0000
    74 H21      -2.9532    4.2539    0.8896   H         1 RES1   0.0000
    75 H22      -5.1102    3.2964    2.4018   H         1 RES1   0.0000
    76 H23      -5.3604    1.6102    2.0043   H         1 RES1   0.0000
    77 H24      -6.2938    2.2267    0.0216   H         1 RES1   0.0000
    78 H25      -4.8148    3.0379   -0.4636   H         1 RES1   0.0000
    79 H26      -5.6138    5.1499    0.2822   H         1 RES1   0.0000
    80 H27      -6.7519    4.4287    1.4170   H         1 RES1   0.0000
    81 H28      -7.1071    3.9555   -1.5433   H         1 RES1   0.0000
    82 H29      -7.6804    5.4514   -0.8108   H         1 RES1   0.0000
    83 H30      -9.2781    4.3938    0.5013   H         1 RES1   0.0000
    84 H31      -8.4531    2.8497    0.4942   H         1 RES1   0.0000
    85 H32      -9.8781    4.0689   -1.9063   H         1 RES1   0.0000
    86 H33     -10.5789    2.9017   -0.7968   H         1 RES1   0.0000
    87 H34      -8.3177    2.4587   -2.7832   H         1 RES1   0.0000
    88 H35      -9.9154    1.7412   -2.7629   H         1 RES1   0.0000
    89 H36      -7.6242    1.1860   -0.8434   H         1 RES1   0.0000
    90 H37      -8.2591    0.1140   -2.0843   H         1 RES1   0.0000
    91 H38      -9.8564    1.0324    0.3493   H         1 RES1   0.0000
    92 H39      -8.9135   -0.4504    0.2812   H         1 RES1   0.0000
    93 H40     -11.3057    0.2266   -1.4878   H         1 RES1   0.0000
    94 H41     -11.2590   -0.9412   -0.1728   H         1 RES1   0.0000
    95 H42     -10.3254   -1.2330   -1.6425   H         1 RES1   0.0000
    96 H43      -4.5513    0.4036    0.2198   H         1 RES1   0.0000
    97 H44      -2.8562   -1.3056    2.1047   H         1 RES1   0.0000
    98 H45      -4.2480   -0.3515    2.6228   H         1 RES1   0.0000
    99 H46      -4.4956   -1.6956    1.4941   H         1 RES1   0.0000
   100 H47      -3.1767   -2.4159   -0.7473   H         1 RES1   0.0000
   101 H48      -4.8332   -0.1031   -1.6848   H         1 RES1   0.0000
   102 H49      -4.7003   -1.3715   -2.8564   H         1 RES1   0.0000
   103 H50      -6.0600   -1.5165   -0.1709   H         1 RES1   0.0000
   104 H51      -5.3903   -3.0028   -0.8722   H         1 RES1   0.0000
   105 H52      -6.5958   -2.0682   -1.7366   H         1 RES1   0.0000
   106 H53      -3.0289   -3.2912   -5.0676   H         1 RES1   0.0000
   107 H54      -4.2701   -2.3977   -4.2534   H         1 RES1   0.0000
   108 H55      -4.7121   -4.4138   -3.2794   H         1 RES1   0.0000
   109 H56      -3.3662   -4.0476   -2.2121   H         1 RES1   0.0000
   110 H57      -3.1518   -5.5253   -4.8720   H         1 RES1   0.0000
   111 H58      -3.2621   -6.3372   -3.3137   H         1 RES1   0.0000
   112 H59      -1.0695   -4.3246   -3.9201   H         1 RES1   0.0000
   113 H60      -0.8877   -6.0341   -4.2858   H         1 RES1   0.0000
   114 H61      -0.8483   -6.6161   -1.9976   H         1 RES1   0.0000
   115 H62      -1.7994   -5.2172   -1.5330   H         1 RES1   0.0000
   116 H63       0.3326   -4.8056   -0.7027   H         1 RES1   0.0000
   117 H64       0.1351   -3.7196   -2.0610   H         1 RES1   0.0000
   118 H65       1.4455   -6.3619   -2.6436   H         1 RES1   0.0000
   119 H66       2.3700   -5.2533   -1.6410   H         1 RES1   0.0000
   120 H67       1.9928   -3.4704   -3.4169   H         1 RES1   0.0000
   121 H68       1.3633   -4.7508   -4.4644   H         1 RES1   0.0000
   122 H69       4.1398   -4.8318   -3.2110   H         1 RES1   0.0000
   123 H70       3.7921   -4.1661   -4.8077   H         1 RES1   0.0000
   124 H71       3.3288   -7.0662   -3.9648   H         1 RES1   0.0000
   125 H72       4.6081   -6.4612   -5.0088   H         1 RES1   0.0000
   126 H73       2.9300   -6.3872   -5.5433   H         1 RES1   0.0000
   127 H74      -0.8961   -0.7221   -4.3103   H         1 RES1   0.0000
   128 H75      -2.2374   -1.1326   -5.4095   H         1 RES1   0.0000
   129 H76      -1.0333   -3.3576   -5.8417   H         1 RES1   0.0000
   130 H77       0.3552   -2.6570   -4.9925   H         1 RES1   0.0000
   131 H78       0.1413   -0.6631   -6.6066   H         1 RES1   0.0000
   132 H79      -1.0702   -1.6009   -7.4673   H         1 RES1   0.0000
   133 H80       0.7218   -2.2377   -8.7259   H         1 RES1   0.0000
   134 H81       0.9477   -3.4314   -7.4575   H         1 RES1   0.0000
   135 H82       3.0835   -2.5025   -7.7722   H         1 RES1   0.0000
   136 H83       2.4901   -1.7161   -6.3141   H         1 RES1   0.0000
   137 H84       1.8682    0.2922   -7.7160   H         1 RES1   0.0000
   138 H85       2.4395   -0.5692   -9.1452   H         1 RES1   0.0000
   139 H86       4.7138   -0.6683   -8.2141   H         1 RES1   0.0000
   140 H87       4.2094    0.2210   -6.7867   H         1 RES1   0.0000
   141 H88       3.7403    1.4209   -9.5232   H         1 RES1   0.0000
   142 H89       5.3577    1.4194   -8.8759   H         1 RES1   0.0000
   143 H90       4.9265    3.2251   -7.5776   H         1 RES1   0.0000
   144 H91       3.5520    2.4397   -6.8380   H         1 RES1   0.0000
   145 H92       3.4866    3.8750   -9.5258   H         1 RES1   0.0000
   146 H93       2.9223    4.5572   -8.0097   H         1 RES1   0.0000
   147 H94       2.0998    3.1549   -8.7097   H         1 RES1   0.0000
   148 C48      -2.4783   11.0213   -4.6076   C.3       1 RES1   0.0000
   149 C49      -3.7646   10.2027   -4.6630   C.3       1 RES1   0.0000
   150 C50      -3.5558    8.8278   -5.3026   C.3       1 RES1   0.0000
   151 C51      -4.8201    7.9751   -5.2182   C.3       1 RES1   0.0000
   152 C52      -4.7305    6.6621   -5.9977   C.3       1 RES1   0.0000
   153 C53      -5.7687    5.6284   -5.5406   C.3       1 RES1   0.0000
   154 C54      -5.2640    4.5894   -4.5374   C.3       1 RES1   0.0000
   155 C55      -4.8756    5.1121   -3.1485   C.3       1 RES1   0.0000
   156 C56      -3.3780    5.4178   -2.9480   C.3       1 RES1   0.0000
   157 C57      -2.7145    4.3563   -2.0700   C.3       1 RES1   0.0000
   158 N3       -1.2805    4.5452   -1.7631   N.am      1 RES1   0.0000
   159 C58      -0.6208    5.7837   -2.1757   C.3       1 RES1   0.0000
   160 C59      -0.4493    6.8969   -1.1391   C.3       1 RES1   0.0000
   161 C60      -1.7301    7.4387   -0.5022   C.3       1 RES1   0.0000
   162 C61      -1.4348    8.0492    0.8717   C.3       1 RES1   0.0000
   163 C62      -0.4943    9.2571    0.8249   C.3       1 RES1   0.0000
   164 C63       0.2033    9.5416    2.1584   C.3       1 RES1   0.0000
   165 C64       1.1344    8.4298    2.6490   C.3       1 RES1   0.0000
   166 C65       2.2321    8.0267    1.6608   C.3       1 RES1   0.0000
   167 C66       3.2031    9.1452    1.2799   C.3       1 RES1   0.0000
   168 C67       4.0387    9.6269    2.4592   C.3       1 RES1   0.0000
   169 C68      -0.6272    3.5113   -1.2208   C.2       1 RES1   0.0000
   170 O4       -1.1130    2.3620   -1.1675   O.2       1 RES1   0.0000
   171 C69       0.7325    3.7864   -0.5419   C.3       1 RES1   0.0000
   172 C70       1.9278    3.9268   -1.4942   C.3       1 RES1   0.0000
   173 O5        0.9094    2.6951    0.3702   O.3       1 RES1   0.0000
   174 C71       2.0445    2.7092    1.2654   C.3       1 RES1   0.0000
   175 C72       2.2841    4.0442    2.0030   C.3       1 RES1   0.0000
   176 C73       3.7661    4.4300    2.0891   C.3       1 RES1   0.0000
   177 C74       1.6536    1.5345    2.2063   C.2       1 RES1   0.0000
   178 O6        0.9727    0.6191    1.7005   O.2       1 RES1   0.0000
   179 N4        1.8799    1.5384    3.5268   N.am      1 RES1   0.0000
   180 C75       3.1189    1.9145    4.1980   C.3       1 RES1   0.0000
   181 C76       4.2598    0.9210    3.8915   C.3       1 RES1   0.0000
   182 C77       4.5558   -0.0686    5.0319   C.3       1 RES1   0.0000
   183 C78       4.9692   -1.4664    4.5394   C.3       1 RES1   0.0000
   184 C79       6.4383   -1.7959    4.8011   C.3       1 RES1   0.0000
   185 C80       6.9667   -2.9794    3.9855   C.3       1 RES1   0.0000
   186 C81       6.2590   -4.3244    4.1976   C.3       1 RES1   0.0000
   187 C82       5.0208   -4.5359    3.3152   C.3       1 RES1   0.0000
   188 C83       4.8379   -5.9836    2.8511   C.3       1 RES1   0.0000
   189 C84       4.4672   -6.9289    3.9850   C.3       1 RES1   0.0000
   190 C85       0.8520    0.9483    4.3851   C.3       1 RES1   0.0000
   191 C86       0.9653   -0.5220    4.7925   C.3       1 RES1   0.0000
   192 C87       0.5443   -0.6979    6.2522   C.3       1 RES1   0.0000
   193 C88       0.5562   -2.1512    6.7217   C.3       1 RES1   0.0000
   194 C89      -0.5265   -3.0435    6.1141   C.3       1 RES1   0.0000
   195 C90      -1.9588   -2.6916    6.5365   C.3       1 RES1   0.0000
   196 C91      -2.6532   -1.5567    5.7611   C.3       1 RES1   0.0000
   197 C92      -4.0604   -1.9528    5.3020   C.3       1 RES1   0.0000
   198 C93      -5.0359   -0.7747    5.2479   C.3       1 RES1   0.0000
   199 C94      -5.7294   -0.5679    6.5901   C.3       1 RES1   0.0000
   200 H95      -2.6701   12.0051   -4.1847   H         1 RES1   0.0000
   201 H96      -2.0695   11.1582   -5.6056   H         1 RES1   0.0000
   202 H97      -1.7273   10.5250   -3.9933   H         1 RES1   0.0000
   203 H98      -4.5145   10.7500   -5.2378   H         1 RES1   0.0000
   204 H99      -4.1553   10.0816   -3.6477   H         1 RES1   0.0000
   205 H100     -2.7376    8.3100   -4.7895   H         1 RES1   0.0000
   206 H101     -3.2577    8.9584   -6.3445   H         1 RES1   0.0000
   207 H102     -5.6631    8.5484   -5.6068   H         1 RES1   0.0000
   208 H103     -5.0218    7.7750   -4.1649   H         1 RES1   0.0000
   209 H104     -3.7265    6.2401   -5.9216   H         1 RES1   0.0000
   210 H105     -4.8959    6.8736   -7.0536   H         1 RES1   0.0000
   211 H106     -6.1192    5.0698   -6.4115   H         1 RES1   0.0000
   212 H107     -6.6380    6.1422   -5.1278   H         1 RES1   0.0000
   213 H108     -4.4117    4.0825   -4.9892   H         1 RES1   0.0000
   214 H109     -6.0597    3.8480   -4.4114   H         1 RES1   0.0000
   215 H110     -5.1727    4.3691   -2.4094   H         1 RES1   0.0000
   216 H111     -5.4598    6.0082   -2.9430   H         1 RES1   0.0000
   217 H112     -3.2842    6.3891   -2.4646   H         1 RES1   0.0000
   218 H113     -2.8846    5.4506   -3.9160   H         1 RES1   0.0000
   219 H114     -2.8459    3.3657   -2.5204   H         1 RES1   0.0000
   220 H115     -3.2311    4.3475   -1.1017   H         1 RES1   0.0000
   221 H116     -1.1903    6.1846   -3.0111   H         1 RES1   0.0000
   222 H117      0.3694    5.5307   -2.5525   H         1 RES1   0.0000
   223 H118      0.0686    7.7005   -1.6642   H         1 RES1   0.0000
   224 H119      0.2117    6.5614   -0.3412   H         1 RES1   0.0000
   225 H120     -2.4374    6.6179   -0.3617   H         1 RES1   0.0000
   226 H121     -2.1943    8.1816   -1.1539   H         1 RES1   0.0000
   227 H122     -0.9937    7.2637    1.4909   H         1 RES1   0.0000
   228 H123     -2.3752    8.3465    1.3384   H         1 RES1   0.0000
   229 H124     -1.0674   10.1405    0.5390   H         1 RES1   0.0000
   230 H125      0.2691    9.1093    0.0616   H         1 RES1   0.0000
   231 H126     -0.5453    9.7339    2.9301   H         1 RES1   0.0000
   232 H127      0.7832   10.4562    2.0372   H         1 RES1   0.0000
   233 H128      0.5453    7.5412    2.8961   H         1 RES1   0.0000
   234 H129      1.5973    8.7626    3.5776   H         1 RES1   0.0000
   235 H130      1.7719    7.6440    0.7459   H         1 RES1   0.0000
   236 H131      2.8076    7.2116    2.1078   H         1 RES1   0.0000
   237 H132      2.6534    9.9853    0.8544   H         1 RES1   0.0000
   238 H133      3.8724    8.7653    0.5028   H         1 RES1   0.0000
   239 H134      3.4117   10.0925    3.2152   H         1 RES1   0.0000
   240 H135      4.7659   10.3627    2.1260   H         1 RES1   0.0000
   241 H136      4.5759    8.7953    2.9140   H         1 RES1   0.0000
   242 H137      0.5950    4.7175    0.0244   H         1 RES1   0.0000
   243 H138      1.6165    3.9512   -2.5317   H         1 RES1   0.0000
   244 H139      2.5787    3.0641   -1.3820   H         1 RES1   0.0000
   245 H140      2.5016    4.8254   -1.2772   H         1 RES1   0.0000
   246 H141      2.9487    2.4459    0.6869   H         1 RES1   0.0000
   247 H142      1.7856    4.8564    1.4779   H         1 RES1   0.0000
   248 H143      1.8303    4.0045    2.9945   H         1 RES1   0.0000
   249 H144      4.0853    4.9390    1.1831   H         1 RES1   0.0000
   250 H145      4.4154    3.5699    2.2231   H         1 RES1   0.0000
   251 H146      3.9333    5.1083    2.9228   H         1 RES1   0.0000
   252 H147      2.9061    1.9081    5.2662   H         1 RES1   0.0000
   253 H148      3.4115    2.9237    3.9338   H         1 RES1   0.0000
   254 H149      5.1677    1.4761    3.6549   H         1 RES1   0.0000
   255 H150      3.9875    0.3674    2.9896   H         1 RES1   0.0000
   256 H151      3.6741   -0.1644    5.6614   H         1 RES1   0.0000
   257 H152      5.3452    0.3386    5.6626   H         1 RES1   0.0000
   258 H153      4.7948   -1.5304    3.4648   H         1 RES1   0.0000
   259 H154      4.3454   -2.2227    5.0171   H         1 RES1   0.0000
   260 H155      6.5816   -2.0023    5.8628   H         1 RES1   0.0000
   261 H156      7.0472   -0.9222    4.5530   H         1 RES1   0.0000
   262 H157      8.0153   -3.1024    4.2558   H         1 RES1   0.0000
   263 H158      6.9396   -2.7240    2.9233   H         1 RES1   0.0000
   264 H159      5.9991   -4.4347    5.2498   H         1 RES1   0.0000
   265 H160      6.9765   -5.1099    3.9590   H         1 RES1   0.0000
   266 H161      5.1204   -3.9142    2.4210   H         1 RES1   0.0000
   267 H162      4.1159   -4.2262    3.8432   H         1 RES1   0.0000
   268 H163      5.7614   -6.3248    2.3797   H         1 RES1   0.0000
   269 H164      4.0550   -6.0143    2.0833   H         1 RES1   0.0000
   270 H165      5.2628   -6.9709    4.7216   H         1 RES1   0.0000
   271 H166      4.3065   -7.9319    3.6001   H         1 RES1   0.0000
   272 H167      3.5571   -6.5987    4.4796   H         1 RES1   0.0000
   273 H168     -0.1082    1.1057    3.8883   H         1 RES1   0.0000
   274 H169      0.8828    1.5528    5.2965   H         1 RES1   0.0000
   275 H170      1.9887   -0.8677    4.6781   H         1 RES1   0.0000
   276 H171      0.3218   -1.1182    4.1461   H         1 RES1   0.0000
   277 H172     -0.4525   -0.2852    6.3942   H         1 RES1   0.0000
   278 H173      1.2291   -0.1286    6.8852   H         1 RES1   0.0000
   279 H174      0.4182   -2.1572    7.8031   H         1 RES1   0.0000
   280 H175      1.5367   -2.5917    6.5169   H         1 RES1   0.0000
   281 H176     -0.3333   -4.0625    6.4603   H         1 RES1   0.0000
   282 H177     -0.4512   -3.0501    5.0237   H         1 RES1   0.0000
   283 H178     -1.9580   -2.4657    7.6047   H         1 RES1   0.0000
   284 H179     -2.5539   -3.5979    6.4080   H         1 RES1   0.0000
   285 H180     -2.0591   -1.2840    4.8872   H         1 RES1   0.0000
   286 H181     -2.7379   -0.6696    6.3880   H         1 RES1   0.0000
   287 H182     -4.4666   -2.6790    6.0035   H         1 RES1   0.0000
   288 H183     -3.9994   -2.4301    4.3229   H         1 RES1   0.0000
   289 H184     -5.7971   -0.9652    4.4881   H         1 RES1   0.0000
   290 H185     -4.5011    0.1359    4.9650   H         1 RES1   0.0000
   291 H186     -6.3093   -1.4520    6.8448   H         1 RES1   0.0000
   292 H187     -6.4055    0.2834    6.5512   H         1 RES1   0.0000
   293 H188     -5.0063   -0.3970    7.3851   H         1 RES1   0.0000
   294 C95      -2.0805  -11.5145    5.0161   C.3       1 RES1   0.0000
   295 C96      -3.3584  -10.6917    5.1519   C.3       1 RES1   0.0000
   296 C97      -3.0586   -9.1990    5.2818   C.3       1 RES1   0.0000
   297 C98      -4.3055   -8.3162    5.1694   C.3       1 RES1   0.0000
   298 C99      -3.9809   -6.8679    5.5543   C.3       1 RES1   0.0000
   299 C100     -4.9049   -5.8053    4.9619   C.3       1 RES1   0.0000
   300 C101     -4.9189   -5.7053    3.4328   C.3       1 RES1   0.0000
   301 C102     -3.5895   -5.9291    2.7117   C.3       1 RES1   0.0000
   302 C103     -2.4539   -4.9547    3.0756   C.3       1 RES1   0.0000
   303 C104     -1.8046   -4.3689    1.8154   C.3       1 RES1   0.0000
   304 N5       -0.3548   -4.1254    1.8176   N.am      1 RES1   0.0000
   305 C105      0.5024   -5.1850    2.3567   C.3       1 RES1   0.0000
   306 C106      0.7687   -6.4112    1.4688   C.3       1 RES1   0.0000
   307 C107     -0.4067   -7.3563    1.2008   C.3       1 RES1   0.0000
   308 C108     -0.0521   -8.3751    0.1142   C.3       1 RES1   0.0000
   309 C109      0.8924   -9.4871    0.5643   C.3       1 RES1   0.0000
   310 C110      1.4885  -10.2335   -0.6310   C.3       1 RES1   0.0000
   311 C111      2.3509   -9.3644   -1.5535   C.3       1 RES1   0.0000
   312 C112      3.3871   -8.4939   -0.8385   C.3       1 RES1   0.0000
   313 C113      4.4130   -9.2919   -0.0333   C.3       1 RES1   0.0000
   314 C114      5.3988  -10.0423   -0.9219   C.3       1 RES1   0.0000
   315 C115      0.0823   -3.0123    1.2253   C.2       1 RES1   0.0000
   316 O7       -0.6665   -2.0858    0.8468   O.2       1 RES1   0.0000
   317 C116      1.5924   -2.8287    1.0184   C.3       1 RES1   0.0000
   318 C117      2.1883   -2.2692    2.3099   C.3       1 RES1   0.0000
   319 O8        1.7047   -1.9063   -0.0754   O.3       1 RES1   0.0000
   320 C118      3.0132   -1.3364   -0.3447   C.3       1 RES1   0.0000
   321 C119      4.1534   -2.3567   -0.3235   C.3       1 RES1   0.0000
   322 C120      5.4411   -1.7196    0.1830   C.3       1 RES1   0.0000
   323 C121      2.6359   -0.4922   -1.5947   C.2       1 RES1   0.0000
   324 O9        1.6780    0.2809   -1.3393   O.2       1 RES1   0.0000
   325 N6        3.0957   -0.5493   -2.8417   N.am      1 RES1   0.0000
   326 C122      4.2415   -1.2876   -3.3857   C.3       1 RES1   0.0000
   327 C123      5.6357   -0.6533   -3.2729   C.3       1 RES1   0.0000
   328 C124      5.7759    0.7453   -3.8816   C.3       1 RES1   0.0000
   329 C125      5.7301    1.8716   -2.8447   C.3       1 RES1   0.0000
   330 C126      7.0829    2.0984   -2.1686   C.3       1 RES1   0.0000
   331 C127      7.0270    3.1138   -1.0263   C.3       1 RES1   0.0000
   332 C128      6.8564    4.5810   -1.4437   C.3       1 RES1   0.0000
   333 C129      5.4076    5.0370   -1.6380   C.3       1 RES1   0.0000
   334 C130      5.2537    6.5543   -1.5284   C.3       1 RES1   0.0000
   335 C131      5.7641    7.2766   -2.7683   C.3       1 RES1   0.0000
   336 C132      2.1772    0.0097   -3.8541   C.3       1 RES1   0.0000
   337 C133      1.8873    1.5122   -3.8391   C.3       1 RES1   0.0000
   338 C134      1.2904    1.9151   -5.1907   C.3       1 RES1   0.0000
   339 C135      0.8750    3.3874   -5.2908   C.3       1 RES1   0.0000
   340 C136     -0.5739    3.6884   -4.9060   C.3       1 RES1   0.0000
   341 C137     -1.6039    3.0055   -5.8167   C.3       1 RES1   0.0000
   342 C138     -1.9935    1.6108   -5.3025   C.3       1 RES1   0.0000
   343 C139     -3.4837    1.3046   -5.0925   C.3       1 RES1   0.0000
   344 C140     -4.2053    0.6614   -6.2828   C.3       1 RES1   0.0000
   345 C141     -4.8766    1.6731   -7.2040   C.3       1 RES1   0.0000
   346 H189     -2.3130  -12.5760    4.9817   H         1 RES1   0.0000
   347 H190     -1.4137  -11.3436    5.8588   H         1 RES1   0.0000
   348 H191     -1.5507  -11.2481    4.1020   H         1 RES1   0.0000
   349 H192     -3.9175  -11.0249    6.0277   H         1 RES1   0.0000
   350 H193     -3.9868  -10.8592    4.2749   H         1 RES1   0.0000
   351 H194     -2.3522   -8.9075    4.4961   H         1 RES1   0.0000
   352 H195     -2.5691   -9.0158    6.2411   H         1 RES1   0.0000
   353 H196     -5.0879   -8.7021    5.8240   H         1 RES1   0.0000
   354 H197     -4.6801   -8.3634    4.1449   H         1 RES1   0.0000
   355 H198     -2.9515   -6.6458    5.2646   H         1 RES1   0.0000
   356 H199     -4.0305   -6.7770    6.6416   H         1 RES1   0.0000
   357 H200     -4.6097   -4.8436    5.3831   H         1 RES1   0.0000
   358 H201     -5.9269   -5.9952    5.2890   H         1 RES1   0.0000
   359 H202     -5.3101   -4.7216    3.1573   H         1 RES1   0.0000
   360 H203     -5.6169   -6.4424    3.0321   H         1 RES1   0.0000
   361 H204     -3.8040   -5.8569    1.6423   H         1 RES1   0.0000
   362 H205     -3.2626   -6.9519    2.8905   H         1 RES1   0.0000
   363 H206     -1.7298   -5.4854    3.6863   H         1 RES1   0.0000
   364 H207     -2.8403   -4.1426    3.6843   H         1 RES1   0.0000
   365 H208     -2.2768   -3.4109    1.5932   H         1 RES1   0.0000
   366 H209     -2.0009   -5.0394    0.9733   H         1 RES1   0.0000
   367 H210      0.0367   -5.5341    3.2772   H         1 RES1   0.0000
   368 H211      1.4637   -4.7570    2.6371   H         1 RES1   0.0000
   369 H212      1.5470   -6.9754    1.9853   H         1 RES1   0.0000
   370 H213      1.1893   -6.0889    0.5159   H         1 RES1   0.0000
   371 H214     -1.2675   -6.7970    0.8420   H         1 RES1   0.0000
   372 H215     -0.7068   -7.8733    2.1135   H         1 RES1   0.0000
   373 H216      0.4104   -7.8308   -0.7102   H         1 RES1   0.0000
   374 H217     -0.9702   -8.8310   -0.2640   H         1 RES1   0.0000
   375 H218      0.3442  -10.1937    1.1905   H         1 RES1   0.0000
   376 H219      1.6955   -9.0722    1.1735   H         1 RES1   0.0000
   377 H220      0.6788  -10.6647   -1.2244   H         1 RES1   0.0000
   378 H221      2.0826  -11.0636   -0.2526   H         1 RES1   0.0000
   379 H222      1.7038   -8.7139   -2.1483   H         1 RES1   0.0000
   380 H223      2.8614  -10.0221   -2.2562   H         1 RES1   0.0000
   381 H224      2.8781   -7.7940   -0.1721   H         1 RES1   0.0000
   382 H225      3.9176   -7.8976   -1.5864   H         1 RES1   0.0000
   383 H226      3.8949  -10.0034    0.6104   H         1 RES1   0.0000
   384 H227      4.9689   -8.6060    0.6128   H         1 RES1   0.0000
   385 H228      4.8812  -10.7530   -1.5623   H         1 RES1   0.0000
   386 H229      6.1101  -10.5946   -0.3116   H         1 RES1   0.0000
   387 H230      5.9537   -9.3487   -1.5535   H         1 RES1   0.0000
   388 H231      2.0440   -3.7854    0.7273   H         1 RES1   0.0000
   389 H232      1.9625   -1.2071    2.3298   H         1 RES1   0.0000
   390 H233      3.2614   -2.4147    2.3652   H         1 RES1   0.0000
   391 H234      1.7452   -2.7285    3.1884   H         1 RES1   0.0000
   392 H235      3.2253   -0.5804    0.4362   H         1 RES1   0.0000
   393 H236      3.9008   -3.1623    0.3640   H         1 RES1   0.0000
   394 H237      4.3045   -2.8191   -1.2919   H         1 RES1   0.0000
   395 H238      5.3484   -1.4306    1.2284   H         1 RES1   0.0000
   396 H239      5.6917   -0.8291   -0.3828   H         1 RES1   0.0000
   397 H240      6.2654   -2.4223    0.1036   H         1 RES1   0.0000
   398 H241      4.0450   -1.4211   -4.4490   H         1 RES1   0.0000
   399 H242      4.2755   -2.2867   -2.9575   H         1 RES1   0.0000
   400 H243      6.2968   -1.3479   -3.7933   H         1 RES1   0.0000
   401 H244      5.9655   -0.6214   -2.2395   H         1 RES1   0.0000
   402 H245      4.9917    0.8988   -4.6220   H         1 RES1   0.0000
   403 H246      6.7280    0.8142   -4.4070   H         1 RES1   0.0000
   404 H247      4.9769    1.6397   -2.0828   H         1 RES1   0.0000
   405 H248      5.4275    2.7928   -3.3433   H         1 RES1   0.0000
   406 H249      7.8129    2.4334   -2.9080   H         1 RES1   0.0000
   407 H250      7.4489    1.1488   -1.7656   H         1 RES1   0.0000
   408 H251      7.9657    3.0331   -0.4765   H         1 RES1   0.0000
   409 H252      6.2240    2.8317   -0.3379   H         1 RES1   0.0000
   410 H253      7.4309    4.7644   -2.3520   H         1 RES1   0.0000
   411 H254      7.2924    5.1967   -0.6540   H         1 RES1   0.0000
   412 H255      4.7887    4.5586   -0.8739   H         1 RES1   0.0000
   413 H256      5.0315    4.7213   -2.6122   H         1 RES1   0.0000
   414 H257      5.8008    6.9080   -0.6538   H         1 RES1   0.0000
   415 H258      4.1996    6.8052   -1.3744   H         1 RES1   0.0000
   416 H259      6.8199    7.0720   -2.9227   H         1 RES1   0.0000
   417 H260      5.6385    8.3508   -2.6591   H         1 RES1   0.0000
   418 H261      5.2189    6.9562   -3.6547   H         1 RES1   0.0000
   419 H262      1.2265   -0.5230   -3.7244   H         1 RES1   0.0000
   420 H263      2.5946   -0.2297   -4.8308   H         1 RES1   0.0000
   421 H264      2.8094    2.0691   -3.6621   H         1 RES1   0.0000
   422 H265      1.1728    1.7369   -3.0465   H         1 RES1   0.0000
   423 H266      0.4322    1.2817   -5.3969   H         1 RES1   0.0000
   424 H267      2.0277    1.7091   -5.9638   H         1 RES1   0.0000
   425 H268      1.0128    3.7209   -6.3215   H         1 RES1   0.0000
   426 H269      1.5436    3.9915   -4.6720   H         1 RES1   0.0000
   427 H270     -0.7083    4.7720   -4.9535   H         1 RES1   0.0000
   428 H271     -0.7601    3.3780   -3.8772   H         1 RES1   0.0000
   429 H272     -1.1919    2.9360   -6.8244   H         1 RES1   0.0000
   430 H273     -2.4886    3.6354   -5.8836   H         1 RES1   0.0000
   431 H274     -1.5242    1.4750   -4.3244   H         1 RES1   0.0000
   432 H275     -1.5847    0.8658   -5.9817   H         1 RES1   0.0000
   433 H276     -4.0148    2.2099   -4.8133   H         1 RES1   0.0000
   434 H277     -3.5507    0.6205   -4.2420   H         1 RES1   0.0000
   435 H278     -4.9721   -0.0221   -5.9072   H         1 RES1   0.0000
   436 H279     -3.5066    0.0591   -6.8652   H         1 RES1   0.0000
   437 H280     -5.6215    2.2474   -6.6554   H         1 RES1   0.0000
   438 H281     -5.3773    1.1577   -8.0220   H         1 RES1   0.0000
   439 H282     -4.1502    2.3617   -7.6286   H         1 RES1   0.0000
@<TRIPOS>BOND
     1     1    24    1
     2     1    27    1
     3     1    32    1
     4     1   170    1
     5     1   173    1
     6     1   178    1
     7     1   316    1
     8     1   319    1
     9     1   324    1
    10     2     3    1
    11     2    54    1
    12     2    55    1
    13     2    56    1
    14     3     4    1
    15     3    57    1
    16     3    58    1
    17     4     5    1
    18     4    59    1
    19     4    60    1
    20     5     6    1
    21     5    61    1
    22     5    62    1
    23     6     7    1
    24     6    63    1
    25     6    64    1
    26     7     8    1
    27     7    65    1
    28     7    66    1
    29     8     9    1
    30     8    67    1
    31     8    68    1
    32     9    10    1
    33     9    69    1
    34     9    70    1
    35    10    11    1
    36    10    71    1
    37    10    72    1
    38    11    12    1
    39    11    73    1
    40    11    74    1
    41    12    13    1
    42    12    23    1
    43    13    14    1
    44    13    75    1
    45    13    76    1
    46    14    15    1
    47    14    77    1
    48    14    78    1
    49    15    16    1
    50    15    79    1
    51    15    80    1
    52    16    17    1
    53    16    81    1
    54    16    82    1
    55    17    18    1
    56    17    83    1
    57    17    84    1
    58    18    19    1
    59    18    85    1
    60    18    86    1
    61    19    20    1
    62    19    87    1
    63    19    88    1
    64    20    21    1
    65    20    89    1
    66    20    90    1
    67    21    22    1
    68    21    91    1
    69    21    92    1
    70    22    93    1
    71    22    94    1
    72    22    95    1
    73    23    24    2
    74    23    25    1
    75    25    26    1
    76    25    27    1
    77    25    96    1
    78    26    97    1
    79    26    98    1
    80    26    99    1
    81    27    28    1
    82    28    29    1
    83    28    31    1
    84    28   100    1
    85    29    30    1
    86    29   101    1
    87    29   102    1
    88    30   103    1
    89    30   104    1
    90    30   105    1
    91    31    32    2
    92    31    33    1
    93    33    34    1
    94    33    44    1
    95    34    35    1
    96    34   106    1
    97    34   107    1
    98    35    36    1
    99    35   108    1
   100    35   109    1
   101    36    37    1
   102    36   110    1
   103    36   111    1
   104    37    38    1
   105    37   112    1
   106    37   113    1
   107    38    39    1
   108    38   114    1
   109    38   115    1
   110    39    40    1
   111    39   116    1
   112    39   117    1
   113    40    41    1
   114    40   118    1
   115    40   119    1
   116    41    42    1
   117    41   120    1
   118    41   121    1
   119    42    43    1
   120    42   122    1
   121    42   123    1
   122    43   124    1
   123    43   125    1
   124    43   126    1
   125    44    45    1
   126    44   127    1
   127    44   128    1
   128    45    46    1
   129    45   129    1
   130    45   130    1
   131    46    47    1
   132    46   131    1
   133    46   132    1
   134    47    48    1
   135    47   133    1
   136    47   134    1
   137    48    49    1
   138    48   135    1
   139    48   136    1
   140    49    50    1
   141    49   137    1
   142    49   138    1
   143    50    51    1
   144    50   139    1
   145    50   140    1
   146    51    52    1
   147    51   141    1
   148    51   142    1
   149    52    53    1
   150    52   143    1
   151    52   144    1
   152    53   145    1
   153    53   146    1
   154    53   147    1
   155   148   149    1
   156   148   200    1
   157   148   201    1
   158   148   202    1
   159   149   150    1
   160   149   203    1
   161   149   204    1
   162   150   151    1
   163   150   205    1
   164   150   206    1
   165   151   152    1
   166   151   207    1
   167   151   208    1
   168   152   153    1
   169   152   209    1
   170   152   210    1
   171   153   154    1
   172   153   211    1
   173   153   212    1
   174   154   155    1
   175   154   213    1
   176   154   214    1
   177   155   156    1
   178   155   215    1
   179   155   216    1
   180   156   157    1
   181   156   217    1
   182   156   218    1
   183   157   158    1
   184   157   219    1
   185   157   220    1
   186   158   159    1
   187   158   169    1
   188   159   160    1
   189   159   221    1
   190   159   222    1
   191   160   161    1
   192   160   223    1
   193   160   224    1
   194   161   162    1
   195   161   225    1
   196   161   226    1
   197   162   163    1
   198   162   227    1
   199   162   228    1
   200   163   164    1
   201   163   229    1
   202   163   230    1
   203   164   165    1
   204   164   231    1
   205   164   232    1
   206   165   166    1
   207   165   233    1
   208   165   234    1
   209   166   167    1
   210   166   235    1
   211   166   236    1
   212   167   168    1
   213   167   237    1
   214   167   238    1
   215   168   239    1
   216   168   240    1
   217   168   241    1
   218   169   170    2
   219   169   171    1
   220   171   172    1
   221   171   173    1
   222   171   242    1
   223   172   243    1
   224   172   244    1
   225   172   245    1
   226   173   174    1
   227   174   175    1
   228   174   177    1
   229   174   246    1
   230   175   176    1
   231   175   247    1
   232   175   248    1
   233   176   249    1
   234   176   250    1
   235   176   251    1
   236   177   178    2
   237   177   179    1
   238   179   180    1
   239   179   190    1
   240   180   181    1
   241   180   252    1
   242   180   253    1
   243   181   182    1
   244   181   254    1
   245   181   255    1
   246   182   183    1
   247   182   256    1
   248   182   257    1
   249   183   184    1
   250   183   258    1
   251   183   259    1
   252   184   185    1
   253   184   260    1
   254   184   261    1
   255   185   186    1
   256   185   262    1
   257   185   263    1
   258   186   187    1
   259   186   264    1
   260   186   265    1
   261   187   188    1
   262   187   266    1
   263   187   267    1
   264   188   189    1
   265   188   268    1
   266   188   269    1
   267   189   270    1
   268   189   271    1
   269   189   272    1
   270   190   191    1
   271   190   273    1
   272   190   274    1
   273   191   192    1
   274   191   275    1
   275   191   276    1
   276   192   193    1
   277   192   277    1
   278   192   278    1
   279   193   194    1
   280   193   279    1
   281   193   280    1
   282   194   195    1
   283   194   281    1
   284   194   282    1
   285   195   196    1
   286   195   283    1
   287   195   284    1
   288   196   197    1
   289   196   285    1
   290   196   286    1
   291   197   198    1
   292   197   287    1
   293   197   288    1
   294   198   199    1
   295   198   289    1
   296   198   290    1
   297   199   291    1
   298   199   292    1
   299   199   293    1
   300   294   295    1
   301   294   346    1
   302   294   347    1
   303   294   348    1
   304   295   296    1
   305   295   349    1
   306   295   350    1
   307   296   297    1
   308   296   351    1
   309   296   352    1
   310   297   298    1
   311   297   353    1
   312   297   354    1
   313   298   299    1
   314   298   355    1
   315   298   356    1
   316   299   300    1
   317   299   357    1
   318   299   358    1
   319   300   301    1
   320   300   359    1
   321   300   360    1
   322   301   302    1
   323   301   361    1
   324   301   362    1
   325   302   303    1
   326   302   363    1
   327   302   364    1
   328   303   304    1
   329   303   365    1
   330   303   366    1
   331   304   305    1
   332   304   315    1
   333   305   306    1
   334   305   367    1
   335   305   368    1
   336   306   307    1
   337   306   369    1
   338   306   370    1
   339   307   308    1
   340   307   371    1
   341   307   372    1
   342   308   309    1
   343   308   373    1
   344   308   374    1
   345   309   310    1
   346   309   375    1
   347   309   376    1
   348   310   311    1
   349   310   377    1
   350   310   378    1
   351   311   312    1
   352   311   379    1
   353   311   380    1
   354   312   313    1
   355   312   381    1
   356   312   382    1
   357   313   314    1
   358   313   383    1
   359   313   384    1
   360   314   385    1
   361   314   386    1
   362   314   387    1
   363   315   316    2
   364   315   317    1
   365   317   318    1
   366   317   319    1
   367   317   388    1
   368   318   389    1
   369   318   390    1
   370   318   391    1
   371   319   320    1
   372   320   321    1
   373   320   323    1
   374   320   392    1
   375   321   322    1
   376   321   393    1
   377   321   394    1
   378   322   395    1
   379   322   396    1
   380   322   397    1
   381   323   324    2
   382   323   325    1
   383   325   326    1
   384   325   336    1
   385   326   327    1
   386   326   398    1
   387   326   399    1
   388   327   328    1
   389   327   400    1
   390   327   401    1
   391   328   329    1
   392   328   402    1
   393   328   403    1
   394   329   330    1
   395   329   404    1
   396   329   405    1
   397   330   331    1
   398   330   406    1
   399   330   407    1
   400   331   332    1
   401   331   408    1
   402   331   409    1
   403   332   333    1
   404   332   410    1
   405   332   411    1
   406   333   334    1
   407   333   412    1
   408   333   413    1
   409   334   335    1
   410   334   414    1
   411   334   415    1
   412   335   416    1
   413   335   417    1
   414   335   418    1
   415   336   337    1
   416   336   419    1
   417   336   420    1
   418   337   338    1
   419   337   421    1
   420   337   422    1
   421   338   339    1
   422   338   423    1
   423   338   424    1
   424   339   340    1
   425   339   425    1
   426   339   426    1
   427   340   341    1
   428   340   427    1
   429   340   428    1
   430   341   342    1
   431   341   429    1
   432   341   430    1
   433   342   343    1
   434   342   431    1
   435   342   432    1
   436   343   344    1
   437   343   433    1
   438   343   434    1
   439   344   345    1
   440   344   435    1
   441   344   436    1
   442   345   437    1
   443   345   438    1
   444   345   439    1
@<TRIPOS>SUBSTRUCTURE
     1 RES1      439 GROUP             0 ****  ****    0  
