@<TRIPOS>MOLECULE
am_c3_9H2O_c0_0_nunpairedes_0_charge_3 Charge: 3 Unpaired_Electrons: 7 XTB_Unpaired_Electrons: 0 XTB_Charge: 3
   361   369     1     0     0
SMALL
NoCharges
****
Generated from Architector

@<TRIPOS>ATOM
     1 Gd1      -0.4187    0.0066    0.3505   Gd        1 RES1   0.0000
     2 C1       -5.9986   -4.6773    7.4963   C.3       1 RES1   0.0000
     3 C2       -6.4877   -3.4505    6.7352   C.3       1 RES1   0.0000
     4 C3       -6.4016   -2.1630    7.5777   C.3       1 RES1   0.0000
     5 C4       -5.4143   -1.1006    7.0777   C.3       1 RES1   0.0000
     6 C5       -3.9266   -1.4090    7.2972   C.3       1 RES1   0.0000
     7 C6       -3.2718   -2.3054    6.2470   C.3       1 RES1   0.0000
     8 C7       -3.3430   -1.6830    4.8448   C.3       1 RES1   0.0000
     9 C8       -2.0420   -1.8616    4.0679   C.3       1 RES1   0.0000
    10 P1       -2.1866   -2.0984    2.2661   P.3       1 RES1   0.0000
    11 O1       -0.8675   -1.7618    1.6459   O.2       1 RES1   0.0000
    12 C9       -2.5766   -3.9000    2.0607   C.3       1 RES1   0.0000
    13 C10      -1.3548   -4.7478    1.6715   C.3       1 RES1   0.0000
    14 C11      -1.5830   -6.2155    2.0700   C.3       1 RES1   0.0000
    15 C12      -0.6845   -7.2718    1.3979   C.3       1 RES1   0.0000
    16 C13      -1.3809   -8.0356    0.2587   C.3       1 RES1   0.0000
    17 C14      -1.3168   -7.3122   -1.0987   C.3       1 RES1   0.0000
    18 C15      -0.3637   -7.9793   -2.0940   C.3       1 RES1   0.0000
    19 C16      -0.2620   -7.1905   -3.3942   C.3       1 RES1   0.0000
    20 C17      -3.6303   -0.9433    1.8105   C.3       1 RES1   0.0000
    21 C18      -4.1769   -0.7695    0.4380   C.ar      1 RES1   0.0000
    22 C19      -5.2655   -1.5144    0.0211   C.ar      1 RES1   0.0000
    23 C20      -5.8153   -1.3500   -1.2364   C.ar      1 RES1   0.0000
    24 C21      -5.3088   -0.3489   -2.0409   C.ar      1 RES1   0.0000
    25 C22      -4.2935    0.4606   -1.5670   C.ar      1 RES1   0.0000
    26 C23      -3.8793    1.6864   -2.2963   C.3       1 RES1   0.0000
    27 P2       -2.0797    2.1354   -2.3081   P.3       1 RES1   0.0000
    28 O2       -1.1167    1.0395   -1.9818   O.2       1 RES1   0.0000
    29 C24      -1.8034    2.6058   -4.0710   C.3       1 RES1   0.0000
    30 C25      -2.6449    3.7321   -4.6970   C.3       1 RES1   0.0000
    31 C26      -3.8012    3.2597   -5.5854   C.3       1 RES1   0.0000
    32 C27      -4.2716    4.3440   -6.5622   C.3       1 RES1   0.0000
    33 C28      -4.8137    5.6324   -5.9418   C.3       1 RES1   0.0000
    34 C29      -6.0811    5.5156   -5.0891   C.3       1 RES1   0.0000
    35 C30      -7.3952    5.3159   -5.8527   C.3       1 RES1   0.0000
    36 C31      -7.6637    3.8854   -6.3018   C.3       1 RES1   0.0000
    37 C32      -1.6533    3.6246   -1.2938   C.3       1 RES1   0.0000
    38 C33      -2.4936    4.8939   -1.1407   C.3       1 RES1   0.0000
    39 C34      -1.6594    5.9454   -0.3885   C.3       1 RES1   0.0000
    40 C35      -2.4027    7.2181    0.0407   C.3       1 RES1   0.0000
    41 C36      -3.0535    7.1620    1.4241   C.3       1 RES1   0.0000
    42 C37      -2.0933    7.0291    2.6081   C.3       1 RES1   0.0000
    43 C38      -2.8622    7.1758    3.9228   C.3       1 RES1   0.0000
    44 C39      -2.0106    6.9803    5.1717   C.3       1 RES1   0.0000
    45 N1       -3.7155    0.2161   -0.3708   N.ar      1 RES1   0.0000
    46 O3       -2.7615    1.0048    0.0183   O.co2     1 RES1   0.0000
    47 H1       -6.0706   -5.5684    6.8775   H         1 RES1   0.0000
    48 H2       -6.6079   -4.8322    8.3821   H         1 RES1   0.0000
    49 H3       -4.9664   -4.5587    7.8153   H         1 RES1   0.0000
    50 H4       -7.5250   -3.6274    6.4431   H         1 RES1   0.0000
    51 H5       -5.9159   -3.3320    5.8101   H         1 RES1   0.0000
    52 H6       -6.1466   -2.4222    8.6082   H         1 RES1   0.0000
    53 H7       -7.3869   -1.6914    7.5976   H         1 RES1   0.0000
    54 H8       -5.6363   -0.1824    7.6301   H         1 RES1   0.0000
    55 H9       -5.6049   -0.9041    6.0179   H         1 RES1   0.0000
    56 H10      -3.7957   -1.8677    8.2765   H         1 RES1   0.0000
    57 H11      -3.3785   -0.4617    7.3093   H         1 RES1   0.0000
    58 H12      -3.7418   -3.2888    6.2409   H         1 RES1   0.0000
    59 H13      -2.2246   -2.4409    6.5251   H         1 RES1   0.0000
    60 H14      -3.5478   -0.6139    4.9348   H         1 RES1   0.0000
    61 H15      -4.1741   -2.1436    4.3067   H         1 RES1   0.0000
    62 H16      -1.5207   -2.7625    4.4045   H         1 RES1   0.0000
    63 H17      -1.3587   -1.0228    4.2107   H         1 RES1   0.0000
    64 H18      -3.3728   -4.0593    1.3410   H         1 RES1   0.0000
    65 H19      -2.9521   -4.2373    3.0275   H         1 RES1   0.0000
    66 H20      -0.4557   -4.3698    2.1662   H         1 RES1   0.0000
    67 H21      -1.1899   -4.6566    0.5957   H         1 RES1   0.0000
    68 H22      -2.6170   -6.4845    1.8532   H         1 RES1   0.0000
    69 H23      -1.4618   -6.2852    3.1514   H         1 RES1   0.0000
    70 H24      -0.3895   -7.9977    2.1561   H         1 RES1   0.0000
    71 H25       0.2336   -6.8162    1.0246   H         1 RES1   0.0000
    72 H26      -2.4229   -8.2207    0.5325   H         1 RES1   0.0000
    73 H27      -0.9153   -9.0166    0.1484   H         1 RES1   0.0000
    74 H28      -0.9930   -6.2806   -0.9290   H         1 RES1   0.0000
    75 H29      -2.3106   -7.2834   -1.5538   H         1 RES1   0.0000
    76 H30      -0.7301   -8.9824   -2.3161   H         1 RES1   0.0000
    77 H31       0.6274   -8.0847   -1.6484   H         1 RES1   0.0000
    78 H32      -1.2528   -7.0111   -3.8046   H         1 RES1   0.0000
    79 H33       0.3044   -7.7494   -4.1315   H         1 RES1   0.0000
    80 H34       0.2306   -6.2297   -3.2387   H         1 RES1   0.0000
    81 H35      -3.2768    0.0154    2.2043   H         1 RES1   0.0000
    82 H36      -4.4537   -1.2887    2.4396   H         1 RES1   0.0000
    83 H37      -5.6969   -2.2147    0.7149   H         1 RES1   0.0000
    84 H38      -6.6328   -1.9652   -1.5609   H         1 RES1   0.0000
    85 H39      -5.7169   -0.1811   -3.0232   H         1 RES1   0.0000
    86 H40      -4.4141    2.5411   -1.8683   H         1 RES1   0.0000
    87 H41      -4.1890    1.5952   -3.3397   H         1 RES1   0.0000
    88 H42      -1.9165    1.6777   -4.6417   H         1 RES1   0.0000
    89 H43      -0.7417    2.8746   -4.1282   H         1 RES1   0.0000
    90 H44      -1.9840    4.3269   -5.3306   H         1 RES1   0.0000
    91 H45      -3.0273    4.3969   -3.9224   H         1 RES1   0.0000
    92 H46      -4.6427    2.9261   -4.9746   H         1 RES1   0.0000
    93 H47      -3.4554    2.4066   -6.1784   H         1 RES1   0.0000
    94 H48      -5.0308    3.9078   -7.2047   H         1 RES1   0.0000
    95 H49      -3.4315    4.6130   -7.2056   H         1 RES1   0.0000
    96 H50      -5.0157    6.3253   -6.7601   H         1 RES1   0.0000
    97 H51      -4.0290    6.0834   -5.3285   H         1 RES1   0.0000
    98 H52      -6.1683    6.4550   -4.5369   H         1 RES1   0.0000
    99 H53      -5.9682    4.7158   -4.3526   H         1 RES1   0.0000
   100 H54      -7.4225    5.9864   -6.7128   H         1 RES1   0.0000
   101 H55      -8.2099    5.6157   -5.1895   H         1 RES1   0.0000
   102 H56      -7.0029    3.5800   -7.1050   H         1 RES1   0.0000
   103 H57      -8.6827    3.8003   -6.6648   H         1 RES1   0.0000
   104 H58      -7.5429    3.1957   -5.4701   H         1 RES1   0.0000
   105 H59      -0.7023    3.9108   -1.7569   H         1 RES1   0.0000
   106 H60      -1.4386    3.2006   -0.3081   H         1 RES1   0.0000
   107 H61      -3.4154    4.6879   -0.6014   H         1 RES1   0.0000
   108 H62      -2.7595    5.3022   -2.1148   H         1 RES1   0.0000
   109 H63      -0.8305    6.2315   -1.0420   H         1 RES1   0.0000
   110 H64      -1.2272    5.4804    0.4981   H         1 RES1   0.0000
   111 H65      -3.1706    7.4549   -0.6950   H         1 RES1   0.0000
   112 H66      -1.6924    8.0446    0.0327   H         1 RES1   0.0000
   113 H67      -3.7788    6.3475    1.4582   H         1 RES1   0.0000
   114 H68      -3.6159    8.0862    1.5597   H         1 RES1   0.0000
   115 H69      -1.3244    7.8001    2.5460   H         1 RES1   0.0000
   116 H70      -1.5899    6.0564    2.5934   H         1 RES1   0.0000
   117 H71      -3.6813    6.4524    3.9341   H         1 RES1   0.0000
   118 H72      -3.3077    8.1696    3.9625   H         1 RES1   0.0000
   119 H73      -1.6018    5.9717    5.2187   H         1 RES1   0.0000
   120 H74      -2.6216    7.1307    6.0586   H         1 RES1   0.0000
   121 H75      -1.1876    7.6909    5.2062   H         1 RES1   0.0000
   122 C40      -1.2328   -6.9706   -7.3937   C.3       1 RES1   0.0000
   123 C41       0.2144   -6.7164   -7.7837   C.3       1 RES1   0.0000
   124 C42       0.5144   -5.2421   -8.0511   C.3       1 RES1   0.0000
   125 C43       0.3486   -4.3793   -6.7912   C.3       1 RES1   0.0000
   126 C44      -0.9821   -3.6241   -6.7423   C.3       1 RES1   0.0000
   127 C45      -1.4136   -3.2410   -5.3235   C.3       1 RES1   0.0000
   128 C46      -0.4144   -2.3160   -4.6251   C.3       1 RES1   0.0000
   129 C47      -0.9495   -1.6266   -3.3684   C.3       1 RES1   0.0000
   130 P3       -1.1302   -2.5304   -1.7728   P.3       1 RES1   0.0000
   131 O4       -1.7251   -1.5833   -0.7759   O.2       1 RES1   0.0000
   132 C48      -2.2842   -3.9314   -2.1512   C.3       1 RES1   0.0000
   133 C49      -3.3904   -4.2580   -1.1432   C.3       1 RES1   0.0000
   134 C50      -4.6953   -4.6895   -1.8275   C.3       1 RES1   0.0000
   135 C51      -5.9307   -4.8080   -0.9148   C.3       1 RES1   0.0000
   136 C52      -6.1707   -6.1669   -0.2408   C.3       1 RES1   0.0000
   137 C53      -5.4526   -6.4147    1.0884   C.3       1 RES1   0.0000
   138 C54      -5.8911   -5.5137    2.2446   C.3       1 RES1   0.0000
   139 C55      -5.4067   -6.0473    3.5882   C.3       1 RES1   0.0000
   140 C56       0.6668   -3.0108   -1.4341   C.3       1 RES1   0.0000
   141 C57       1.3610   -3.4532   -0.1838   C.ar      1 RES1   0.0000
   142 C58       1.7520   -4.7701   -0.0078   C.ar      1 RES1   0.0000
   143 C59       2.6756   -5.1210    0.9622   C.ar      1 RES1   0.0000
   144 C60       3.2074   -4.1235    1.7552   C.ar      1 RES1   0.0000
   145 C61       2.7949   -2.8176    1.5841   C.ar      1 RES1   0.0000
   146 C62       3.4228   -1.7283    2.3842   C.3       1 RES1   0.0000
   147 P4        2.7829    0.0281    2.5324   P.3       1 RES1   0.0000
   148 O5        1.3110    0.1866    2.7179   O.2       1 RES1   0.0000
   149 C63       3.7330    0.5040    4.0443   C.3       1 RES1   0.0000
   150 C64       5.2159    0.1262    4.2123   C.3       1 RES1   0.0000
   151 C65       5.3729   -0.9321    5.3113   C.3       1 RES1   0.0000
   152 C66       6.7907   -1.1627    5.8413   C.3       1 RES1   0.0000
   153 C67       7.8819   -1.4395    4.8103   C.3       1 RES1   0.0000
   154 C68       7.6979   -2.6321    3.8684   C.3       1 RES1   0.0000
   155 C69       7.6980   -4.0118    4.5350   C.3       1 RES1   0.0000
   156 C70       6.3059   -4.5161    4.8853   C.3       1 RES1   0.0000
   157 C71       3.2681    1.3704    1.3354   C.3       1 RES1   0.0000
   158 C72       4.6214    2.0938    1.2506   C.3       1 RES1   0.0000
   159 C73       4.5977    2.9603   -0.0306   C.3       1 RES1   0.0000
   160 C74       5.9042    3.6182   -0.5250   C.3       1 RES1   0.0000
   161 C75       6.5083    3.0055   -1.8058   C.3       1 RES1   0.0000
   162 C76       5.6944    3.0417   -3.1091   C.3       1 RES1   0.0000
   163 C77       5.7749    4.3195   -3.9425   C.3       1 RES1   0.0000
   164 C78       5.1509    4.1144   -5.3234   C.3       1 RES1   0.0000
   165 N2        1.8697   -2.5061    0.6541   N.ar      1 RES1   0.0000
   166 O6        1.5650   -1.2596    0.5388   O.co2     1 RES1   0.0000
   167 H76      -1.3947   -8.0253   -7.1987   H         1 RES1   0.0000
   168 H77      -1.9009   -6.6649   -8.1923   H         1 RES1   0.0000
   169 H78      -1.4980   -6.4230   -6.4952   H         1 RES1   0.0000
   170 H79       0.4523   -7.2956   -8.6745   H         1 RES1   0.0000
   171 H80       0.8726   -7.0701   -6.9880   H         1 RES1   0.0000
   172 H81      -0.1328   -4.8707   -8.8470   H         1 RES1   0.0000
   173 H82       1.5407   -5.1635   -8.4101   H         1 RES1   0.0000
   174 H83       1.1647   -3.6580   -6.7244   H         1 RES1   0.0000
   175 H84       0.4207   -5.0310   -5.9183   H         1 RES1   0.0000
   176 H85      -1.7668   -4.2507   -7.1624   H         1 RES1   0.0000
   177 H86      -0.9187   -2.7268   -7.3595   H         1 RES1   0.0000
   178 H87      -1.5426   -4.1624   -4.7537   H         1 RES1   0.0000
   179 H88      -2.3798   -2.7287   -5.3795   H         1 RES1   0.0000
   180 H89      -0.1491   -1.5259   -5.3344   H         1 RES1   0.0000
   181 H90       0.4999   -2.8653   -4.3966   H         1 RES1   0.0000
   182 H91      -1.9487   -1.2187   -3.5624   H         1 RES1   0.0000
   183 H92      -0.3140   -0.7756   -3.1106   H         1 RES1   0.0000
   184 H93      -1.7012   -4.8147   -2.4050   H         1 RES1   0.0000
   185 H94      -2.7555   -3.5689   -3.0656   H         1 RES1   0.0000
   186 H95      -3.5780   -3.3604   -0.5465   H         1 RES1   0.0000
   187 H96      -3.0594   -5.0709   -0.5015   H         1 RES1   0.0000
   188 H97      -4.5382   -5.6490   -2.3203   H         1 RES1   0.0000
   189 H98      -4.9204   -3.9562   -2.6052   H         1 RES1   0.0000
   190 H99      -6.8003   -4.6213   -1.5484   H         1 RES1   0.0000
   191 H100     -5.9127   -4.0344   -0.1502   H         1 RES1   0.0000
   192 H101     -5.8915   -6.9594   -0.9389   H         1 RES1   0.0000
   193 H102     -7.2438   -6.2625   -0.0600   H         1 RES1   0.0000
   194 H103     -4.3761   -6.3198    0.9379   H         1 RES1   0.0000
   195 H104     -5.6535   -7.4480    1.3777   H         1 RES1   0.0000
   196 H105     -6.9787   -5.4481    2.2646   H         1 RES1   0.0000
   197 H106     -5.5054   -4.5015    2.1023   H         1 RES1   0.0000
   198 H107     -5.9424   -6.9540    3.8487   H         1 RES1   0.0000
   199 H108     -5.5820   -5.3247    4.3801   H         1 RES1   0.0000
   200 H109     -4.3452   -6.2810    3.5598   H         1 RES1   0.0000
   201 H110      1.1383   -2.0640   -1.7301   H         1 RES1   0.0000
   202 H111      0.8586   -3.7611   -2.2039   H         1 RES1   0.0000
   203 H112      1.3417   -5.5267   -0.6549   H         1 RES1   0.0000
   204 H113      3.0052   -6.1359    1.0793   H         1 RES1   0.0000
   205 H114      3.9444   -4.3442    2.5089   H         1 RES1   0.0000
   206 H115      4.4682   -1.6281    2.0814   H         1 RES1   0.0000
   207 H116      3.4283   -2.0595    3.4288   H         1 RES1   0.0000
   208 H117      3.1887    0.0683    4.8819   H         1 RES1   0.0000
   209 H118      3.6043    1.5885    4.1097   H         1 RES1   0.0000
   210 H119      5.7657    1.0190    4.5132   H         1 RES1   0.0000
   211 H120      5.6475   -0.2213    3.2732   H         1 RES1   0.0000
   212 H121      4.9551   -1.8805    4.9672   H         1 RES1   0.0000
   213 H122      4.7784   -0.6001    6.1673   H         1 RES1   0.0000
   214 H123      6.7362   -1.9889    6.5499   H         1 RES1   0.0000
   215 H124      7.0972   -0.2824    6.4117   H         1 RES1   0.0000
   216 H125      8.8107   -1.5838    5.3654   H         1 RES1   0.0000
   217 H126      8.0025   -0.5427    4.2020   H         1 RES1   0.0000
   218 H127      8.5358   -2.5906    3.1683   H         1 RES1   0.0000
   219 H128      6.7797   -2.5146    3.2843   H         1 RES1   0.0000
   220 H129      8.3193   -3.9857    5.4286   H         1 RES1   0.0000
   221 H130      8.1545   -4.7284    3.8514   H         1 RES1   0.0000
   222 H131      5.8497   -3.9233    5.6697   H         1 RES1   0.0000
   223 H132      6.3490   -5.5446    5.2271   H         1 RES1   0.0000
   224 H133      5.6657   -4.4802    4.0052   H         1 RES1   0.0000
   225 H134      2.5478    2.1060    1.6974   H         1 RES1   0.0000
   226 H135      2.9151    1.0408    0.3549   H         1 RES1   0.0000
   227 H136      5.4660    1.4106    1.2712   H         1 RES1   0.0000
   228 H137      4.7354    2.7467    2.1196   H         1 RES1   0.0000
   229 H138      3.8664    3.7446    0.1613   H         1 RES1   0.0000
   230 H139      4.2016    2.3529   -0.8498   H         1 RES1   0.0000
   231 H140      6.6633    3.5626    0.2584   H         1 RES1   0.0000
   232 H141      5.7179    4.6774   -0.7012   H         1 RES1   0.0000
   233 H142      6.7132    1.9548   -1.6210   H         1 RES1   0.0000
   234 H143      7.4705    3.4916   -1.9820   H         1 RES1   0.0000
   235 H144      4.6492    2.8027   -2.8943   H         1 RES1   0.0000
   236 H145      6.0803    2.2407   -3.7476   H         1 RES1   0.0000
   237 H146      6.8227    4.5921   -4.0767   H         1 RES1   0.0000
   238 H147      5.2765    5.1463   -3.4332   H         1 RES1   0.0000
   239 H148      5.6122    3.2715   -5.8379   H         1 RES1   0.0000
   240 H149      5.2988    4.9993   -5.9363   H         1 RES1   0.0000
   241 H150      4.0786    3.9253   -5.2560   H         1 RES1   0.0000
   242 C79       9.5273    1.6591    3.0876   C.3       1 RES1   0.0000
   243 C80       8.4186    1.4753    2.0524   C.3       1 RES1   0.0000
   244 C81       8.4118    0.1284    1.3007   C.3       1 RES1   0.0000
   245 C82       7.8098    0.3340   -0.0961   C.3       1 RES1   0.0000
   246 C83       7.3318   -0.8723   -0.9295   C.3       1 RES1   0.0000
   247 C84       5.9213   -1.4344   -0.6536   C.3       1 RES1   0.0000
   248 C85       4.7458   -0.4323   -0.7185   C.3       1 RES1   0.0000
   249 C86       4.0509   -0.2431   -2.0589   C.3       1 RES1   0.0000
   250 P5        2.3939    0.6368   -2.2528   P.3       1 RES1   0.0000
   251 O7        1.3003   -0.0981   -1.5539   O.2       1 RES1   0.0000
   252 C87       2.1473    0.2606   -4.0402   C.3       1 RES1   0.0000
   253 C88       3.1944    0.5892   -5.1045   C.3       1 RES1   0.0000
   254 C89       3.1587   -0.4190   -6.2740   C.3       1 RES1   0.0000
   255 C90       2.6799    0.1219   -7.6206   C.3       1 RES1   0.0000
   256 C91       1.1863    0.4384   -7.7272   C.3       1 RES1   0.0000
   257 C92       0.7064    1.7544   -7.1093   C.3       1 RES1   0.0000
   258 C93       1.3343    2.9811   -7.7656   C.3       1 RES1   0.0000
   259 C94       0.8610    4.2759   -7.1230   C.3       1 RES1   0.0000
   260 C95       1.9171    2.4792   -2.2523   C.3       1 RES1   0.0000
   261 C96       1.7119    3.4390   -1.1253   C.ar      1 RES1   0.0000
   262 C97       2.0302    4.7794   -1.2936   C.ar      1 RES1   0.0000
   263 C98       1.7575    5.6981   -0.2972   C.ar      1 RES1   0.0000
   264 C99       1.1672    5.2623    0.8762   C.ar      1 RES1   0.0000
   265 C100      0.7931    3.9364    1.0120   C.ar      1 RES1   0.0000
   266 C101      0.2295    3.4286    2.2915   C.3       1 RES1   0.0000
   267 P6       -1.4771    2.6457    2.6091   P.3       1 RES1   0.0000
   268 O8       -1.3791    1.1899    2.2878   O.2       1 RES1   0.0000
   269 C102     -3.0041    3.3569    1.8291   C.3       1 RES1   0.0000
   270 C103     -4.2406    3.0936    2.6940   C.3       1 RES1   0.0000
   271 C104     -5.5563    3.0006    1.9017   C.3       1 RES1   0.0000
   272 C105     -5.7666    4.0551    0.8124   C.3       1 RES1   0.0000
   273 C106     -7.2459    4.2672    0.4647   C.3       1 RES1   0.0000
   274 C107     -8.0552    3.0039    0.1524   C.3       1 RES1   0.0000
   275 C108     -7.5523    2.1314   -0.9988   C.3       1 RES1   0.0000
   276 C109     -7.4585    2.8567   -2.3346   C.3       1 RES1   0.0000
   277 C110     -1.5505    2.9557    4.4258   C.3       1 RES1   0.0000
   278 C111     -0.7265    1.8909    5.1599   C.3       1 RES1   0.0000
   279 C112      0.3003    2.4655    6.1452   C.3       1 RES1   0.0000
   280 C113      1.5428    1.5740    6.2669   C.3       1 RES1   0.0000
   281 C114      1.5392    0.5279    7.3853   C.3       1 RES1   0.0000
   282 C115      0.5748   -0.6503    7.2003   C.3       1 RES1   0.0000
   283 C116      1.0555   -1.7391    6.2328   C.3       1 RES1   0.0000
   284 C117      2.1759   -2.6022    6.8044   C.3       1 RES1   0.0000
   285 N3        1.0414    3.0695   -0.0043   N.ar      1 RES1   0.0000
   286 O9        0.6042    1.8585    0.1278   O.co2     1 RES1   0.0000
   287 H151      9.3435    2.5713    3.6525   H         1 RES1   0.0000
   288 H152     10.5014    1.7564    2.6162   H         1 RES1   0.0000
   289 H153      9.5800    0.8332    3.7905   H         1 RES1   0.0000
   290 H154      8.5210    2.2814    1.3223   H         1 RES1   0.0000
   291 H155      7.4494    1.6175    2.5434   H         1 RES1   0.0000
   292 H156      7.8364   -0.6045    1.8644   H         1 RES1   0.0000
   293 H157      9.4285   -0.2491    1.2053   H         1 RES1   0.0000
   294 H158      8.5712    0.8420   -0.6914   H         1 RES1   0.0000
   295 H159      6.9828    1.0312    0.0231   H         1 RES1   0.0000
   296 H160      8.0353   -1.6975   -0.8068   H         1 RES1   0.0000
   297 H161      7.3810   -0.5823   -1.9831   H         1 RES1   0.0000
   298 H162      5.9188   -1.8715    0.3484   H         1 RES1   0.0000
   299 H163      5.7554   -2.2612   -1.3479   H         1 RES1   0.0000
   300 H164      5.1319    0.5230   -0.4012   H         1 RES1   0.0000
   301 H165      3.9910   -0.7527   -0.0035   H         1 RES1   0.0000
   302 H166      3.7307   -1.2176   -2.4503   H         1 RES1   0.0000
   303 H167      4.7289    0.1923   -2.7876   H         1 RES1   0.0000
   304 H168      1.1658    0.6671   -4.2991   H         1 RES1   0.0000
   305 H169      2.0317   -0.8279   -3.9885   H         1 RES1   0.0000
   306 H170      4.1875    0.5601   -4.6565   H         1 RES1   0.0000
   307 H171      3.0523    1.6005   -5.4830   H         1 RES1   0.0000
   308 H172      2.5450   -1.2822   -6.0041   H         1 RES1   0.0000
   309 H173      4.1728   -0.7929   -6.4196   H         1 RES1   0.0000
   310 H174      2.8924   -0.6590   -8.3516   H         1 RES1   0.0000
   311 H175      3.2836    0.9852   -7.8965   H         1 RES1   0.0000
   312 H176      0.6252   -0.3915   -7.2868   H         1 RES1   0.0000
   313 H177      0.9366    0.4742   -8.7885   H         1 RES1   0.0000
   314 H178      0.8945    1.7763   -6.0340   H         1 RES1   0.0000
   315 H179     -0.3787    1.8076   -7.2390   H         1 RES1   0.0000
   316 H180      1.0767    2.9805   -8.8236   H         1 RES1   0.0000
   317 H181      2.4208    2.9223   -7.6985   H         1 RES1   0.0000
   318 H182     -0.2189    4.3694   -7.1948   H         1 RES1   0.0000
   319 H183      1.3085    5.1289   -7.6207   H         1 RES1   0.0000
   320 H184      1.1405    4.3048   -6.0713   H         1 RES1   0.0000
   321 H185      0.9221    2.2896   -2.6793   H         1 RES1   0.0000
   322 H186      2.5383    2.9625   -3.0042   H         1 RES1   0.0000
   323 H187      2.5053    5.0892   -2.2102   H         1 RES1   0.0000
   324 H188      2.0144    6.7345   -0.4132   H         1 RES1   0.0000
   325 H189      0.9784    5.9508    1.6811   H         1 RES1   0.0000
   326 H190      0.3271    4.2283    3.0255   H         1 RES1   0.0000
   327 H191      0.8236    2.5672    2.6373   H         1 RES1   0.0000
   328 H192     -3.1177    2.8201    0.8881   H         1 RES1   0.0000
   329 H193     -2.8996    4.4186    1.6397   H         1 RES1   0.0000
   330 H194     -4.3347    3.8777    3.4448   H         1 RES1   0.0000
   331 H195     -4.1216    2.1424    3.2203   H         1 RES1   0.0000
   332 H196     -6.3736    3.0893    2.6206   H         1 RES1   0.0000
   333 H197     -5.6300    2.0117    1.4440   H         1 RES1   0.0000
   334 H198     -5.2228    3.7707   -0.0934   H         1 RES1   0.0000
   335 H199     -5.3837    5.0225    1.1430   H         1 RES1   0.0000
   336 H200     -7.3072    4.9593   -0.3786   H         1 RES1   0.0000
   337 H201     -7.7291    4.7645    1.3102   H         1 RES1   0.0000
   338 H202     -9.0710    3.3276   -0.0756   H         1 RES1   0.0000
   339 H203     -8.1088    2.3827    1.0488   H         1 RES1   0.0000
   340 H204     -8.2497    1.2989   -1.1083   H         1 RES1   0.0000
   341 H205     -6.5806    1.7030   -0.7388   H         1 RES1   0.0000
   342 H206     -8.4244    3.2685   -2.6130   H         1 RES1   0.0000
   343 H207     -7.1558    2.1643   -3.1188   H         1 RES1   0.0000
   344 H208     -6.7412    3.6730   -2.2914   H         1 RES1   0.0000
   345 H209     -2.5832    2.9553    4.7700   H         1 RES1   0.0000
   346 H210     -1.1733    3.9600    4.6314   H         1 RES1   0.0000
   347 H211     -0.1990    1.2947    4.4104   H         1 RES1   0.0000
   348 H212     -1.4016    1.2179    5.6840   H         1 RES1   0.0000
   349 H213     -0.1505    2.6223    7.1259   H         1 RES1   0.0000
   350 H214      0.6283    3.4455    5.7839   H         1 RES1   0.0000
   351 H215      2.4117    2.2150    6.4326   H         1 RES1   0.0000
   352 H216      1.6593    1.0831    5.3045   H         1 RES1   0.0000
   353 H217      1.3152    1.0302    8.3277   H         1 RES1   0.0000
   354 H218      2.5544    0.1382    7.4837   H         1 RES1   0.0000
   355 H219     -0.3869   -0.2725    6.8508   H         1 RES1   0.0000
   356 H220      0.4090   -1.1148    8.1750   H         1 RES1   0.0000
   357 H221      1.3569   -1.2868    5.2831   H         1 RES1   0.0000
   358 H222      0.2104   -2.3963    6.0136   H         1 RES1   0.0000
   359 H223      3.0132   -2.0043    7.1504   H         1 RES1   0.0000
   360 H224      2.5445   -3.2980    6.0543   H         1 RES1   0.0000
   361 H225      1.8109   -3.1846    7.6468   H         1 RES1   0.0000
@<TRIPOS>BOND
     1     1    11    1
     2     1    28    1
     3     1    46    1
     4     1   131    1
     5     1   148    1
     6     1   166    1
     7     1   251    1
     8     1   268    1
     9     1   286    1
    10     2     3    1
    11     2    47    1
    12     2    48    1
    13     2    49    1
    14     3     4    1
    15     3    50    1
    16     3    51    1
    17     4     5    1
    18     4    52    1
    19     4    53    1
    20     5     6    1
    21     5    54    1
    22     5    55    1
    23     6     7    1
    24     6    56    1
    25     6    57    1
    26     7     8    1
    27     7    58    1
    28     7    59    1
    29     8     9    1
    30     8    60    1
    31     8    61    1
    32     9    10    1
    33     9    62    1
    34     9    63    1
    35    10    11    2
    36    10    12    1
    37    10    20    1
    38    12    13    1
    39    12    64    1
    40    12    65    1
    41    13    14    1
    42    13    66    1
    43    13    67    1
    44    14    15    1
    45    14    68    1
    46    14    69    1
    47    15    16    1
    48    15    70    1
    49    15    71    1
    50    16    17    1
    51    16    72    1
    52    16    73    1
    53    17    18    1
    54    17    74    1
    55    17    75    1
    56    18    19    1
    57    18    76    1
    58    18    77    1
    59    19    78    1
    60    19    79    1
    61    19    80    1
    62    20    21    1
    63    20    81    1
    64    20    82    1
    65    21    22    1
    66    21    45    2
    67    22    23    2
    68    22    83    1
    69    23    24    1
    70    23    84    1
    71    24    25    2
    72    24    85    1
    73    25    26    1
    74    25    45    1
    75    26    27    1
    76    26    86    1
    77    26    87    1
    78    27    28    2
    79    27    29    1
    80    27    37    1
    81    29    30    1
    82    29    88    1
    83    29    89    1
    84    30    31    1
    85    30    90    1
    86    30    91    1
    87    31    32    1
    88    31    92    1
    89    31    93    1
    90    32    33    1
    91    32    94    1
    92    32    95    1
    93    33    34    1
    94    33    96    1
    95    33    97    1
    96    34    35    1
    97    34    98    1
    98    34    99    1
    99    35    36    1
   100    35   100    1
   101    35   101    1
   102    36   102    1
   103    36   103    1
   104    36   104    1
   105    37    38    1
   106    37   105    1
   107    37   106    1
   108    38    39    1
   109    38   107    1
   110    38   108    1
   111    39    40    1
   112    39   109    1
   113    39   110    1
   114    40    41    1
   115    40   111    1
   116    40   112    1
   117    41    42    1
   118    41   113    1
   119    41   114    1
   120    42    43    1
   121    42   115    1
   122    42   116    1
   123    43    44    1
   124    43   117    1
   125    43   118    1
   126    44   119    1
   127    44   120    1
   128    44   121    1
   129    45    46    1
   130   122   123    1
   131   122   167    1
   132   122   168    1
   133   122   169    1
   134   123   124    1
   135   123   170    1
   136   123   171    1
   137   124   125    1
   138   124   172    1
   139   124   173    1
   140   125   126    1
   141   125   174    1
   142   125   175    1
   143   126   127    1
   144   126   176    1
   145   126   177    1
   146   127   128    1
   147   127   178    1
   148   127   179    1
   149   128   129    1
   150   128   180    1
   151   128   181    1
   152   129   130    1
   153   129   182    1
   154   129   183    1
   155   130   131    2
   156   130   132    1
   157   130   140    1
   158   132   133    1
   159   132   184    1
   160   132   185    1
   161   133   134    1
   162   133   186    1
   163   133   187    1
   164   134   135    1
   165   134   188    1
   166   134   189    1
   167   135   136    1
   168   135   190    1
   169   135   191    1
   170   136   137    1
   171   136   192    1
   172   136   193    1
   173   137   138    1
   174   137   194    1
   175   137   195    1
   176   138   139    1
   177   138   196    1
   178   138   197    1
   179   139   198    1
   180   139   199    1
   181   139   200    1
   182   140   141    1
   183   140   201    1
   184   140   202    1
   185   141   142    1
   186   141   165    2
   187   142   143    2
   188   142   203    1
   189   143   144    1
   190   143   204    1
   191   144   145    2
   192   144   205    1
   193   145   146    1
   194   145   165    1
   195   146   147    1
   196   146   206    1
   197   146   207    1
   198   147   148    2
   199   147   149    1
   200   147   157    1
   201   149   150    1
   202   149   208    1
   203   149   209    1
   204   150   151    1
   205   150   210    1
   206   150   211    1
   207   151   152    1
   208   151   212    1
   209   151   213    1
   210   152   153    1
   211   152   214    1
   212   152   215    1
   213   153   154    1
   214   153   216    1
   215   153   217    1
   216   154   155    1
   217   154   218    1
   218   154   219    1
   219   155   156    1
   220   155   220    1
   221   155   221    1
   222   156   222    1
   223   156   223    1
   224   156   224    1
   225   157   158    1
   226   157   225    1
   227   157   226    1
   228   158   159    1
   229   158   227    1
   230   158   228    1
   231   159   160    1
   232   159   229    1
   233   159   230    1
   234   160   161    1
   235   160   231    1
   236   160   232    1
   237   161   162    1
   238   161   233    1
   239   161   234    1
   240   162   163    1
   241   162   235    1
   242   162   236    1
   243   163   164    1
   244   163   237    1
   245   163   238    1
   246   164   239    1
   247   164   240    1
   248   164   241    1
   249   165   166    1
   250   242   243    1
   251   242   287    1
   252   242   288    1
   253   242   289    1
   254   243   244    1
   255   243   290    1
   256   243   291    1
   257   244   245    1
   258   244   292    1
   259   244   293    1
   260   245   246    1
   261   245   294    1
   262   245   295    1
   263   246   247    1
   264   246   296    1
   265   246   297    1
   266   247   248    1
   267   247   298    1
   268   247   299    1
   269   248   249    1
   270   248   300    1
   271   248   301    1
   272   249   250    1
   273   249   302    1
   274   249   303    1
   275   250   251    2
   276   250   252    1
   277   250   260    1
   278   252   253    1
   279   252   304    1
   280   252   305    1
   281   253   254    1
   282   253   306    1
   283   253   307    1
   284   254   255    1
   285   254   308    1
   286   254   309    1
   287   255   256    1
   288   255   310    1
   289   255   311    1
   290   256   257    1
   291   256   312    1
   292   256   313    1
   293   257   258    1
   294   257   314    1
   295   257   315    1
   296   258   259    1
   297   258   316    1
   298   258   317    1
   299   259   318    1
   300   259   319    1
   301   259   320    1
   302   260   261    1
   303   260   321    1
   304   260   322    1
   305   261   262    1
   306   261   285    2
   307   262   263    2
   308   262   323    1
   309   263   264    1
   310   263   324    1
   311   264   265    2
   312   264   325    1
   313   265   266    1
   314   265   285    1
   315   266   267    1
   316   266   326    1
   317   266   327    1
   318   267   268    2
   319   267   269    1
   320   267   277    1
   321   269   270    1
   322   269   328    1
   323   269   329    1
   324   270   271    1
   325   270   330    1
   326   270   331    1
   327   271   272    1
   328   271   332    1
   329   271   333    1
   330   272   273    1
   331   272   334    1
   332   272   335    1
   333   273   274    1
   334   273   336    1
   335   273   337    1
   336   274   275    1
   337   274   338    1
   338   274   339    1
   339   275   276    1
   340   275   340    1
   341   275   341    1
   342   276   342    1
   343   276   343    1
   344   276   344    1
   345   277   278    1
   346   277   345    1
   347   277   346    1
   348   278   279    1
   349   278   347    1
   350   278   348    1
   351   279   280    1
   352   279   349    1
   353   279   350    1
   354   280   281    1
   355   280   351    1
   356   280   352    1
   357   281   282    1
   358   281   353    1
   359   281   354    1
   360   282   283    1
   361   282   355    1
   362   282   356    1
   363   283   284    1
   364   283   357    1
   365   283   358    1
   366   284   359    1
   367   284   360    1
   368   284   361    1
   369   285   286    1
@<TRIPOS>SUBSTRUCTURE
     1 RES1      361 GROUP             0 ****  ****    0  
