@<TRIPOS>MOLECULE
tri_tri_mer_capped_0_nunpairedes_0_charge_3 Charge: 3 Unpaired_Electrons: 3 XTB_Unpaired_Electrons: 0 XTB_Charge: 3
   344   347     1     0     0
SMALL
NoCharges
****
Generated from Architector

@<TRIPOS>ATOM
     1 Nd1      -0.4072    0.0045    0.2567   Nd        1 RES1   0.0000
     2 C1        3.7638    4.1398    7.5387   C.3       1 RES1   0.0000
     3 C2        5.2656    4.2914    7.2983   C.3       1 RES1   0.0000
     4 C3        5.6505    4.2091    5.8190   C.3       1 RES1   0.0000
     5 C4        5.0669    5.3488    4.9855   C.3       1 RES1   0.0000
     6 C5        5.5961    5.3853    3.5519   C.3       1 RES1   0.0000
     7 C6        5.2677    4.1648    2.6839   C.3       1 RES1   0.0000
     8 C7        3.7964    4.0547    2.2371   C.3       1 RES1   0.0000
     9 C8        2.9753    2.9982    3.0083   C.3       1 RES1   0.0000
    10 N1        1.5803    3.3974    3.1737   N.am      1 RES1   0.0000
    11 C9        1.4285    4.4805    4.1271   C.3       1 RES1   0.0000
    12 C10       0.5896    2.6748    2.6463   C.2       1 RES1   0.0000
    13 O1        0.7696    1.5880    2.0697   O.2       1 RES1   0.0000
    14 C11      -0.8244    3.2602    2.7554   C.3       1 RES1   0.0000
    15 C12      -1.5980    2.6164    3.9279   C.3       1 RES1   0.0000
    16 C13      -1.4634    1.0989    4.0959   C.3       1 RES1   0.0000
    17 C14      -1.1401    0.7206    5.5431   C.3       1 RES1   0.0000
    18 C15      -2.2037    1.2069    6.5316   C.3       1 RES1   0.0000
    19 C16      -1.9864    0.6452    7.9382   C.3       1 RES1   0.0000
    20 C17      -2.4801   -0.7894    8.0824   C.3       1 RES1   0.0000
    21 C18      -1.4214    3.2342    1.3480   C.2       1 RES1   0.0000
    22 O2       -1.3935    2.2288    0.6188   O.2       1 RES1   0.0000
    23 N2       -1.8415    4.4225    0.8836   N.am      1 RES1   0.0000
    24 C19      -2.2338    5.5416    1.7149   C.3       1 RES1   0.0000
    25 C20      -1.6814    4.7434   -0.5292   C.3       1 RES1   0.0000
    26 C21      -2.7442    4.2176   -1.4887   C.3       1 RES1   0.0000
    27 C22      -4.1701    4.7314   -1.2846   C.3       1 RES1   0.0000
    28 C23      -5.0007    4.0351   -0.2057   C.3       1 RES1   0.0000
    29 C24      -5.0327    2.5102   -0.3146   C.3       1 RES1   0.0000
    30 C25      -5.3853    1.9891   -1.7063   C.3       1 RES1   0.0000
    31 C26      -5.9509    0.5712   -1.6865   C.3       1 RES1   0.0000
    32 C27      -5.1470   -0.4066   -0.8371   C.3       1 RES1   0.0000
    33 H1        3.5598    4.0787    8.6060   H         1 RES1   0.0000
    34 H2        3.3915    3.2269    7.0687   H         1 RES1   0.0000
    35 H3        3.2140    4.9937    7.1443   H         1 RES1   0.0000
    36 H4        5.7878    3.4970    7.8378   H         1 RES1   0.0000
    37 H5        5.6006    5.2448    7.7118   H         1 RES1   0.0000
    38 H6        5.3147    3.2439    5.4283   H         1 RES1   0.0000
    39 H7        6.7393    4.2363    5.7431   H         1 RES1   0.0000
    40 H8        5.3291    6.2939    5.4666   H         1 RES1   0.0000
    41 H9        3.9802    5.2783    4.9788   H         1 RES1   0.0000
    42 H10       6.6820    5.4854    3.5977   H         1 RES1   0.0000
    43 H11       5.2128    6.2799    3.0583   H         1 RES1   0.0000
    44 H12       5.5633    3.2618    3.2140   H         1 RES1   0.0000
    45 H13       5.8919    4.2441    1.7913   H         1 RES1   0.0000
    46 H14       3.7561    3.7946    1.1775   H         1 RES1   0.0000
    47 H15       3.3446    5.0438    2.3252   H         1 RES1   0.0000
    48 H16       2.9816    2.0547    2.4590   H         1 RES1   0.0000
    49 H17       3.4009    2.8356    4.0024   H         1 RES1   0.0000
    50 H18       1.5160    4.1002    5.1482   H         1 RES1   0.0000
    51 H19       0.4915    5.0176    4.0514   H         1 RES1   0.0000
    52 H20       2.2269    5.1997    3.9699   H         1 RES1   0.0000
    53 H21      -0.7367    4.3139    2.9973   H         1 RES1   0.0000
    54 H22      -2.6480    2.8956    3.8382   H         1 RES1   0.0000
    55 H23      -1.2102    3.0972    4.8262   H         1 RES1   0.0000
    56 H24      -0.6828    0.7073    3.4360   H         1 RES1   0.0000
    57 H25      -2.3843    0.5991    3.8096   H         1 RES1   0.0000
    58 H26      -0.1724    1.1470    5.8188   H         1 RES1   0.0000
    59 H27      -1.0555   -0.3687    5.6039   H         1 RES1   0.0000
    60 H28      -3.1933    0.9113    6.1712   H         1 RES1   0.0000
    61 H29      -2.1850    2.2979    6.5853   H         1 RES1   0.0000
    62 H30      -2.5215    1.2701    8.6520   H         1 RES1   0.0000
    63 H31      -0.9230    0.6974    8.1784   H         1 RES1   0.0000
    64 H32      -3.5629   -0.8368    7.9687   H         1 RES1   0.0000
    65 H33      -2.2229   -1.1749    9.0655   H         1 RES1   0.0000
    66 H34      -2.0267   -1.4403    7.3348   H         1 RES1   0.0000
    67 H35      -2.5754    5.2113    2.6912   H         1 RES1   0.0000
    68 H36      -3.0715    6.0386    1.2282   H         1 RES1   0.0000
    69 H37      -1.4240    6.2687    1.8343   H         1 RES1   0.0000
    70 H38      -0.7155    4.3303   -0.8405   H         1 RES1   0.0000
    71 H39      -1.6398    5.8317   -0.5943   H         1 RES1   0.0000
    72 H40      -2.7269    3.1292   -1.4833   H         1 RES1   0.0000
    73 H41      -2.4257    4.5536   -2.4755   H         1 RES1   0.0000
    74 H42      -4.6951    4.6080   -2.2340   H         1 RES1   0.0000
    75 H43      -4.1388    5.8015   -1.0721   H         1 RES1   0.0000
    76 H44      -6.0237    4.4079   -0.2943   H         1 RES1   0.0000
    77 H45      -4.6517    4.3115    0.7924   H         1 RES1   0.0000
    78 H46      -5.7892    2.1601    0.3874   H         1 RES1   0.0000
    79 H47      -4.0629    2.1133   -0.0095   H         1 RES1   0.0000
    80 H48      -4.4977    2.0158   -2.3426   H         1 RES1   0.0000
    81 H49      -6.1350    2.6406   -2.1634   H         1 RES1   0.0000
    82 H50      -6.0180    0.2112   -2.7179   H         1 RES1   0.0000
    83 H51      -6.9659    0.5875   -1.2875   H         1 RES1   0.0000
    84 H52      -4.1164   -0.4943   -1.1734   H         1 RES1   0.0000
    85 H53      -5.6219   -1.3878   -0.8785   H         1 RES1   0.0000
    86 H54      -5.1313   -0.0797    0.1960   H         1 RES1   0.0000
    87 C28       2.8787   -1.9368    2.3641   C.3       1 RES1   0.0000
    88 C29       3.3416   -2.2976    3.7721   C.3       1 RES1   0.0000
    89 C30       3.4077   -1.0840    4.6996   C.3       1 RES1   0.0000
    90 C31       3.2874   -1.4518    6.1815   C.3       1 RES1   0.0000
    91 C32       1.8494   -1.7456    6.6315   C.3       1 RES1   0.0000
    92 C33       1.4192   -3.2191    6.5196   C.3       1 RES1   0.0000
    93 C34       0.0389   -3.4439    5.8797   C.3       1 RES1   0.0000
    94 C35       0.0298   -3.2390    4.3575   C.3       1 RES1   0.0000
    95 N3       -1.3014   -3.2182    3.7289   N.am      1 RES1   0.0000
    96 C36      -2.3026   -4.1097    4.2940   C.3       1 RES1   0.0000
    97 C37      -1.4925   -2.5226    2.6049   C.2       1 RES1   0.0000
    98 O3       -0.5780   -1.8769    2.0426   O.2       1 RES1   0.0000
    99 C38      -2.9037   -2.5187    2.0013   C.3       1 RES1   0.0000
   100 C39      -2.8727   -3.1173    0.5728   C.3       1 RES1   0.0000
   101 C40      -3.5791   -4.4741    0.4492   C.3       1 RES1   0.0000
   102 C41      -2.6745   -5.7027    0.5883   C.3       1 RES1   0.0000
   103 C42      -1.6978   -5.9090   -0.5754   C.3       1 RES1   0.0000
   104 C43      -2.3847   -6.1790   -1.9124   C.3       1 RES1   0.0000
   105 C44      -1.3867   -6.3970   -3.0451   C.3       1 RES1   0.0000
   106 C45      -3.3177   -1.0514    1.9158   C.2       1 RES1   0.0000
   107 O4       -2.5783   -0.2787    1.2678   O.2       1 RES1   0.0000
   108 N4       -4.3971   -0.5948    2.5554   N.am      1 RES1   0.0000
   109 C46      -4.5421    0.8433    2.6934   C.3       1 RES1   0.0000
   110 C47      -5.4948   -1.3549    3.1423   C.3       1 RES1   0.0000
   111 C48      -6.7983   -1.4180    2.3141   C.3       1 RES1   0.0000
   112 C49      -7.6757   -0.1581    2.3152   C.3       1 RES1   0.0000
   113 C50      -9.1247   -0.4305    1.8866   C.3       1 RES1   0.0000
   114 C51      -9.2392   -0.7254    0.3801   C.3       1 RES1   0.0000
   115 C52     -10.2391    0.1801   -0.3489   C.3       1 RES1   0.0000
   116 C53      -9.9162    0.3788   -1.8425   C.3       1 RES1   0.0000
   117 C54      -9.5692    1.8349   -2.1310   C.3       1 RES1   0.0000
   118 H55       2.5871   -2.8350    1.8291   H         1 RES1   0.0000
   119 H56       3.6773   -1.4570    1.8058   H         1 RES1   0.0000
   120 H57       2.0192   -1.2564    2.3790   H         1 RES1   0.0000
   121 H58       4.3184   -2.7804    3.7149   H         1 RES1   0.0000
   122 H59       2.6540   -3.0274    4.1882   H         1 RES1   0.0000
   123 H60       2.6038   -0.3883    4.4358   H         1 RES1   0.0000
   124 H61       4.3489   -0.5553    4.5324   H         1 RES1   0.0000
   125 H62       3.6611   -0.6121    6.7676   H         1 RES1   0.0000
   126 H63       3.9259   -2.3088    6.4013   H         1 RES1   0.0000
   127 H64       1.1750   -1.1218    6.0446   H         1 RES1   0.0000
   128 H65       1.7491   -1.4380    7.6743   H         1 RES1   0.0000
   129 H66       1.3704   -3.6423    7.5231   H         1 RES1   0.0000
   130 H67       2.1607   -3.8040    5.9759   H         1 RES1   0.0000
   131 H68      -0.6790   -2.7673    6.3466   H         1 RES1   0.0000
   132 H69      -0.2499   -4.4663    6.1342   H         1 RES1   0.0000
   133 H70       0.6075   -4.0364    3.8810   H         1 RES1   0.0000
   134 H71       0.4990   -2.2872    4.1157   H         1 RES1   0.0000
   135 H72      -1.8155   -4.7740    4.9985   H         1 RES1   0.0000
   136 H73      -2.7662   -4.7354    3.5335   H         1 RES1   0.0000
   137 H74      -3.0729   -3.5637    4.8415   H         1 RES1   0.0000
   138 H75      -3.5924   -3.0841    2.6160   H         1 RES1   0.0000
   139 H76      -1.8360   -3.1931    0.2246   H         1 RES1   0.0000
   140 H77      -3.3636   -2.3974   -0.0811   H         1 RES1   0.0000
   141 H78      -4.0741   -4.5363   -0.5187   H         1 RES1   0.0000
   142 H79      -4.3767   -4.5288    1.1905   H         1 RES1   0.0000
   143 H80      -3.3142   -6.5847    0.6574   H         1 RES1   0.0000
   144 H81      -2.1039   -5.6442    1.5199   H         1 RES1   0.0000
   145 H82      -1.0610   -6.7624   -0.3323   H         1 RES1   0.0000
   146 H83      -1.0495   -5.0327   -0.6707   H         1 RES1   0.0000
   147 H84      -3.0162   -5.3317   -2.1793   H         1 RES1   0.0000
   148 H85      -3.0250   -7.0587   -1.8221   H         1 RES1   0.0000
   149 H86      -0.7419   -5.5262   -3.1698   H         1 RES1   0.0000
   150 H87      -1.9127   -6.5620   -3.9826   H         1 RES1   0.0000
   151 H88      -0.7570   -7.2625   -2.8566   H         1 RES1   0.0000
   152 H89      -3.7299    1.3322    2.1581   H         1 RES1   0.0000
   153 H90      -4.5065    1.0973    3.7541   H         1 RES1   0.0000
   154 H91      -5.4939    1.1805    2.2981   H         1 RES1   0.0000
   155 H92      -5.7276   -0.9102    4.1118   H         1 RES1   0.0000
   156 H93      -5.1658   -2.3747    3.3275   H         1 RES1   0.0000
   157 H94      -7.3921   -2.2226    2.7497   H         1 RES1   0.0000
   158 H95      -6.5749   -1.7072    1.2877   H         1 RES1   0.0000
   159 H96      -7.2763    0.5866    1.6213   H         1 RES1   0.0000
   160 H97      -7.6762    0.2833    3.3139   H         1 RES1   0.0000
   161 H98      -9.7133    0.4572    2.1263   H         1 RES1   0.0000
   162 H99      -9.5489   -1.2444    2.4759   H         1 RES1   0.0000
   163 H100     -8.2556   -0.5884   -0.0621   H         1 RES1   0.0000
   164 H101     -9.5170   -1.7661    0.2197   H         1 RES1   0.0000
   165 H102    -10.2427    1.1622    0.1312   H         1 RES1   0.0000
   166 H103    -11.2454   -0.2307   -0.2345   H         1 RES1   0.0000
   167 H104    -10.7726    0.0956   -2.4494   H         1 RES1   0.0000
   168 H105     -9.0921   -0.2719   -2.1429   H         1 RES1   0.0000
   169 H106    -10.4117    2.4711   -1.8707   H         1 RES1   0.0000
   170 H107     -9.3459    1.9925   -3.1821   H         1 RES1   0.0000
   171 H108     -8.7085    2.1539   -1.5439   H         1 RES1   0.0000
   172 C55       9.1128   -4.3431   -0.1954   C.3       1 RES1   0.0000
   173 C56      10.0531   -3.9261    0.9301   C.3       1 RES1   0.0000
   174 C57       9.4526   -4.1243    2.3225   C.3       1 RES1   0.0000
   175 C58       8.1047   -3.4318    2.5254   C.3       1 RES1   0.0000
   176 C59       8.1908   -1.9147    2.3743   C.3       1 RES1   0.0000
   177 C60       6.8113   -1.2609    2.3679   C.3       1 RES1   0.0000
   178 C61       6.8972    0.2502    2.1334   C.3       1 RES1   0.0000
   179 C62       5.6429    0.8428    1.5026   C.3       1 RES1   0.0000
   180 N5        5.3316    0.2660    0.1955   N.am      1 RES1   0.0000
   181 C63       6.4413    0.1090   -0.7221   C.3       1 RES1   0.0000
   182 C64       4.0492    0.1539   -0.1310   C.2       1 RES1   0.0000
   183 O5        3.1350    0.6174    0.5647   O.2       1 RES1   0.0000
   184 C65       3.6700   -0.6118   -1.4002   C.3       1 RES1   0.0000
   185 C66       3.0721    0.4015   -2.4113   C.3       1 RES1   0.0000
   186 C67       3.8563    0.5222   -3.7209   C.3       1 RES1   0.0000
   187 C68       3.0959    1.4199   -4.6972   C.3       1 RES1   0.0000
   188 C69       3.8095    1.7494   -6.0108   C.3       1 RES1   0.0000
   189 C70       3.8878    0.6142   -7.0392   C.3       1 RES1   0.0000
   190 C71       5.1482   -0.2355   -6.9198   C.3       1 RES1   0.0000
   191 C72       2.6179   -1.6201   -0.9261   C.2       1 RES1   0.0000
   192 O6        1.4750   -1.2084   -0.6296   O.2       1 RES1   0.0000
   193 N6        2.9536   -2.9083   -0.8380   N.am      1 RES1   0.0000
   194 C73       1.8789   -3.8591   -0.6058   C.3       1 RES1   0.0000
   195 C74       4.3289   -3.3764   -1.0364   C.3       1 RES1   0.0000
   196 C75       4.6394   -4.7891   -0.5459   C.3       1 RES1   0.0000
   197 C76       4.5743   -4.9392    0.9716   C.3       1 RES1   0.0000
   198 C77       4.8687   -6.3737    1.4086   C.3       1 RES1   0.0000
   199 C78       4.4251   -6.6560    2.8453   C.3       1 RES1   0.0000
   200 C79       2.9211   -6.5120    3.1009   C.3       1 RES1   0.0000
   201 C80       2.0507   -7.4261    2.2397   C.3       1 RES1   0.0000
   202 C81       0.5645   -7.1909    2.4880   C.3       1 RES1   0.0000
   203 H109      9.6371   -4.3441   -1.1476   H         1 RES1   0.0000
   204 H110      8.2685   -3.6599   -0.2772   H         1 RES1   0.0000
   205 H111      8.7265   -5.3444   -0.0182   H         1 RES1   0.0000
   206 H112     10.3437   -2.8839    0.7936   H         1 RES1   0.0000
   207 H113     10.9644   -4.5189    0.8665   H         1 RES1   0.0000
   208 H114     10.1582   -3.7476    3.0631   H         1 RES1   0.0000
   209 H115      9.3243   -5.1936    2.5040   H         1 RES1   0.0000
   210 H116      7.7311   -3.6718    3.5239   H         1 RES1   0.0000
   211 H117      7.3875   -3.8311    1.8044   H         1 RES1   0.0000
   212 H118      8.7018   -1.6719    1.4421   H         1 RES1   0.0000
   213 H119      8.7904   -1.5085    3.1889   H         1 RES1   0.0000
   214 H120      6.3126   -1.4653    3.3154   H         1 RES1   0.0000
   215 H121      6.2060   -1.7214    1.5815   H         1 RES1   0.0000
   216 H122      7.7642    0.4668    1.5097   H         1 RES1   0.0000
   217 H123      7.0490    0.7598    3.0843   H         1 RES1   0.0000
   218 H124      5.7549    1.9229    1.3881   H         1 RES1   0.0000
   219 H125      4.7761    0.6493    2.1358   H         1 RES1   0.0000
   220 H126      7.1190    0.9494   -0.5788   H         1 RES1   0.0000
   221 H127      6.1036    0.1323   -1.7526   H         1 RES1   0.0000
   222 H128      6.9875   -0.8149   -0.5356   H         1 RES1   0.0000
   223 H129      4.5234   -1.1079   -1.8501   H         1 RES1   0.0000
   224 H130      3.0405    1.3864   -1.9396   H         1 RES1   0.0000
   225 H131      2.0495    0.0951   -2.6436   H         1 RES1   0.0000
   226 H132      3.9888   -0.4686   -4.1476   H         1 RES1   0.0000
   227 H133      4.8414    0.9526   -3.5373   H         1 RES1   0.0000
   228 H134      2.9003    2.3677   -4.1906   H         1 RES1   0.0000
   229 H135      2.1360    0.9499   -4.9257   H         1 RES1   0.0000
   230 H136      4.8162    2.1093   -5.8018   H         1 RES1   0.0000
   231 H137      3.2641    2.5760   -6.4692   H         1 RES1   0.0000
   232 H138      3.8816    1.0502   -8.0408   H         1 RES1   0.0000
   233 H139      2.9986   -0.0184   -6.9640   H         1 RES1   0.0000
   234 H140      6.0271    0.3924   -7.0397   H         1 RES1   0.0000
   235 H141      5.1707   -0.9942   -7.6991   H         1 RES1   0.0000
   236 H142      5.2146   -0.7337   -5.9560   H         1 RES1   0.0000
   237 H143      1.4838   -4.2120   -1.5594   H         1 RES1   0.0000
   238 H144      1.0825   -3.3532   -0.0571   H         1 RES1   0.0000
   239 H145      2.2156   -4.7089   -0.0290   H         1 RES1   0.0000
   240 H146      4.9928   -2.6953   -0.4976   H         1 RES1   0.0000
   241 H147      4.5623   -3.3293   -2.1058   H         1 RES1   0.0000
   242 H148      5.6588   -5.0072   -0.8701   H         1 RES1   0.0000
   243 H149      3.9915   -5.5159   -1.0349   H         1 RES1   0.0000
   244 H150      3.5900   -4.6536    1.3360   H         1 RES1   0.0000
   245 H151      5.2886   -4.2599    1.4406   H         1 RES1   0.0000
   246 H152      5.9405   -6.5582    1.3335   H         1 RES1   0.0000
   247 H153      4.3772   -7.0717    0.7304   H         1 RES1   0.0000
   248 H154      4.9543   -5.9749    3.5152   H         1 RES1   0.0000
   249 H155      4.7245   -7.6714    3.1037   H         1 RES1   0.0000
   250 H156      2.6156   -5.4735    2.9415   H         1 RES1   0.0000
   251 H157      2.7339   -6.7386    4.1538   H         1 RES1   0.0000
   252 H158      2.2955   -8.4636    2.4621   H         1 RES1   0.0000
   253 H159      2.2569   -7.2572    1.1813   H         1 RES1   0.0000
   254 H160      0.3215   -7.3422    3.5373   H         1 RES1   0.0000
   255 H161     -0.0343   -7.8814    1.8990   H         1 RES1   0.0000
   256 H162      0.2858   -6.1736    2.2084   H         1 RES1   0.0000
   257 C82      -5.9469   -4.1784   -8.5026   C.3       1 RES1   0.0000
   258 C83      -7.0418   -5.1072   -7.9932   C.3       1 RES1   0.0000
   259 C84      -8.2508   -4.3653   -7.4169   C.3       1 RES1   0.0000
   260 C85      -7.9168   -3.3410   -6.3275   C.3       1 RES1   0.0000
   261 C86      -7.2055   -3.9484   -5.1082   C.3       1 RES1   0.0000
   262 C87      -6.0685   -3.0579   -4.6149   C.3       1 RES1   0.0000
   263 C88      -5.1888   -3.7384   -3.5650   C.3       1 RES1   0.0000
   264 C89      -4.1449   -2.7834   -2.9940   C.3       1 RES1   0.0000
   265 N7       -2.8796   -2.5959   -3.7139   N.am      1 RES1   0.0000
   266 C90      -2.7196   -3.0910   -5.0653   C.3       1 RES1   0.0000
   267 C91      -1.9445   -1.8879   -3.0709   C.2       1 RES1   0.0000
   268 O7       -2.0287   -1.5620   -1.8763   O.2       1 RES1   0.0000
   269 C92      -0.7097   -1.4906   -3.8965   C.3       1 RES1   0.0000
   270 C93       0.4119   -2.4776   -3.4944   C.3       1 RES1   0.0000
   271 C94       1.1717   -3.1582   -4.6556   C.3       1 RES1   0.0000
   272 C95       2.6572   -2.7758   -4.7249   C.3       1 RES1   0.0000
   273 C96       3.6104   -3.8856   -5.1971   C.3       1 RES1   0.0000
   274 C97       3.6379   -4.1667   -6.7034   C.3       1 RES1   0.0000
   275 C98       2.4992   -5.0368   -7.2213   C.3       1 RES1   0.0000
   276 C99      -0.4677   -0.0368   -3.5262   C.2       1 RES1   0.0000
   277 O8       -0.2486    0.2697   -2.3322   O.2       1 RES1   0.0000
   278 N8       -0.5595    0.9178   -4.4573   N.am      1 RES1   0.0000
   279 C100     -0.4964    2.3128   -4.0544   C.3       1 RES1   0.0000
   280 C101     -0.5989    0.7483   -5.9047   C.3       1 RES1   0.0000
   281 C102     -1.8108    1.3829   -6.5949   C.3       1 RES1   0.0000
   282 C103     -3.1742    0.8291   -6.1754   C.3       1 RES1   0.0000
   283 C104     -4.3237    1.6353   -6.8080   C.3       1 RES1   0.0000
   284 C105     -5.1229    2.4827   -5.8195   C.3       1 RES1   0.0000
   285 C106     -4.3359    3.5857   -5.1102   C.3       1 RES1   0.0000
   286 C107     -3.8574    4.7162   -6.0211   C.3       1 RES1   0.0000
   287 C108     -3.1292    5.7937   -5.2243   C.3       1 RES1   0.0000
   288 H163     -5.1719   -4.7482   -9.0089   H         1 RES1   0.0000
   289 H164     -5.4799   -3.6309   -7.6862   H         1 RES1   0.0000
   290 H165     -6.3563   -3.4597   -9.2075   H         1 RES1   0.0000
   291 H166     -6.6203   -5.7806   -7.2450   H         1 RES1   0.0000
   292 H167     -7.3889   -5.7305   -8.8176   H         1 RES1   0.0000
   293 H168     -8.9520   -5.1027   -7.0210   H         1 RES1   0.0000
   294 H169     -8.7537   -3.8390   -8.2312   H         1 RES1   0.0000
   295 H170     -8.8470   -2.8645   -6.0135   H         1 RES1   0.0000
   296 H171     -7.2927   -2.5586   -6.7653   H         1 RES1   0.0000
   297 H172     -6.8005   -4.9224   -5.3765   H         1 RES1   0.0000
   298 H173     -7.9194   -4.1166   -4.3007   H         1 RES1   0.0000
   299 H174     -6.4957   -2.1514   -4.1842   H         1 RES1   0.0000
   300 H175     -5.4576   -2.7571   -5.4658   H         1 RES1   0.0000
   301 H176     -4.7429   -4.6522   -3.9624   H         1 RES1   0.0000
   302 H177     -5.8254   -4.0396   -2.7300   H         1 RES1   0.0000
   303 H178     -3.8678   -3.0852   -1.9831   H         1 RES1   0.0000
   304 H179     -4.6048   -1.7947   -2.9383   H         1 RES1   0.0000
   305 H180     -3.5247   -3.7802   -5.2988   H         1 RES1   0.0000
   306 H181     -1.7880   -3.6458   -5.1725   H         1 RES1   0.0000
   307 H182     -2.7582   -2.2815   -5.7960   H         1 RES1   0.0000
   308 H183     -0.9256   -1.5972   -4.9530   H         1 RES1   0.0000
   309 H184      1.1106   -1.9423   -2.8531   H         1 RES1   0.0000
   310 H185     -0.0495   -3.2546   -2.8747   H         1 RES1   0.0000
   311 H186      0.7006   -2.9316   -5.6117   H         1 RES1   0.0000
   312 H187      1.1169   -4.2380   -4.5211   H         1 RES1   0.0000
   313 H188      2.9779   -2.4937   -3.7165   H         1 RES1   0.0000
   314 H189      2.7819   -1.9078   -5.3745   H         1 RES1   0.0000
   315 H190      3.3919   -4.8124   -4.6584   H         1 RES1   0.0000
   316 H191      4.6248   -3.5846   -4.9148   H         1 RES1   0.0000
   317 H192      4.5737   -4.6843   -6.9218   H         1 RES1   0.0000
   318 H193      3.6586   -3.2230   -7.2512   H         1 RES1   0.0000
   319 H194      2.4738   -5.9885   -6.6938   H         1 RES1   0.0000
   320 H195      2.6475   -5.2412   -8.2792   H         1 RES1   0.0000
   321 H196      1.5324   -4.5554   -7.1052   H         1 RES1   0.0000
   322 H197     -0.4286    2.3861   -2.9736   H         1 RES1   0.0000
   323 H198     -1.4069    2.8134   -4.3714   H         1 RES1   0.0000
   324 H199      0.3587    2.7968   -4.5226   H         1 RES1   0.0000
   325 H200     -0.5446   -0.3073   -6.1503   H         1 RES1   0.0000
   326 H201      0.3017    1.2255   -6.3028   H         1 RES1   0.0000
   327 H202     -1.6802    1.2046   -7.6644   H         1 RES1   0.0000
   328 H203     -1.8025    2.4628   -6.4498   H         1 RES1   0.0000
   329 H204     -3.2681    0.8429   -5.0868   H         1 RES1   0.0000
   330 H205     -3.2431   -0.2120   -6.4992   H         1 RES1   0.0000
   331 H206     -5.0262    0.9548   -7.2874   H         1 RES1   0.0000
   332 H207     -3.9296    2.2797   -7.5932   H         1 RES1   0.0000
   333 H208     -5.5575    1.8287   -5.0592   H         1 RES1   0.0000
   334 H209     -5.9510    2.9494   -6.3536   H         1 RES1   0.0000
   335 H210     -3.4777    3.1495   -4.5874   H         1 RES1   0.0000
   336 H211     -4.9920    4.0220   -4.3503   H         1 RES1   0.0000
   337 H212     -4.7193    5.1547   -6.5255   H         1 RES1   0.0000
   338 H213     -3.1902    4.3320   -6.7936   H         1 RES1   0.0000
   339 H214     -3.7802    6.1968   -4.4519   H         1 RES1   0.0000
   340 H215     -2.8228    6.6101   -5.8710   H         1 RES1   0.0000
   341 H216     -2.2352    5.3892   -4.7478   H         1 RES1   0.0000
   342 O9        0.9985    1.8381   -0.5334   O.3       1 RES1   0.0000
   343 H217      1.8007    1.4479   -0.0966   H         1 RES1   0.0000
   344 H218      1.0061    1.5323   -1.4561   H         1 RES1   0.0000
@<TRIPOS>BOND
     1     1    13    1
     2     1    22    1
     3     1    98    1
     4     1   107    1
     5     1   183    1
     6     1   192    1
     7     1   268    1
     8     1   277    1
     9     1   342    1
    10     2     3    1
    11     2    33    1
    12     2    34    1
    13     2    35    1
    14     3     4    1
    15     3    36    1
    16     3    37    1
    17     4     5    1
    18     4    38    1
    19     4    39    1
    20     5     6    1
    21     5    40    1
    22     5    41    1
    23     6     7    1
    24     6    42    1
    25     6    43    1
    26     7     8    1
    27     7    44    1
    28     7    45    1
    29     8     9    1
    30     8    46    1
    31     8    47    1
    32     9    10    1
    33     9    48    1
    34     9    49    1
    35    10    11    1
    36    10    12    1
    37    11    50    1
    38    11    51    1
    39    11    52    1
    40    12    13    2
    41    12    14    1
    42    14    15    1
    43    14    21    1
    44    14    53    1
    45    15    16    1
    46    15    54    1
    47    15    55    1
    48    16    17    1
    49    16    56    1
    50    16    57    1
    51    17    18    1
    52    17    58    1
    53    17    59    1
    54    18    19    1
    55    18    60    1
    56    18    61    1
    57    19    20    1
    58    19    62    1
    59    19    63    1
    60    20    64    1
    61    20    65    1
    62    20    66    1
    63    21    22    2
    64    21    23    1
    65    23    24    1
    66    23    25    1
    67    24    67    1
    68    24    68    1
    69    24    69    1
    70    25    26    1
    71    25    70    1
    72    25    71    1
    73    26    27    1
    74    26    72    1
    75    26    73    1
    76    27    28    1
    77    27    74    1
    78    27    75    1
    79    28    29    1
    80    28    76    1
    81    28    77    1
    82    29    30    1
    83    29    78    1
    84    29    79    1
    85    30    31    1
    86    30    80    1
    87    30    81    1
    88    31    32    1
    89    31    82    1
    90    31    83    1
    91    32    84    1
    92    32    85    1
    93    32    86    1
    94    87    88    1
    95    87   118    1
    96    87   119    1
    97    87   120    1
    98    88    89    1
    99    88   121    1
   100    88   122    1
   101    89    90    1
   102    89   123    1
   103    89   124    1
   104    90    91    1
   105    90   125    1
   106    90   126    1
   107    91    92    1
   108    91   127    1
   109    91   128    1
   110    92    93    1
   111    92   129    1
   112    92   130    1
   113    93    94    1
   114    93   131    1
   115    93   132    1
   116    94    95    1
   117    94   133    1
   118    94   134    1
   119    95    96    1
   120    95    97    1
   121    96   135    1
   122    96   136    1
   123    96   137    1
   124    97    98    2
   125    97    99    1
   126    99   100    1
   127    99   106    1
   128    99   138    1
   129   100   101    1
   130   100   139    1
   131   100   140    1
   132   101   102    1
   133   101   141    1
   134   101   142    1
   135   102   103    1
   136   102   143    1
   137   102   144    1
   138   103   104    1
   139   103   145    1
   140   103   146    1
   141   104   105    1
   142   104   147    1
   143   104   148    1
   144   105   149    1
   145   105   150    1
   146   105   151    1
   147   106   107    2
   148   106   108    1
   149   108   109    1
   150   108   110    1
   151   109   152    1
   152   109   153    1
   153   109   154    1
   154   110   111    1
   155   110   155    1
   156   110   156    1
   157   111   112    1
   158   111   157    1
   159   111   158    1
   160   112   113    1
   161   112   159    1
   162   112   160    1
   163   113   114    1
   164   113   161    1
   165   113   162    1
   166   114   115    1
   167   114   163    1
   168   114   164    1
   169   115   116    1
   170   115   165    1
   171   115   166    1
   172   116   117    1
   173   116   167    1
   174   116   168    1
   175   117   169    1
   176   117   170    1
   177   117   171    1
   178   172   173    1
   179   172   203    1
   180   172   204    1
   181   172   205    1
   182   173   174    1
   183   173   206    1
   184   173   207    1
   185   174   175    1
   186   174   208    1
   187   174   209    1
   188   175   176    1
   189   175   210    1
   190   175   211    1
   191   176   177    1
   192   176   212    1
   193   176   213    1
   194   177   178    1
   195   177   214    1
   196   177   215    1
   197   178   179    1
   198   178   216    1
   199   178   217    1
   200   179   180    1
   201   179   218    1
   202   179   219    1
   203   180   181    1
   204   180   182    1
   205   181   220    1
   206   181   221    1
   207   181   222    1
   208   182   183    2
   209   182   184    1
   210   184   185    1
   211   184   191    1
   212   184   223    1
   213   185   186    1
   214   185   224    1
   215   185   225    1
   216   186   187    1
   217   186   226    1
   218   186   227    1
   219   187   188    1
   220   187   228    1
   221   187   229    1
   222   188   189    1
   223   188   230    1
   224   188   231    1
   225   189   190    1
   226   189   232    1
   227   189   233    1
   228   190   234    1
   229   190   235    1
   230   190   236    1
   231   191   192    2
   232   191   193    1
   233   193   194    1
   234   193   195    1
   235   194   237    1
   236   194   238    1
   237   194   239    1
   238   195   196    1
   239   195   240    1
   240   195   241    1
   241   196   197    1
   242   196   242    1
   243   196   243    1
   244   197   198    1
   245   197   244    1
   246   197   245    1
   247   198   199    1
   248   198   246    1
   249   198   247    1
   250   199   200    1
   251   199   248    1
   252   199   249    1
   253   200   201    1
   254   200   250    1
   255   200   251    1
   256   201   202    1
   257   201   252    1
   258   201   253    1
   259   202   254    1
   260   202   255    1
   261   202   256    1
   262   257   258    1
   263   257   288    1
   264   257   289    1
   265   257   290    1
   266   258   259    1
   267   258   291    1
   268   258   292    1
   269   259   260    1
   270   259   293    1
   271   259   294    1
   272   260   261    1
   273   260   295    1
   274   260   296    1
   275   261   262    1
   276   261   297    1
   277   261   298    1
   278   262   263    1
   279   262   299    1
   280   262   300    1
   281   263   264    1
   282   263   301    1
   283   263   302    1
   284   264   265    1
   285   264   303    1
   286   264   304    1
   287   265   266    1
   288   265   267    1
   289   266   305    1
   290   266   306    1
   291   266   307    1
   292   267   268    2
   293   267   269    1
   294   269   270    1
   295   269   276    1
   296   269   308    1
   297   270   271    1
   298   270   309    1
   299   270   310    1
   300   271   272    1
   301   271   311    1
   302   271   312    1
   303   272   273    1
   304   272   313    1
   305   272   314    1
   306   273   274    1
   307   273   315    1
   308   273   316    1
   309   274   275    1
   310   274   317    1
   311   274   318    1
   312   275   319    1
   313   275   320    1
   314   275   321    1
   315   276   277    2
   316   276   278    1
   317   278   279    1
   318   278   280    1
   319   279   322    1
   320   279   323    1
   321   279   324    1
   322   280   281    1
   323   280   325    1
   324   280   326    1
   325   281   282    1
   326   281   327    1
   327   281   328    1
   328   282   283    1
   329   282   329    1
   330   282   330    1
   331   283   284    1
   332   283   331    1
   333   283   332    1
   334   284   285    1
   335   284   333    1
   336   284   334    1
   337   285   286    1
   338   285   335    1
   339   285   336    1
   340   286   287    1
   341   286   337    1
   342   286   338    1
   343   287   339    1
   344   287   340    1
   345   287   341    1
   346   342   343    1
   347   342   344    1
@<TRIPOS>SUBSTRUCTURE
     1 RES1      344 GROUP             0 ****  ****    0  
