@<TRIPOS>MOLECULE
am_c3_9H2O_c0_0_nunpairedes_0_charge_3 Charge: 3 Unpaired_Electrons: 6 XTB_Unpaired_Electrons: 0 XTB_Charge: 3
   240   243     1     0     0
SMALL
NoCharges
****
Generated from Architector

@<TRIPOS>ATOM
     1 Eu1      -0.0672    0.0052   -0.0218   Eu        1 RES1   0.0000
     2 C1       -1.3116    8.4963    2.1495   C.3       1 RES1   0.0000
     3 C2       -0.7783    7.0687    2.1095   C.3       1 RES1   0.0000
     4 C3        0.3077    6.8945    1.0501   C.3       1 RES1   0.0000
     5 C4        0.9896    5.5240    1.0530   C.3       1 RES1   0.0000
     6 P1       -0.0654    4.0279    0.9137   P.3       1 RES1   0.0000
     7 S1        1.1006    2.5426    0.3205   S.3       1 RES1   0.0000
     8 C5       -0.9227    3.7032    2.5082   C.3       1 RES1   0.0000
     9 C6        0.1082    3.6420    3.6354   C.3       1 RES1   0.0000
    10 C7       -0.5031    3.1454    4.9482   C.3       1 RES1   0.0000
    11 C8       -1.4968    4.1415    5.5380   C.3       1 RES1   0.0000
    12 C9       -1.3045    4.5169   -0.3741   C.3       1 RES1   0.0000
    13 P2       -2.5159    3.3087   -1.0653   P.3       1 RES1   0.0000
    14 S2       -1.7235    1.6157   -1.7193   S.3       1 RES1   0.0000
    15 C10      -3.7500    3.0151    0.2777   C.3       1 RES1   0.0000
    16 C11      -4.9289    2.1390   -0.1386   C.3       1 RES1   0.0000
    17 C12      -6.0742    2.8317   -0.8667   C.3       1 RES1   0.0000
    18 C13      -7.2472    1.8764   -1.0657   C.3       1 RES1   0.0000
    19 C14      -3.1046    4.1807   -2.5785   C.3       1 RES1   0.0000
    20 C15      -3.4432    5.6665   -2.4875   C.3       1 RES1   0.0000
    21 C16      -4.5688    5.9807   -1.5095   C.3       1 RES1   0.0000
    22 C17      -4.9081    7.4640   -1.4672   C.3       1 RES1   0.0000
    23 H1       -2.0876    8.5837    2.9066   H         1 RES1   0.0000
    24 H2       -1.7338    8.7820    1.1881   H         1 RES1   0.0000
    25 H3       -0.5202    9.1997    2.3904   H         1 RES1   0.0000
    26 H4       -1.6137    6.3969    1.8999   H         1 RES1   0.0000
    27 H5       -0.3789    6.8037    3.0899   H         1 RES1   0.0000
    28 H6        1.0844    7.6393    1.2349   H         1 RES1   0.0000
    29 H7       -0.1072    7.1075    0.0623   H         1 RES1   0.0000
    30 H8        1.5692    5.3825    1.9695   H         1 RES1   0.0000
    31 H9        1.6954    5.4585    0.2163   H         1 RES1   0.0000
    32 H10      -1.4173    2.7326    2.4141   H         1 RES1   0.0000
    33 H11      -1.6661    4.4676    2.7170   H         1 RES1   0.0000
    34 H12       0.5259    4.6361    3.8080   H         1 RES1   0.0000
    35 H13       0.9229    2.9776    3.3278   H         1 RES1   0.0000
    36 H14       0.3044    2.9893    5.6652   H         1 RES1   0.0000
    37 H15      -0.9979    2.1846    4.7807   H         1 RES1   0.0000
    38 H16      -1.0449    5.1259    5.6279   H         1 RES1   0.0000
    39 H17      -1.8034    3.8229    6.5296   H         1 RES1   0.0000
    40 H18      -2.3911    4.2225    4.9239   H         1 RES1   0.0000
    41 H19      -0.6944    4.8404   -1.2295   H         1 RES1   0.0000
    42 H20      -1.8762    5.3674   -0.0006   H         1 RES1   0.0000
    43 H21      -4.0930    3.9523    0.7139   H         1 RES1   0.0000
    44 H22      -3.1676    2.4665    1.0304   H         1 RES1   0.0000
    45 H23      -5.3281    1.6858    0.7672   H         1 RES1   0.0000
    46 H24      -4.5434    1.3345   -0.7653   H         1 RES1   0.0000
    47 H25      -5.7333    3.1771   -1.8433   H         1 RES1   0.0000
    48 H26      -6.4148    3.7012   -0.3043   H         1 RES1   0.0000
    49 H27      -6.9077    0.9386   -1.4944   H         1 RES1   0.0000
    50 H28      -7.9847    2.3108   -1.7330   H         1 RES1   0.0000
    51 H29      -7.7378    1.6612   -0.1217   H         1 RES1   0.0000
    52 H30      -3.9576    3.6055   -2.9472   H         1 RES1   0.0000
    53 H31      -2.2868    4.0258   -3.2944   H         1 RES1   0.0000
    54 H32      -3.7452    5.9880   -3.4864   H         1 RES1   0.0000
    55 H33      -2.5553    6.2449   -2.2250   H         1 RES1   0.0000
    56 H34      -4.2784    5.6532   -0.5092   H         1 RES1   0.0000
    57 H35      -5.4587    5.4215   -1.7949   H         1 RES1   0.0000
    58 H36      -4.0460    8.0577   -1.1757   H         1 RES1   0.0000
    59 H37      -5.7042    7.6397   -0.7486   H         1 RES1   0.0000
    60 H38      -5.2458    7.8132   -2.4385   H         1 RES1   0.0000
    61 C18       5.9471   -4.9156    5.0491   C.3       1 RES1   0.0000
    62 C19       5.4426   -3.6831    4.3083   C.3       1 RES1   0.0000
    63 C20       4.3681   -2.9444    5.1001   C.3       1 RES1   0.0000
    64 C21       3.8293   -1.6911    4.4094   C.3       1 RES1   0.0000
    65 P3        3.2635   -1.7847    2.6584   P.3       1 RES1   0.0000
    66 S3        2.1937   -0.1695    2.3295   S.3       1 RES1   0.0000
    67 C22       4.7386   -1.8683    1.5543   C.3       1 RES1   0.0000
    68 C23       5.7738   -0.8153    1.9435   C.3       1 RES1   0.0000
    69 C24       6.8681   -0.6662    0.8832   C.3       1 RES1   0.0000
    70 C25       7.6226   -1.9659    0.6226   C.3       1 RES1   0.0000
    71 C26       2.3894   -3.4513    2.6167   C.3       1 RES1   0.0000
    72 P4        0.7222   -3.8197    1.8972   P.3       1 RES1   0.0000
    73 S4       -0.4613   -2.2462    1.7856   S.3       1 RES1   0.0000
    74 C27       0.8243   -4.7174    0.2851   C.3       1 RES1   0.0000
    75 C28      -0.5500   -5.1382   -0.2462   C.3       1 RES1   0.0000
    76 C29      -0.9076   -6.6088   -0.0374   C.3       1 RES1   0.0000
    77 C30      -2.0810   -7.0154   -0.9224   C.3       1 RES1   0.0000
    78 C31      -0.0704   -4.9175    3.1447   C.3       1 RES1   0.0000
    79 C32       0.7682   -6.0121    3.7955   C.3       1 RES1   0.0000
    80 C33       1.4162   -6.9659    2.7980   C.3       1 RES1   0.0000
    81 C34       2.1442   -8.1078    3.4927   C.3       1 RES1   0.0000
    82 H39       6.6899   -5.4352    4.4484   H         1 RES1   0.0000
    83 H40       5.1300   -5.6041    5.2568   H         1 RES1   0.0000
    84 H41       6.4033   -4.6375    5.9949   H         1 RES1   0.0000
    85 H42       5.0287   -3.9978    3.3469   H         1 RES1   0.0000
    86 H43       6.2785   -3.0095    4.1100   H         1 RES1   0.0000
    87 H44       4.7897   -2.6350    6.0600   H         1 RES1   0.0000
    88 H45       3.5522   -3.6375    5.3267   H         1 RES1   0.0000
    89 H46       4.5867   -0.9014    4.3961   H         1 RES1   0.0000
    90 H47       2.9745   -1.2994    4.9730   H         1 RES1   0.0000
    91 H48       4.3726   -1.6509    0.5501   H         1 RES1   0.0000
    92 H49       5.1746   -2.8654    1.5652   H         1 RES1   0.0000
    93 H50       6.2503   -1.0871    2.8874   H         1 RES1   0.0000
    94 H51       5.2698    0.1475    2.0750   H         1 RES1   0.0000
    95 H52       7.5746    0.0893    1.2295   H         1 RES1   0.0000
    96 H53       6.4299   -0.2900   -0.0454   H         1 RES1   0.0000
    97 H54       7.9628   -2.3979    1.5601   H         1 RES1   0.0000
    98 H55       8.4965   -1.7720    0.0078   H         1 RES1   0.0000
    99 H56       7.0034   -2.6998    0.1059   H         1 RES1   0.0000
   100 H57       2.1860   -3.6042    3.6785   H         1 RES1   0.0000
   101 H58       3.0918   -4.2105    2.2858   H         1 RES1   0.0000
   102 H59       1.4973   -5.5699    0.3618   H         1 RES1   0.0000
   103 H60       1.2541   -3.9777   -0.3920   H         1 RES1   0.0000
   104 H61      -0.5595   -4.9400   -1.3192   H         1 RES1   0.0000
   105 H62      -1.3194   -4.4927    0.1931   H         1 RES1   0.0000
   106 H63      -1.1677   -6.7992    1.0052   H         1 RES1   0.0000
   107 H64      -0.0482   -7.2357   -0.2843   H         1 RES1   0.0000
   108 H65      -2.9309   -6.3530   -0.7706   H         1 RES1   0.0000
   109 H66      -2.3952   -8.0295   -0.6962   H         1 RES1   0.0000
   110 H67      -1.7978   -6.9770   -1.9702   H         1 RES1   0.0000
   111 H68      -0.9197   -5.3547    2.6132   H         1 RES1   0.0000
   112 H69      -0.4807   -4.2450    3.9068   H         1 RES1   0.0000
   113 H70       0.1039   -6.5793    4.4515   H         1 RES1   0.0000
   114 H71       1.5419   -5.5749    4.4298   H         1 RES1   0.0000
   115 H72       2.1287   -6.4113    2.1805   H         1 RES1   0.0000
   116 H73       0.6499   -7.3775    2.1413   H         1 RES1   0.0000
   117 H74       2.9484   -7.7301    4.1185   H         1 RES1   0.0000
   118 H75       2.5682   -8.7804    2.7523   H         1 RES1   0.0000
   119 H76       1.4599   -8.6741    4.1187   H         1 RES1   0.0000
   120 C35       7.6925   -1.1611   -4.7725   C.3       1 RES1   0.0000
   121 C36       6.6806   -0.6734   -3.7445   C.3       1 RES1   0.0000
   122 C37       5.5471   -1.6835   -3.5691   C.3       1 RES1   0.0000
   123 C38       4.5943   -1.2457   -2.4593   C.3       1 RES1   0.0000
   124 P5        3.1958   -2.3689   -2.0869   P.3       1 RES1   0.0000
   125 S5        2.1423   -1.7747   -0.5057   S.3       1 RES1   0.0000
   126 C39       3.7412   -4.0689   -1.6052   C.3       1 RES1   0.0000
   127 C40       4.8349   -4.8434   -2.3280   C.3       1 RES1   0.0000
   128 C41       4.4506   -5.2094   -3.7551   C.3       1 RES1   0.0000
   129 C42       5.4377   -6.1880   -4.3733   C.3       1 RES1   0.0000
   130 C43       2.0979   -2.4659   -3.5571   C.3       1 RES1   0.0000
   131 P6        1.5221   -0.7871   -4.1686   P.3       1 RES1   0.0000
   132 S6        1.4129    0.5511   -2.7253   S.3       1 RES1   0.0000
   133 C44      -0.1401   -1.0607   -4.8890   C.3       1 RES1   0.0000
   134 C45      -0.3094   -1.9502   -6.1183   C.3       1 RES1   0.0000
   135 C46       0.0619   -3.4179   -5.9047   C.3       1 RES1   0.0000
   136 C47      -0.5084   -4.3145   -6.9969   C.3       1 RES1   0.0000
   137 C48       2.6647   -0.3985   -5.5544   C.3       1 RES1   0.0000
   138 C49       2.2554    0.8147   -6.3916   C.3       1 RES1   0.0000
   139 C50       2.3693    2.1450   -5.6474   C.3       1 RES1   0.0000
   140 C51       3.7719    2.4128   -5.1172   C.3       1 RES1   0.0000
   141 H77       8.4990   -0.4418   -4.8725   H         1 RES1   0.0000
   142 H78       7.2301   -1.2909   -5.7474   H         1 RES1   0.0000
   143 H79       8.1193   -2.1127   -4.4676   H         1 RES1   0.0000
   144 H80       6.2767    0.2922   -4.0539   H         1 RES1   0.0000
   145 H81       7.1802   -0.5270   -2.7842   H         1 RES1   0.0000
   146 H82       5.9896   -2.6464   -3.3222   H         1 RES1   0.0000
   147 H83       5.0110   -1.8002   -4.5135   H         1 RES1   0.0000
   148 H84       4.1353   -0.2751   -2.6887   H         1 RES1   0.0000
   149 H85       5.1458   -1.1269   -1.5210   H         1 RES1   0.0000
   150 H86       2.8250   -4.6667   -1.6411   H         1 RES1   0.0000
   151 H87       4.0063   -3.9379   -0.5500   H         1 RES1   0.0000
   152 H88       4.9863   -5.7653   -1.7610   H         1 RES1   0.0000
   153 H89       5.7820   -4.3069   -2.3111   H         1 RES1   0.0000
   154 H90       4.4099   -4.3030   -4.3629   H         1 RES1   0.0000
   155 H91       3.4536   -5.6550   -3.7467   H         1 RES1   0.0000
   156 H92       6.4312   -5.7504   -4.4189   H         1 RES1   0.0000
   157 H93       5.1296   -6.4502   -5.3814   H         1 RES1   0.0000
   158 H94       5.4895   -7.0993   -3.7846   H         1 RES1   0.0000
   159 H95       1.2044   -3.0080   -3.2242   H         1 RES1   0.0000
   160 H96       2.5836   -3.0256   -4.3547   H         1 RES1   0.0000
   161 H97      -0.4842   -0.0436   -5.1059   H         1 RES1   0.0000
   162 H98      -0.7523   -1.4319   -4.0595   H         1 RES1   0.0000
   163 H99       0.2582   -1.5644   -6.9649   H         1 RES1   0.0000
   164 H100     -1.3662   -1.8989   -6.3916   H         1 RES1   0.0000
   165 H101     -0.3067   -3.7575   -4.9324   H         1 RES1   0.0000
   166 H102      1.1459   -3.5355   -5.9022   H         1 RES1   0.0000
   167 H103     -1.5923   -4.2629   -7.0130   H         1 RES1   0.0000
   168 H104     -0.2161   -5.3470   -6.8270   H         1 RES1   0.0000
   169 H105     -0.1431   -4.0167   -7.9743   H         1 RES1   0.0000
   170 H106      2.6838   -1.2904   -6.1891   H         1 RES1   0.0000
   171 H107      3.6628   -0.2315   -5.1512   H         1 RES1   0.0000
   172 H108      1.2315    0.6907   -6.7537   H         1 RES1   0.0000
   173 H109      2.9122    0.8478   -7.2660   H         1 RES1   0.0000
   174 H110      1.6635    2.1584   -4.8184   H         1 RES1   0.0000
   175 H111      2.0934    2.9429   -6.3360   H         1 RES1   0.0000
   176 H112      3.9930    1.7895   -4.2532   H         1 RES1   0.0000
   177 H113      3.8608    3.4478   -4.8010   H         1 RES1   0.0000
   178 H114      4.5175    2.2316   -5.8881   H         1 RES1   0.0000
   179 C52      -7.0840    0.2983   -4.7769   C.3       1 RES1   0.0000
   180 C53      -5.7074    0.3662   -4.1192   C.3       1 RES1   0.0000
   181 C54      -5.4130   -0.8401   -3.2163   C.3       1 RES1   0.0000
   182 C55      -3.9764   -0.7765   -2.6885   C.3       1 RES1   0.0000
   183 P7       -3.1848   -2.3415   -2.1528   P.3       1 RES1   0.0000
   184 S7       -1.2582   -2.1340   -1.6999   S.3       1 RES1   0.0000
   185 C56      -3.2495   -3.3943   -3.6733   C.3       1 RES1   0.0000
   186 C57      -3.6864   -4.8611   -3.7025   C.3       1 RES1   0.0000
   187 C58      -5.0697   -5.1227   -3.1033   C.3       1 RES1   0.0000
   188 C59      -5.8351   -6.2312   -3.8181   C.3       1 RES1   0.0000
   189 C60      -4.2193   -2.9920   -0.7540   C.3       1 RES1   0.0000
   190 P8       -4.2098   -2.0064    0.8514   P.3       1 RES1   0.0000
   191 S8       -3.0617   -0.4008    0.7675   S.3       1 RES1   0.0000
   192 C61      -3.6167   -3.1656    2.1437   C.3       1 RES1   0.0000
   193 C62      -4.5035   -4.3183    2.6082   C.3       1 RES1   0.0000
   194 C63      -4.5657   -5.4838    1.6289   C.3       1 RES1   0.0000
   195 C64      -5.2757   -6.6895    2.2234   C.3       1 RES1   0.0000
   196 C65      -5.9619   -1.5693    1.2372   C.3       1 RES1   0.0000
   197 C66      -6.1608   -1.2473    2.7267   C.3       1 RES1   0.0000
   198 C67      -5.7898    0.1787    3.1439   C.3       1 RES1   0.0000
   199 C68      -6.9351    1.1546    2.9173   C.3       1 RES1   0.0000
   200 H115     -7.2567    1.2087   -5.3459   H         1 RES1   0.0000
   201 H116     -7.8820    0.2069   -4.0437   H         1 RES1   0.0000
   202 H117     -7.1483   -0.5451   -5.4596   H         1 RES1   0.0000
   203 H118     -5.6385    1.2902   -3.5401   H         1 RES1   0.0000
   204 H119     -4.9459    0.4091   -4.9056   H         1 RES1   0.0000
   205 H120     -5.5775   -1.7488   -3.8032   H         1 RES1   0.0000
   206 H121     -6.1103   -0.8615   -2.3727   H         1 RES1   0.0000
   207 H122     -3.9002   -0.0917   -1.8379   H         1 RES1   0.0000
   208 H123     -3.2898   -0.3909   -3.4507   H         1 RES1   0.0000
   209 H124     -3.8865   -2.8282   -4.3564   H         1 RES1   0.0000
   210 H125     -2.2247   -3.3276   -4.0568   H         1 RES1   0.0000
   211 H126     -2.9532   -5.4947   -3.2122   H         1 RES1   0.0000
   212 H127     -3.7094   -5.1354   -4.7620   H         1 RES1   0.0000
   213 H128     -5.6619   -4.2076   -3.1772   H         1 RES1   0.0000
   214 H129     -4.9771   -5.3855   -2.0470   H         1 RES1   0.0000
   215 H130     -6.2112   -5.8680   -4.7727   H         1 RES1   0.0000
   216 H131     -6.6709   -6.5600   -3.2026   H         1 RES1   0.0000
   217 H132     -5.2092   -7.0998   -4.0097   H         1 RES1   0.0000
   218 H133     -3.8549   -3.9964   -0.5217   H         1 RES1   0.0000
   219 H134     -5.2341   -3.0578   -1.1495   H         1 RES1   0.0000
   220 H135     -3.3842   -2.4996    2.9810   H         1 RES1   0.0000
   221 H136     -2.6555   -3.5458    1.7857   H         1 RES1   0.0000
   222 H137     -5.5182   -3.9853    2.8183   H         1 RES1   0.0000
   223 H138     -4.0806   -4.6754    3.5502   H         1 RES1   0.0000
   224 H139     -3.5517   -5.7680    1.3442   H         1 RES1   0.0000
   225 H140     -5.0985   -5.1838    0.7257   H         1 RES1   0.0000
   226 H141     -4.7677   -7.0325    3.1172   H         1 RES1   0.0000
   227 H142     -5.2993   -7.5020    1.5042   H         1 RES1   0.0000
   228 H143     -6.2976   -6.4423    2.4890   H         1 RES1   0.0000
   229 H144     -6.5761   -2.4314    0.9600   H         1 RES1   0.0000
   230 H145     -6.2530   -0.7175    0.6193   H         1 RES1   0.0000
   231 H146     -5.5736   -1.9483    3.3177   H         1 RES1   0.0000
   232 H147     -7.2128   -1.4133    2.9710   H         1 RES1   0.0000
   233 H148     -4.8960    0.4935    2.6067   H         1 RES1   0.0000
   234 H149     -5.5525    0.1843    4.2073   H         1 RES1   0.0000
   235 H150     -7.2927    1.1119    1.8936   H         1 RES1   0.0000
   236 H151     -6.6370    2.1745    3.1387   H         1 RES1   0.0000
   237 H152     -7.7689    0.9115    3.5683   H         1 RES1   0.0000
   238 O1       -0.7173    0.6511    2.4555   O.3       1 RES1   0.0000
   239 H153      0.1389    0.7954    2.9039   H         1 RES1   0.0000
   240 H154     -1.1599   -0.0336    2.9816   H         1 RES1   0.0000
@<TRIPOS>BOND
     1     1     7    1
     2     1    14    1
     3     1    66    1
     4     1    73    1
     5     1   125    1
     6     1   132    1
     7     1   184    1
     8     1   191    1
     9     1   238    1
    10     2     3    1
    11     2    23    1
    12     2    24    1
    13     2    25    1
    14     3     4    1
    15     3    26    1
    16     3    27    1
    17     4     5    1
    18     4    28    1
    19     4    29    1
    20     5     6    1
    21     5    30    1
    22     5    31    1
    23     6     7    2
    24     6     8    1
    25     6    12    1
    26     8     9    1
    27     8    32    1
    28     8    33    1
    29     9    10    1
    30     9    34    1
    31     9    35    1
    32    10    11    1
    33    10    36    1
    34    10    37    1
    35    11    38    1
    36    11    39    1
    37    11    40    1
    38    12    13    1
    39    12    41    1
    40    12    42    1
    41    13    14    2
    42    13    15    1
    43    13    19    1
    44    15    16    1
    45    15    43    1
    46    15    44    1
    47    16    17    1
    48    16    45    1
    49    16    46    1
    50    17    18    1
    51    17    47    1
    52    17    48    1
    53    18    49    1
    54    18    50    1
    55    18    51    1
    56    19    20    1
    57    19    52    1
    58    19    53    1
    59    20    21    1
    60    20    54    1
    61    20    55    1
    62    21    22    1
    63    21    56    1
    64    21    57    1
    65    22    58    1
    66    22    59    1
    67    22    60    1
    68    61    62    1
    69    61    82    1
    70    61    83    1
    71    61    84    1
    72    62    63    1
    73    62    85    1
    74    62    86    1
    75    63    64    1
    76    63    87    1
    77    63    88    1
    78    64    65    1
    79    64    89    1
    80    64    90    1
    81    65    66    2
    82    65    67    1
    83    65    71    1
    84    67    68    1
    85    67    91    1
    86    67    92    1
    87    68    69    1
    88    68    93    1
    89    68    94    1
    90    69    70    1
    91    69    95    1
    92    69    96    1
    93    70    97    1
    94    70    98    1
    95    70    99    1
    96    71    72    1
    97    71   100    1
    98    71   101    1
    99    72    73    2
   100    72    74    1
   101    72    78    1
   102    74    75    1
   103    74   102    1
   104    74   103    1
   105    75    76    1
   106    75   104    1
   107    75   105    1
   108    76    77    1
   109    76   106    1
   110    76   107    1
   111    77   108    1
   112    77   109    1
   113    77   110    1
   114    78    79    1
   115    78   111    1
   116    78   112    1
   117    79    80    1
   118    79   113    1
   119    79   114    1
   120    80    81    1
   121    80   115    1
   122    80   116    1
   123    81   117    1
   124    81   118    1
   125    81   119    1
   126   120   121    1
   127   120   141    1
   128   120   142    1
   129   120   143    1
   130   121   122    1
   131   121   144    1
   132   121   145    1
   133   122   123    1
   134   122   146    1
   135   122   147    1
   136   123   124    1
   137   123   148    1
   138   123   149    1
   139   124   125    2
   140   124   126    1
   141   124   130    1
   142   126   127    1
   143   126   150    1
   144   126   151    1
   145   127   128    1
   146   127   152    1
   147   127   153    1
   148   128   129    1
   149   128   154    1
   150   128   155    1
   151   129   156    1
   152   129   157    1
   153   129   158    1
   154   130   131    1
   155   130   159    1
   156   130   160    1
   157   131   132    2
   158   131   133    1
   159   131   137    1
   160   133   134    1
   161   133   161    1
   162   133   162    1
   163   134   135    1
   164   134   163    1
   165   134   164    1
   166   135   136    1
   167   135   165    1
   168   135   166    1
   169   136   167    1
   170   136   168    1
   171   136   169    1
   172   137   138    1
   173   137   170    1
   174   137   171    1
   175   138   139    1
   176   138   172    1
   177   138   173    1
   178   139   140    1
   179   139   174    1
   180   139   175    1
   181   140   176    1
   182   140   177    1
   183   140   178    1
   184   179   180    1
   185   179   200    1
   186   179   201    1
   187   179   202    1
   188   180   181    1
   189   180   203    1
   190   180   204    1
   191   181   182    1
   192   181   205    1
   193   181   206    1
   194   182   183    1
   195   182   207    1
   196   182   208    1
   197   183   184    2
   198   183   185    1
   199   183   189    1
   200   185   186    1
   201   185   209    1
   202   185   210    1
   203   186   187    1
   204   186   211    1
   205   186   212    1
   206   187   188    1
   207   187   213    1
   208   187   214    1
   209   188   215    1
   210   188   216    1
   211   188   217    1
   212   189   190    1
   213   189   218    1
   214   189   219    1
   215   190   191    2
   216   190   192    1
   217   190   196    1
   218   192   193    1
   219   192   220    1
   220   192   221    1
   221   193   194    1
   222   193   222    1
   223   193   223    1
   224   194   195    1
   225   194   224    1
   226   194   225    1
   227   195   226    1
   228   195   227    1
   229   195   228    1
   230   196   197    1
   231   196   229    1
   232   196   230    1
   233   197   198    1
   234   197   231    1
   235   197   232    1
   236   198   199    1
   237   198   233    1
   238   198   234    1
   239   199   235    1
   240   199   236    1
   241   199   237    1
   242   238   239    1
   243   238   240    1
@<TRIPOS>SUBSTRUCTURE
     1 RES1      240 GROUP             0 ****  ****    0  
