@<TRIPOS>MOLECULE
cn9_YICLED_0_nunpairedes_0_charge_3 Charge: 3 Unpaired_Electrons: 6 XTB_Unpaired_Electrons: 0 XTB_Charge: 3
   130   138     1     0     0
SMALL
NoCharges
****
Generated from Architector

@<TRIPOS>ATOM
     1 Eu1      -0.7072   -0.6529   -0.2255   Eu        1 RES1   0.0000
     2 C1       -4.5924   -7.2246    1.4016   C.3       1 RES1   0.0000
     3 C2       -4.4325   -5.9072    0.6543   C.3       1 RES1   0.0000
     4 C3       -5.7386   -5.1296    0.4772   C.3       1 RES1   0.0000
     5 C4       -6.3429   -4.5584    1.7615   C.3       1 RES1   0.0000
     6 C5       -5.4200   -3.5713    2.4985   C.3       1 RES1   0.0000
     7 C6       -4.7008   -4.1995    3.6973   C.3       1 RES1   0.0000
     8 C7       -4.0272   -3.2039    4.6520   C.3       1 RES1   0.0000
     9 C8       -2.7260   -2.5700    4.1588   C.3       1 RES1   0.0000
    10 N1       -2.9738   -1.7173    3.0029   N.am      1 RES1   0.0000
    11 C9       -2.1045   -1.2096    2.1794   C.2       1 RES1   0.0000
    12 O1       -2.4220   -0.6252    1.1028   O.2       1 RES1   0.0000
    13 C10      -0.6056   -1.3361    2.3444   C.ar      1 RES1   0.0000
    14 C11       0.1847   -0.3103    2.8624   C.ar      1 RES1   0.0000
    15 C12       1.5891   -0.4704    2.7981   C.ar      1 RES1   0.0000
    16 O2        2.4810    0.4544    3.0756   O.3       1 RES1   0.0000
    17 C13       2.0671    1.7401    3.5096   C.3       1 RES1   0.0000
    18 C14       2.0800   -1.7283    2.3869   C.ar      1 RES1   0.0000
    19 C15       1.2088   -2.6493    1.8534   C.ar      1 RES1   0.0000
    20 N2       -0.1122   -2.4235    1.7224   N.ar      1 RES1   0.0000
    21 H1       -3.6213   -7.6985    1.5243   H         1 RES1   0.0000
    22 H2       -5.2320   -7.9024    0.8451   H         1 RES1   0.0000
    23 H3       -5.0242   -7.0757    2.3860   H         1 RES1   0.0000
    24 H4       -4.0284   -6.1290   -0.3375   H         1 RES1   0.0000
    25 H5       -3.6981   -5.2886    1.1817   H         1 RES1   0.0000
    26 H6       -6.4737   -5.7917    0.0200   H         1 RES1   0.0000
    27 H7       -5.5724   -4.2998   -0.2194   H         1 RES1   0.0000
    28 H8       -6.6314   -5.3670    2.4308   H         1 RES1   0.0000
    29 H9       -7.2597   -4.0387    1.4810   H         1 RES1   0.0000
    30 H10      -6.0223   -2.7370    2.8648   H         1 RES1   0.0000
    31 H11      -4.7017   -3.1812    1.7696   H         1 RES1   0.0000
    32 H12      -3.9698   -4.9348    3.3624   H         1 RES1   0.0000
    33 H13      -5.4464   -4.7374    4.2854   H         1 RES1   0.0000
    34 H14      -3.7826   -3.7331    5.5751   H         1 RES1   0.0000
    35 H15      -4.7349   -2.4160    4.9169   H         1 RES1   0.0000
    36 H16      -2.0010   -3.3428    3.8813   H         1 RES1   0.0000
    37 H17      -2.2971   -1.9586    4.9589   H         1 RES1   0.0000
    38 H18      -3.9557   -1.6150    2.7445   H         1 RES1   0.0000
    39 H19      -0.2651    0.5467    3.3440   H         1 RES1   0.0000
    40 H20       2.9563    2.3621    3.4550   H         1 RES1   0.0000
    41 H21       1.7115    1.7078    4.5404   H         1 RES1   0.0000
    42 H22       1.2939    2.1397    2.8482   H         1 RES1   0.0000
    43 H23       3.1376   -1.9264    2.4808   H         1 RES1   0.0000
    44 H24       1.5546   -3.6198    1.5220   H         1 RES1   0.0000
    45 C16       3.0942    5.4894   -4.9765   C.3       1 RES1   0.0000
    46 C17       2.9036    5.1951   -3.4958   C.3       1 RES1   0.0000
    47 C18       2.7452    6.4591   -2.6468   C.3       1 RES1   0.0000
    48 C19       1.4968    7.3066   -2.9056   C.3       1 RES1   0.0000
    49 C20       0.1624    6.7127   -2.4363   C.3       1 RES1   0.0000
    50 C21      -0.4517    5.6719   -3.3823   C.3       1 RES1   0.0000
    51 C22      -1.9433    5.4134   -3.0887   C.3       1 RES1   0.0000
    52 C23      -2.3010    3.9701   -2.7385   C.3       1 RES1   0.0000
    53 N3       -1.5955    3.4697   -1.5598   N.am      1 RES1   0.0000
    54 C24      -1.5139    2.2172   -1.2227   C.2       1 RES1   0.0000
    55 O3       -0.9481    1.7504   -0.1867   O.2       1 RES1   0.0000
    56 C25      -1.9547    1.0874   -2.1277   C.ar      1 RES1   0.0000
    57 C26      -2.8785    0.1566   -1.6247   C.ar      1 RES1   0.0000
    58 C27      -2.6773   -1.1952   -1.9930   C.ar      1 RES1   0.0000
    59 O4       -3.1962   -2.1124   -1.1596   O.3       1 RES1   0.0000
    60 C28      -2.7251   -3.4621   -1.2451   C.3       1 RES1   0.0000
    61 C29      -1.8432   -1.4623   -3.1001   C.ar      1 RES1   0.0000
    62 C30      -1.1475   -0.4033   -3.6703   C.ar      1 RES1   0.0000
    63 N4       -1.0964    0.7999   -3.1059   N.ar      1 RES1   0.0000
    64 H25       3.1912    4.5632   -5.5362   H         1 RES1   0.0000
    65 H26       3.9925    6.0787   -5.1310   H         1 RES1   0.0000
    66 H27       2.2510    6.0377   -5.3840   H         1 RES1   0.0000
    67 H28       3.7820    4.6528   -3.1347   H         1 RES1   0.0000
    68 H29       2.0455    4.5330   -3.3693   H         1 RES1   0.0000
    69 H30       3.6146    7.0908   -2.8351   H         1 RES1   0.0000
    70 H31       2.7705    6.1981   -1.5838   H         1 RES1   0.0000
    71 H32       1.4262    7.5497   -3.9644   H         1 RES1   0.0000
    72 H33       1.6377    8.2493   -2.3732   H         1 RES1   0.0000
    73 H34      -0.5422    7.5419   -2.3469   H         1 RES1   0.0000
    74 H35       0.2810    6.2924   -1.4314   H         1 RES1   0.0000
    75 H36       0.0895    4.7260   -3.3300   H         1 RES1   0.0000
    76 H37      -0.3384    6.0442   -4.4001   H         1 RES1   0.0000
    77 H38      -2.5354    5.6601   -3.9707   H         1 RES1   0.0000
    78 H39      -2.2834    6.0765   -2.2924   H         1 RES1   0.0000
    79 H40      -2.0767    3.3067   -3.5771   H         1 RES1   0.0000
    80 H41      -3.3738    3.9258   -2.5273   H         1 RES1   0.0000
    81 H42      -1.1868    4.1773   -0.9519   H         1 RES1   0.0000
    82 H43      -3.6424    0.4009   -0.8897   H         1 RES1   0.0000
    83 H44      -3.0437   -3.9388   -2.1725   H         1 RES1   0.0000
    84 H45      -3.1934   -3.9811   -0.4100   H         1 RES1   0.0000
    85 H46      -1.6291   -3.5013   -1.1403   H         1 RES1   0.0000
    86 H47      -1.7699   -2.4555   -3.5188   H         1 RES1   0.0000
    87 H48      -0.5442   -0.5386   -4.5606   H         1 RES1   0.0000
    88 C31       0.1005   -3.6016   -5.1456   C.3       1 RES1   0.0000
    89 C32       1.0892   -3.8743   -6.2745   C.3       1 RES1   0.0000
    90 C33       1.9665   -2.6690   -6.6144   C.3       1 RES1   0.0000
    91 C34       3.0418   -2.3459   -5.5719   C.3       1 RES1   0.0000
    92 C35       4.0605   -3.4826   -5.3750   C.3       1 RES1   0.0000
    93 C36       3.8924   -4.2116   -4.0387   C.3       1 RES1   0.0000
    94 C37       4.4066   -3.3351   -2.8923   C.3       1 RES1   0.0000
    95 C38       3.8500   -3.7104   -1.5145   C.3       1 RES1   0.0000
    96 N5        2.4170   -3.4533   -1.4524   N.am      1 RES1   0.0000
    97 C39       1.7738   -2.3510   -1.1773   C.2       1 RES1   0.0000
    98 O5        0.4918   -2.2950   -1.2147   O.2       1 RES1   0.0000
    99 C40       2.4501   -1.0816   -0.7585   C.ar      1 RES1   0.0000
   100 C41       1.7594    0.1089   -1.0564   C.ar      1 RES1   0.0000
   101 C42       2.2851    1.3279   -0.5681   C.ar      1 RES1   0.0000
   102 O6        1.5807    2.4010   -0.8987   O.3       1 RES1   0.0000
   103 C43       1.9546    3.6841   -0.4101   C.3       1 RES1   0.0000
   104 C44       3.4809    1.2769    0.1606   C.ar      1 RES1   0.0000
   105 C45       4.1030    0.0509    0.3219   C.ar      1 RES1   0.0000
   106 N6        3.5917   -1.1007   -0.0924   N.ar      1 RES1   0.0000
   107 H49      -0.4201   -4.5174   -4.8796   H         1 RES1   0.0000
   108 H50      -0.6342   -2.8722   -5.4782   H         1 RES1   0.0000
   109 H51       0.6032   -3.2170   -4.2572   H         1 RES1   0.0000
   110 H52       0.5204   -4.1462   -7.1631   H         1 RES1   0.0000
   111 H53       1.7181   -4.7271   -6.0213   H         1 RES1   0.0000
   112 H54       1.3344   -1.7867   -6.7518   H         1 RES1   0.0000
   113 H55       2.4678   -2.8597   -7.5637   H         1 RES1   0.0000
   114 H56       2.5617   -2.0965   -4.6185   H         1 RES1   0.0000
   115 H57       3.5651   -1.4477   -5.9033   H         1 RES1   0.0000
   116 H58       5.0760   -3.0878   -5.4166   H         1 RES1   0.0000
   117 H59       3.9651   -4.1997   -6.1898   H         1 RES1   0.0000
   118 H60       4.4563   -5.1446   -4.0536   H         1 RES1   0.0000
   119 H61       2.8393   -4.4673   -3.9008   H         1 RES1   0.0000
   120 H62       4.1500   -2.2915   -3.0779   H         1 RES1   0.0000
   121 H63       5.4945   -3.3921   -2.8564   H         1 RES1   0.0000
   122 H64       4.3506   -3.1375   -0.7347   H         1 RES1   0.0000
   123 H65       3.9886   -4.7764   -1.3256   H         1 RES1   0.0000
   124 H66       1.8382   -4.2077   -1.8120   H         1 RES1   0.0000
   125 H67       1.0189    0.1795   -1.8729   H         1 RES1   0.0000
   126 H68       3.0215    3.8669   -0.5230   H         1 RES1   0.0000
   127 H69       1.6548    3.7794    0.6357   H         1 RES1   0.0000
   128 H70       1.4105    4.4064   -1.0154   H         1 RES1   0.0000
   129 H71       3.9523    2.1673    0.5430   H         1 RES1   0.0000
   130 H72       5.0570   -0.0324    0.8210   H         1 RES1   0.0000
@<TRIPOS>BOND
     1     1    12    1
     2     1    16    1
     3     1    20    1
     4     1    55    1
     5     1    59    1
     6     1    63    1
     7     1    98    1
     8     1   102    1
     9     1   106    1
    10     2     3    1
    11     2    21    1
    12     2    22    1
    13     2    23    1
    14     3     4    1
    15     3    24    1
    16     3    25    1
    17     4     5    1
    18     4    26    1
    19     4    27    1
    20     5     6    1
    21     5    28    1
    22     5    29    1
    23     6     7    1
    24     6    30    1
    25     6    31    1
    26     7     8    1
    27     7    32    1
    28     7    33    1
    29     8     9    1
    30     8    34    1
    31     8    35    1
    32     9    10    1
    33     9    36    1
    34     9    37    1
    35    10    11    1
    36    10    38    1
    37    11    12    2
    38    11    13    1
    39    13    14    1
    40    13    20    2
    41    14    15    2
    42    14    39    1
    43    15    16    1
    44    15    18    1
    45    16    17    1
    46    17    40    1
    47    17    41    1
    48    17    42    1
    49    18    19    2
    50    18    43    1
    51    19    20    1
    52    19    44    1
    53    45    46    1
    54    45    64    1
    55    45    65    1
    56    45    66    1
    57    46    47    1
    58    46    67    1
    59    46    68    1
    60    47    48    1
    61    47    69    1
    62    47    70    1
    63    48    49    1
    64    48    71    1
    65    48    72    1
    66    49    50    1
    67    49    73    1
    68    49    74    1
    69    50    51    1
    70    50    75    1
    71    50    76    1
    72    51    52    1
    73    51    77    1
    74    51    78    1
    75    52    53    1
    76    52    79    1
    77    52    80    1
    78    53    54    1
    79    53    81    1
    80    54    55    2
    81    54    56    1
    82    56    57    1
    83    56    63    2
    84    57    58    2
    85    57    82    1
    86    58    59    1
    87    58    61    1
    88    59    60    1
    89    60    83    1
    90    60    84    1
    91    60    85    1
    92    61    62    2
    93    61    86    1
    94    62    63    1
    95    62    87    1
    96    88    89    1
    97    88   107    1
    98    88   108    1
    99    88   109    1
   100    89    90    1
   101    89   110    1
   102    89   111    1
   103    90    91    1
   104    90   112    1
   105    90   113    1
   106    91    92    1
   107    91   114    1
   108    91   115    1
   109    92    93    1
   110    92   116    1
   111    92   117    1
   112    93    94    1
   113    93   118    1
   114    93   119    1
   115    94    95    1
   116    94   120    1
   117    94   121    1
   118    95    96    1
   119    95   122    1
   120    95   123    1
   121    96    97    1
   122    96   124    1
   123    97    98    2
   124    97    99    1
   125    99   100    1
   126    99   106    2
   127   100   101    2
   128   100   125    1
   129   101   102    1
   130   101   104    1
   131   102   103    1
   132   103   126    1
   133   103   127    1
   134   103   128    1
   135   104   105    2
   136   104   129    1
   137   105   106    1
   138   105   130    1
@<TRIPOS>SUBSTRUCTURE
     1 RES1      130 GROUP             0 ****  ****    0  
