@<TRIPOS>MOLECULE
ICIGOT_geomtry_0_nunpairedes_0_charge_1 Charge: 1 Unpaired_Electrons: 0 XTB_Unpaired_Electrons: 0 XTB_Charge: 1
   103   111     1     0     0
SMALL
NoCharges
****
Generated from Architector

@<TRIPOS>ATOM
     1 La1      -0.2323    0.0924   -0.1367   La        1 RES1   0.0000
     2 C1       -3.1782    4.1359    5.3739   C.3       1 RES1   0.0000
     3 C2       -2.6760    4.0087    3.9391   C.3       1 RES1   0.0000
     4 C3       -2.7774    5.3365    3.1880   C.3       1 RES1   0.0000
     5 C4       -2.3920    5.2496    1.7101   C.3       1 RES1   0.0000
     6 C5       -0.8883    5.3975    1.4196   C.3       1 RES1   0.0000
     7 C6       -0.0924    4.2083    1.8131   C.ar      1 RES1   0.0000
     8 N1       -0.2076    3.1500    1.0258   N.ar      1 RES1   0.0000
     9 N2        0.4104    2.0253    1.2990   N.ar      1 RES1   0.0000
    10 C7        1.1093    1.9576    2.4370   C.ar      1 RES1   0.0000
    11 C8        1.6704    0.6551    2.8170   C.ar      1 RES1   0.0000
    12 C9        2.4318    0.5167    3.9757   C.ar      1 RES1   0.0000
    13 C10       2.9282   -0.7380    4.2950   C.ar      1 RES1   0.0000
    14 C11       2.6573   -1.7944    3.4422   C.ar      1 RES1   0.0000
    15 C12       1.9106   -1.5603    2.2875   C.ar      1 RES1   0.0000
    16 C13       1.7281   -2.6005    1.2606   C.ar      1 RES1   0.0000
    17 C14       2.0208   -3.9498    1.4727   C.ar      1 RES1   0.0000
    18 C15       1.9625   -4.8248    0.3984   C.ar      1 RES1   0.0000
    19 C16       1.6593   -4.3231   -0.8580   C.ar      1 RES1   0.0000
    20 C17       1.3629   -2.9675   -0.9769   C.ar      1 RES1   0.0000
    21 C18       1.1052   -2.3345   -2.2824   C.ar      1 RES1   0.0000
    22 N3        0.5540   -1.1173   -2.2474   N.ar      1 RES1   0.0000
    23 N4        0.3149   -0.5167   -3.3842   N.ar      1 RES1   0.0000
    24 C19       0.6519   -1.0713   -4.5378   C.ar      1 RES1   0.0000
    25 C20       0.3505   -0.2575   -5.7455   C.3       1 RES1   0.0000
    26 C21      -0.6912   -0.8518   -6.7054   C.3       1 RES1   0.0000
    27 C22      -2.1063   -0.8799   -6.1269   C.3       1 RES1   0.0000
    28 C23      -2.3750   -2.0621   -5.1963   C.3       1 RES1   0.0000
    29 C24      -3.8414   -2.1207   -4.7856   C.3       1 RES1   0.0000
    30 C25       1.3441   -2.3119   -4.5484   C.ar      1 RES1   0.0000
    31 C26       1.9387   -2.9466   -5.7617   C.3       1 RES1   0.0000
    32 C27       3.4445   -3.2045   -5.5955   C.3       1 RES1   0.0000
    33 C28       4.2561   -1.9178   -5.4448   C.3       1 RES1   0.0000
    34 C29       5.7559   -2.2155   -5.3746   C.3       1 RES1   0.0000
    35 C30       6.5945   -0.9572   -5.1830   C.3       1 RES1   0.0000
    36 N5        1.5147   -2.9383   -3.3929   N.ar      1 RES1   0.0000
    37 N6        1.3576   -2.1345    0.0646   N.ar      1 RES1   0.0000
    38 N7        1.4270   -0.3545    1.9812   N.ar      1 RES1   0.0000
    39 N8        1.3532    3.0003    3.2194   N.ar      1 RES1   0.0000
    40 C31       0.8151    4.1656    2.9065   C.ar      1 RES1   0.0000
    41 C32       1.2342    5.3208    3.7415   C.3       1 RES1   0.0000
    42 C33       2.6207    5.8757    3.3593   C.3       1 RES1   0.0000
    43 C34       2.6989    6.4764    1.9554   C.3       1 RES1   0.0000
    44 C35       4.0791    7.0827    1.6769   C.3       1 RES1   0.0000
    45 C36       4.1770    7.6526    0.2663   C.3       1 RES1   0.0000
    46 H1       -3.1310    3.1782    5.8870   H         1 RES1   0.0000
    47 H2       -4.2106    4.4755    5.3846   H         1 RES1   0.0000
    48 H3       -2.5779    4.8525    5.9305   H         1 RES1   0.0000
    49 H4       -3.2711    3.2590    3.4129   H         1 RES1   0.0000
    50 H5       -1.6435    3.6501    3.9560   H         1 RES1   0.0000
    51 H6       -2.1876    6.0999    3.7017   H         1 RES1   0.0000
    52 H7       -3.8202    5.6534    3.2367   H         1 RES1   0.0000
    53 H8       -2.8898    6.0521    1.1659   H         1 RES1   0.0000
    54 H9       -2.7533    4.3022    1.3120   H         1 RES1   0.0000
    55 H10      -0.5207    6.2967    1.9092   H         1 RES1   0.0000
    56 H11      -0.7644    5.5011    0.3408   H         1 RES1   0.0000
    57 H12       2.6348    1.3785    4.5891   H         1 RES1   0.0000
    58 H13       3.5412   -0.8712    5.1724   H         1 RES1   0.0000
    59 H14       3.0599   -2.7754    3.6339   H         1 RES1   0.0000
    60 H15       2.2826   -4.3251    2.4492   H         1 RES1   0.0000
    61 H16       2.1944   -5.8702    0.5416   H         1 RES1   0.0000
    62 H17       1.6411   -4.9251   -1.7507   H         1 RES1   0.0000
    63 H18       1.2886   -0.0889   -6.2800   H         1 RES1   0.0000
    64 H19      -0.0262    0.7024   -5.3960   H         1 RES1   0.0000
    65 H20      -0.4267   -1.8641   -7.0098   H         1 RES1   0.0000
    66 H21      -0.6862   -0.2251   -7.5985   H         1 RES1   0.0000
    67 H22      -2.8097   -0.9522   -6.9597   H         1 RES1   0.0000
    68 H23      -2.3126    0.0516   -5.5980   H         1 RES1   0.0000
    69 H24      -1.7604   -1.9966   -4.2959   H         1 RES1   0.0000
    70 H25      -2.1082   -2.9878   -5.7115   H         1 RES1   0.0000
    71 H26      -4.1203   -1.2187   -4.2483   H         1 RES1   0.0000
    72 H27      -4.0335   -2.9752   -4.1413   H         1 RES1   0.0000
    73 H28      -4.4741   -2.2048   -5.6653   H         1 RES1   0.0000
    74 H29       1.7840   -2.3360   -6.6492   H         1 RES1   0.0000
    75 H30       1.4429   -3.9093   -5.9053   H         1 RES1   0.0000
    76 H31       3.8084   -3.7388   -6.4746   H         1 RES1   0.0000
    77 H32       3.6159   -3.8388   -4.7269   H         1 RES1   0.0000
    78 H33       3.9535   -1.3817   -4.5393   H         1 RES1   0.0000
    79 H34       4.0678   -1.2588   -6.2958   H         1 RES1   0.0000
    80 H35       6.0626   -2.7154   -6.2956   H         1 RES1   0.0000
    81 H36       5.9453   -2.9044   -4.5486   H         1 RES1   0.0000
    82 H37       6.4455   -0.2673   -6.0095   H         1 RES1   0.0000
    83 H38       7.6499   -1.2132   -5.1338   H         1 RES1   0.0000
    84 H39       6.3198   -0.4510   -4.2605   H         1 RES1   0.0000
    85 H40       1.2993    4.9467    4.7631   H         1 RES1   0.0000
    86 H41       0.5109    6.1306    3.6972   H         1 RES1   0.0000
    87 H42       3.3772    5.0958    3.4573   H         1 RES1   0.0000
    88 H43       2.8590    6.6589    4.0805   H         1 RES1   0.0000
    89 H44       1.9487    7.2634    1.8497   H         1 RES1   0.0000
    90 H45       2.4897    5.7153    1.1970   H         1 RES1   0.0000
    91 H46       4.8470    6.3173    1.8112   H         1 RES1   0.0000
    92 H47       4.2778    7.8755    2.4011   H         1 RES1   0.0000
    93 H48       3.9987    6.8758   -0.4732   H         1 RES1   0.0000
    94 H49       5.1665    8.0679    0.0959   H         1 RES1   0.0000
    95 H50       3.4438    8.4414    0.1199   H         1 RES1   0.0000
    96 N9       -2.1484   -1.3230    0.7188   N.3       1 RES1   0.0000
    97 O1       -3.1522   -1.8489    1.0560   O.2       1 RES1   0.0000
    98 O2       -1.4121   -0.7253    1.5225   O.co2     1 RES1   0.0000
    99 O3       -1.7432   -1.3853   -0.4582   O.co2     1 RES1   0.0000
   100 N10      -1.7769    1.8699   -1.2592   N.3       1 RES1   0.0000
   101 O4       -2.4363    2.6607   -1.8446   O.2       1 RES1   0.0000
   102 O5       -0.6080    1.6099   -1.6139   O.co2     1 RES1   0.0000
   103 O6       -2.1972    1.2580   -0.2625   O.co2     1 RES1   0.0000
@<TRIPOS>BOND
     1     1     9    1
     2     1    22    1
     3     1    37    1
     4     1    38    1
     5     1    98    1
     6     1    99    1
     7     1   102    1
     8     1   103    1
     9     2     3    1
    10     2    46    1
    11     2    47    1
    12     2    48    1
    13     3     4    1
    14     3    49    1
    15     3    50    1
    16     4     5    1
    17     4    51    1
    18     4    52    1
    19     5     6    1
    20     5    53    1
    21     5    54    1
    22     6     7    1
    23     6    55    1
    24     6    56    1
    25     7     8    1
    26     7    40    2
    27     8     9    2
    28     9    10    1
    29    10    11    1
    30    10    39    2
    31    11    12    1
    32    11    38    2
    33    12    13    2
    34    12    57    1
    35    13    14    1
    36    13    58    1
    37    14    15    2
    38    14    59    1
    39    15    16    1
    40    15    38    1
    41    16    17    1
    42    16    37    2
    43    17    18    2
    44    17    60    1
    45    18    19    1
    46    18    61    1
    47    19    20    2
    48    19    62    1
    49    20    21    1
    50    20    37    1
    51    21    22    1
    52    21    36    2
    53    22    23    2
    54    23    24    1
    55    24    25    1
    56    24    30    2
    57    25    26    1
    58    25    63    1
    59    25    64    1
    60    26    27    1
    61    26    65    1
    62    26    66    1
    63    27    28    1
    64    27    67    1
    65    27    68    1
    66    28    29    1
    67    28    69    1
    68    28    70    1
    69    29    71    1
    70    29    72    1
    71    29    73    1
    72    30    31    1
    73    30    36    1
    74    31    32    1
    75    31    74    1
    76    31    75    1
    77    32    33    1
    78    32    76    1
    79    32    77    1
    80    33    34    1
    81    33    78    1
    82    33    79    1
    83    34    35    1
    84    34    80    1
    85    34    81    1
    86    35    82    1
    87    35    83    1
    88    35    84    1
    89    39    40    1
    90    40    41    1
    91    41    42    1
    92    41    85    1
    93    41    86    1
    94    42    43    1
    95    42    87    1
    96    42    88    1
    97    43    44    1
    98    43    89    1
    99    43    90    1
   100    44    45    1
   101    44    91    1
   102    44    92    1
   103    45    93    1
   104    45    94    1
   105    45    95    1
   106    96    97    2
   107    96    98    1
   108    96    99    1
   109   100   101    2
   110   100   102    1
   111   100   103    1
@<TRIPOS>SUBSTRUCTURE
     1 RES1      103 GROUP             0 ****  ****    0  
