@<TRIPOS>MOLECULE
am_c3_9H2O_c0_0_nunpairedes_0_charge_3 Charge: 3 Unpaired_Electrons: 5 XTB_Unpaired_Electrons: 0 XTB_Charge: 3
   148   161     1     0     0
SMALL
NoCharges
****
Generated from Architector

@<TRIPOS>ATOM
     1 Sm1      -0.0363   -0.0275   -0.0056   Sm        1 RES1   0.0000
     2 C1        2.8110   -4.4420   -0.4626   C.3       1 RES1   0.0000
     3 C2        3.5682   -3.2037   -0.9219   C.3       1 RES1   0.0000
     4 N1        3.7751   -2.2452    0.1631   N.am      1 RES1   0.0000
     5 C3        2.6994   -1.5591    0.5523   C.2       1 RES1   0.0000
     6 O1        1.6153   -1.7302   -0.0459   O.2       1 RES1   0.0000
     7 C4        2.6578   -0.6224    1.7308   C.ar      1 RES1   0.0000
     8 C5        3.5066   -0.6375    2.8329   C.ar      1 RES1   0.0000
     9 C6        3.2241    0.2381    3.8738   C.ar      1 RES1   0.0000
    10 C7        2.1308    1.0946    3.8042   C.ar      1 RES1   0.0000
    11 C8        1.2883    1.0146    2.6954   C.ar      1 RES1   0.0000
    12 C9        0.0489    1.8425    2.5221   C.ar      1 RES1   0.0000
    13 C10      -0.1396    3.0780    3.1440   C.ar      1 RES1   0.0000
    14 C11      -1.2400    3.8493    2.7862   C.ar      1 RES1   0.0000
    15 C12      -2.1501    3.3858    1.8444   C.ar      1 RES1   0.0000
    16 C13      -1.9583    2.1001    1.3393   C.ar      1 RES1   0.0000
    17 C14      -2.7855    1.4307    0.2686   C.2       1 RES1   0.0000
    18 O2       -2.2637    0.4489   -0.3134   O.2       1 RES1   0.0000
    19 N2       -3.9608    1.9247   -0.1440   N.am      1 RES1   0.0000
    20 C15      -4.4842    1.4611   -1.4284   C.3       1 RES1   0.0000
    21 C16      -4.0690    2.3493   -2.6013   C.3       1 RES1   0.0000
    22 C17      -4.8943    2.5462    0.7219   C.ar      1 RES1   0.0000
    23 C18      -4.8838    2.1574    2.0566   C.ar      1 RES1   0.0000
    24 C19      -5.8144    2.6533    2.9485   C.ar      1 RES1   0.0000
    25 C20      -5.7913    2.2254    4.3762   C.3       1 RES1   0.0000
    26 C21      -6.7878    3.5272    2.4767   C.ar      1 RES1   0.0000
    27 C22      -6.8453    3.8928    1.1402   C.ar      1 RES1   0.0000
    28 C23      -7.9114    4.8088    0.6392   C.3       1 RES1   0.0000
    29 C24      -5.8854    3.3977    0.2580   C.ar      1 RES1   0.0000
    30 N3       -0.8773    1.3782    1.6735   N.ar      1 RES1   0.0000
    31 N4        1.5751    0.1651    1.7018   N.ar      1 RES1   0.0000
    32 C25       5.1256   -1.9766    0.4985   C.ar      1 RES1   0.0000
    33 C26       5.5495   -0.6560    0.5740   C.ar      1 RES1   0.0000
    34 C27       6.8691   -0.3553    0.8652   C.ar      1 RES1   0.0000
    35 C28       7.3220    1.0629    0.9647   C.3       1 RES1   0.0000
    36 C29       7.7715   -1.3965    1.0500   C.ar      1 RES1   0.0000
    37 C30       7.3815   -2.7210    0.9249   C.ar      1 RES1   0.0000
    38 C31       8.3620   -3.8323    1.1009   C.3       1 RES1   0.0000
    39 C32       6.0463   -3.0047    0.6417   C.ar      1 RES1   0.0000
    40 H1        2.7106   -5.1178   -1.3083   H         1 RES1   0.0000
    41 H2        1.8222   -4.1683   -0.1012   H         1 RES1   0.0000
    42 H3        3.3358   -4.9549    0.3402   H         1 RES1   0.0000
    43 H4        2.9989   -2.7051   -1.7131   H         1 RES1   0.0000
    44 H5        4.5448   -3.4803   -1.3163   H         1 RES1   0.0000
    45 H6        4.3353   -1.3252    2.8929   H         1 RES1   0.0000
    46 H7        3.8369    0.2376    4.7630   H         1 RES1   0.0000
    47 H8        1.9293    1.7859    4.6071   H         1 RES1   0.0000
    48 H9        0.5795    3.4554    3.8510   H         1 RES1   0.0000
    49 H10      -1.3829    4.8274    3.2247   H         1 RES1   0.0000
    50 H11      -2.9743    4.0057    1.5190   H         1 RES1   0.0000
    51 H12      -5.5708    1.4410   -1.3652   H         1 RES1   0.0000
    52 H13      -4.1182    0.4447   -1.5854   H         1 RES1   0.0000
    53 H14      -4.3924    3.3810   -2.4833   H         1 RES1   0.0000
    54 H15      -4.5080    1.9496   -3.5130   H         1 RES1   0.0000
    55 H16      -2.9934    2.3699   -2.7364   H         1 RES1   0.0000
    56 H17      -4.1647    1.4218    2.3798   H         1 RES1   0.0000
    57 H18      -4.9323    1.5948    4.5894   H         1 RES1   0.0000
    58 H19      -6.6950    1.6681    4.6129   H         1 RES1   0.0000
    59 H20      -5.7555    3.0944    5.0279   H         1 RES1   0.0000
    60 H21      -7.5219    3.9107    3.1667   H         1 RES1   0.0000
    61 H22      -8.5603    5.1385    1.4446   H         1 RES1   0.0000
    62 H23      -8.5230    4.3137   -0.1131   H         1 RES1   0.0000
    63 H24      -7.4651    5.6850    0.1734   H         1 RES1   0.0000
    64 H25      -5.9492    3.6749   -0.7816   H         1 RES1   0.0000
    65 H26       4.8416    0.1367    0.3825   H         1 RES1   0.0000
    66 H27       6.4971    1.7544    0.8199   H         1 RES1   0.0000
    67 H28       8.0812    1.2690    0.2142   H         1 RES1   0.0000
    68 H29       7.7653    1.2533    1.9392   H         1 RES1   0.0000
    69 H30       8.7975   -1.1660    1.2891   H         1 RES1   0.0000
    70 H31       9.3491   -3.4558    1.3497   H         1 RES1   0.0000
    71 H32       8.4411   -4.4222    0.1901   H         1 RES1   0.0000
    72 H33       8.0428   -4.5028    1.8958   H         1 RES1   0.0000
    73 H34       5.7434   -4.0338    0.5404   H         1 RES1   0.0000
    74 C33       0.9096    5.0656   -0.1149   C.3       1 RES1   0.0000
    75 C34       2.2444    4.3302   -0.0475   C.3       1 RES1   0.0000
    76 N5        2.4768    3.4492   -1.1916   N.am      1 RES1   0.0000
    77 C35       1.8453    2.2710   -1.1844   C.2       1 RES1   0.0000
    78 O3        1.1625    1.9511   -0.1850   O.2       1 RES1   0.0000
    79 C36       1.7440    1.3471   -2.3749   C.ar      1 RES1   0.0000
    80 C37       1.9484    1.7145   -3.7030   C.ar      1 RES1   0.0000
    81 C38       1.5805    0.8097   -4.6908   C.ar      1 RES1   0.0000
    82 C39       0.9815   -0.3966   -4.3512   C.ar      1 RES1   0.0000
    83 C40       0.7444   -0.6769   -3.0053   C.ar      1 RES1   0.0000
    84 C41       0.0078   -1.8988   -2.5373   C.ar      1 RES1   0.0000
    85 C42       0.0240   -3.1126   -3.2233   C.ar      1 RES1   0.0000
    86 C43      -0.5343   -4.2304   -2.6108   C.ar      1 RES1   0.0000
    87 C44      -1.0558   -4.1384   -1.3277   C.ar      1 RES1   0.0000
    88 C45      -1.1150   -2.8800   -0.7343   C.ar      1 RES1   0.0000
    89 C46      -1.4777   -2.6327    0.7112   C.2       1 RES1   0.0000
    90 O4       -0.8892   -1.6847    1.2812   O.2       1 RES1   0.0000
    91 N6       -2.2938   -3.4269    1.4050   N.am      1 RES1   0.0000
    92 C47      -2.4089   -3.1522    2.8364   C.3       1 RES1   0.0000
    93 C48      -1.1795   -3.5861    3.6237   C.3       1 RES1   0.0000
    94 C49      -3.2500   -4.3170    0.8559   C.ar      1 RES1   0.0000
    95 C50      -3.8970   -3.9584   -0.3208   C.ar      1 RES1   0.0000
    96 C51      -4.8666   -4.7787   -0.8698   C.ar      1 RES1   0.0000
    97 C52      -5.5586   -4.3999   -2.1359   C.3       1 RES1   0.0000
    98 C53      -5.2083   -5.9500   -0.2050   C.ar      1 RES1   0.0000
    99 C54      -4.6043   -6.3084    0.9900   C.ar      1 RES1   0.0000
   100 C55      -5.0066   -7.5576    1.7010   C.3       1 RES1   0.0000
   101 C56      -3.6140   -5.4812    1.5181   C.ar      1 RES1   0.0000
   102 N7       -0.6305   -1.7987   -1.3628   N.ar      1 RES1   0.0000
   103 N8        1.1612    0.1775   -2.0590   N.ar      1 RES1   0.0000
   104 C57       3.5525    3.8001   -2.0399   C.ar      1 RES1   0.0000
   105 C58       4.4222    2.7928   -2.4360   C.ar      1 RES1   0.0000
   106 C59       5.4904    3.0649   -3.2699   C.ar      1 RES1   0.0000
   107 C60       6.3752    1.9597   -3.7376   C.3       1 RES1   0.0000
   108 C61       5.7188    4.3812   -3.6551   C.ar      1 RES1   0.0000
   109 C62       4.9068    5.4141   -3.2099   C.ar      1 RES1   0.0000
   110 C63       5.1784    6.8292   -3.5987   C.3       1 RES1   0.0000
   111 C64       3.8108    5.1144   -2.4012   C.ar      1 RES1   0.0000
   112 H35       0.8295    5.7107    0.7582   H         1 RES1   0.0000
   113 H36       0.0828    4.3566   -0.1052   H         1 RES1   0.0000
   114 H37       0.8276    5.6839   -1.0069   H         1 RES1   0.0000
   115 H38       2.2675    3.7177    0.8574   H         1 RES1   0.0000
   116 H39       3.0611    5.0488   -0.0058   H         1 RES1   0.0000
   117 H40       2.3215    2.6911   -3.9692   H         1 RES1   0.0000
   118 H41       1.7019    1.0649   -5.7337   H         1 RES1   0.0000
   119 H42       0.6545   -1.0796   -5.1177   H         1 RES1   0.0000
   120 H43       0.4965   -3.2007   -4.1877   H         1 RES1   0.0000
   121 H44      -0.5134   -5.1907   -3.1059   H         1 RES1   0.0000
   122 H45      -1.3838   -5.0148   -0.7885   H         1 RES1   0.0000
   123 H46      -3.2967   -3.6613    3.2079   H         1 RES1   0.0000
   124 H47      -2.5433   -2.0748    2.9644   H         1 RES1   0.0000
   125 H48      -0.9887   -4.6518    3.5206   H         1 RES1   0.0000
   126 H49      -1.3515   -3.3606    4.6739   H         1 RES1   0.0000
   127 H50      -0.2969   -3.0458    3.2863   H         1 RES1   0.0000
   128 H51      -3.6570   -3.0173   -0.7914   H         1 RES1   0.0000
   129 H52      -5.1441   -3.4888   -2.5578   H         1 RES1   0.0000
   130 H53      -6.6181   -4.2433   -1.9460   H         1 RES1   0.0000
   131 H54      -5.4697   -5.1962   -2.8709   H         1 RES1   0.0000
   132 H55      -5.9723   -6.5849   -0.6241   H         1 RES1   0.0000
   133 H56      -5.7626   -8.1002    1.1410   H         1 RES1   0.0000
   134 H57      -5.4106   -7.3234    2.6842   H         1 RES1   0.0000
   135 H58      -4.1489   -8.2109    1.8468   H         1 RES1   0.0000
   136 H59      -3.1390   -5.7623    2.4441   H         1 RES1   0.0000
   137 H60       4.2593    1.7905   -2.0730   H         1 RES1   0.0000
   138 H61       6.0276    0.9956   -3.3764   H         1 RES1   0.0000
   139 H62       7.3927    2.1140   -3.3880   H         1 RES1   0.0000
   140 H63       6.3984    1.9312   -4.8244   H         1 RES1   0.0000
   141 H64       6.5500    4.6002   -4.3062   H         1 RES1   0.0000
   142 H65       6.0387    6.9041   -4.2562   H         1 RES1   0.0000
   143 H66       5.3687    7.4383   -2.7172   H         1 RES1   0.0000
   144 H67       4.3187    7.2571   -4.1100   H         1 RES1   0.0000
   145 H68       3.1770    5.9211   -2.0709   H         1 RES1   0.0000
   146 O5       -0.8358    1.9412   -1.9375   O.3       1 RES1   0.0000
   147 H69      -1.1921    2.8055   -1.6944   H         1 RES1   0.0000
   148 H70      -1.4012    1.5639   -2.6271   H         1 RES1   0.0000
@<TRIPOS>BOND
     1     1     6    1
     2     1    18    1
     3     1    30    1
     4     1    31    1
     5     1    78    1
     6     1    90    1
     7     1   102    1
     8     1   103    1
     9     1   146    1
    10     2     3    1
    11     2    40    1
    12     2    41    1
    13     2    42    1
    14     3     4    1
    15     3    43    1
    16     3    44    1
    17     4     5    1
    18     4    32    1
    19     5     6    2
    20     5     7    1
    21     7     8    1
    22     7    31    2
    23     8     9    2
    24     8    45    1
    25     9    10    1
    26     9    46    1
    27    10    11    2
    28    10    47    1
    29    11    12    1
    30    11    31    1
    31    12    13    1
    32    12    30    2
    33    13    14    2
    34    13    48    1
    35    14    15    1
    36    14    49    1
    37    15    16    2
    38    15    50    1
    39    16    17    1
    40    16    30    1
    41    17    18    2
    42    17    19    1
    43    19    20    1
    44    19    22    1
    45    20    21    1
    46    20    51    1
    47    20    52    1
    48    21    53    1
    49    21    54    1
    50    21    55    1
    51    22    23    1
    52    22    29    2
    53    23    24    2
    54    23    56    1
    55    24    25    1
    56    24    26    1
    57    25    57    1
    58    25    58    1
    59    25    59    1
    60    26    27    2
    61    26    60    1
    62    27    28    1
    63    27    29    1
    64    28    61    1
    65    28    62    1
    66    28    63    1
    67    29    64    1
    68    32    33    1
    69    32    39    2
    70    33    34    2
    71    33    65    1
    72    34    35    1
    73    34    36    1
    74    35    66    1
    75    35    67    1
    76    35    68    1
    77    36    37    2
    78    36    69    1
    79    37    38    1
    80    37    39    1
    81    38    70    1
    82    38    71    1
    83    38    72    1
    84    39    73    1
    85    74    75    1
    86    74   112    1
    87    74   113    1
    88    74   114    1
    89    75    76    1
    90    75   115    1
    91    75   116    1
    92    76    77    1
    93    76   104    1
    94    77    78    2
    95    77    79    1
    96    79    80    1
    97    79   103    2
    98    80    81    2
    99    80   117    1
   100    81    82    1
   101    81   118    1
   102    82    83    2
   103    82   119    1
   104    83    84    1
   105    83   103    1
   106    84    85    1
   107    84   102    2
   108    85    86    2
   109    85   120    1
   110    86    87    1
   111    86   121    1
   112    87    88    2
   113    87   122    1
   114    88    89    1
   115    88   102    1
   116    89    90    2
   117    89    91    1
   118    91    92    1
   119    91    94    1
   120    92    93    1
   121    92   123    1
   122    92   124    1
   123    93   125    1
   124    93   126    1
   125    93   127    1
   126    94    95    1
   127    94   101    2
   128    95    96    2
   129    95   128    1
   130    96    97    1
   131    96    98    1
   132    97   129    1
   133    97   130    1
   134    97   131    1
   135    98    99    2
   136    98   132    1
   137    99   100    1
   138    99   101    1
   139   100   133    1
   140   100   134    1
   141   100   135    1
   142   101   136    1
   143   104   105    1
   144   104   111    2
   145   105   106    2
   146   105   137    1
   147   106   107    1
   148   106   108    1
   149   107   138    1
   150   107   139    1
   151   107   140    1
   152   108   109    2
   153   108   141    1
   154   109   110    1
   155   109   111    1
   156   110   142    1
   157   110   143    1
   158   110   144    1
   159   111   145    1
   160   146   147    1
   161   146   148    1
@<TRIPOS>SUBSTRUCTURE
     1 RES1      148 GROUP             0 ****  ****    0  
