@<TRIPOS>MOLECULE
tri_tri_mer_capped_0_nunpairedes_0_charge_3 Charge: 3 Unpaired_Electrons: 5 XTB_Unpaired_Electrons: 0 XTB_Charge: 3
   286   291     1     0     0
SMALL
NoCharges
****
Generated from Architector

@<TRIPOS>ATOM
     1 Sm1       0.4047   -0.0130    0.0755   Sm        1 RES1   0.0000
     2 C1        5.9921    7.0333    1.2608   C.3       1 RES1   0.0000
     3 C2        5.2988    7.8531    0.1786   C.3       1 RES1   0.0000
     4 C3        5.6939    7.3452   -1.2061   C.3       1 RES1   0.0000
     5 C4        3.7748    7.8228    0.3111   C.3       1 RES1   0.0000
     6 C5        3.2316    8.1631    1.6994   C.3       1 RES1   0.0000
     7 C6        1.6998    8.1904    1.6792   C.3       1 RES1   0.0000
     8 C7        1.0568    7.9670    3.0613   C.3       1 RES1   0.0000
     9 C8       -0.3756    8.4966    3.0625   C.3       1 RES1   0.0000
    10 C9        1.2223    6.4829    3.5137   C.3       1 RES1   0.0000
    11 C10      -0.0189    5.6385    3.8607   C.3       1 RES1   0.0000
    12 C11       0.3684    4.1494    3.9701   C.3       1 RES1   0.0000
    13 C12      -0.7771    3.2024    4.3475   C.3       1 RES1   0.0000
    14 N1       -0.3686    1.8020    4.5641   N.am      1 RES1   0.0000
    15 C13      -0.3944    1.3349    5.9406   C.3       1 RES1   0.0000
    16 C14      -0.0270    0.9808    3.5682   C.2       1 RES1   0.0000
    17 O1        0.0837    1.3160    2.3789   O.2       1 RES1   0.0000
    18 C15       0.2861   -0.4841    3.9251   C.3       1 RES1   0.0000
    19 O2        0.3629   -1.2318    2.7155   O.3       1 RES1   0.0000
    20 C16       1.1560   -2.4187    2.7844   C.3       1 RES1   0.0000
    21 C17       2.1662   -2.3297    1.6315   C.2       1 RES1   0.0000
    22 O3        1.9069   -1.5410    0.7006   O.2       1 RES1   0.0000
    23 N2        3.3069   -2.9980    1.6788   N.am      1 RES1   0.0000
    24 C18       4.3432   -2.6810    0.7073   C.3       1 RES1   0.0000
    25 C19       3.5390   -4.1796    2.4938   C.3       1 RES1   0.0000
    26 C20       3.6817   -5.4290    1.6072   C.3       1 RES1   0.0000
    27 C21       3.5122   -6.7199    2.4148   C.3       1 RES1   0.0000
    28 C22       2.0369   -7.0647    2.6292   C.3       1 RES1   0.0000
    29 C23       1.4025   -7.7565    1.4105   C.3       1 RES1   0.0000
    30 C24       1.7452   -9.2459    1.4246   C.3       1 RES1   0.0000
    31 C25      -0.1237   -7.5756    1.4095   C.3       1 RES1   0.0000
    32 C26      -0.6200   -6.2318    0.8416   C.3       1 RES1   0.0000
    33 C27      -1.3836   -6.3291   -0.4906   C.3       1 RES1   0.0000
    34 C28      -0.5185   -6.4148   -1.7586   C.3       1 RES1   0.0000
    35 C29      -0.0501   -7.8382   -2.0494   C.3       1 RES1   0.0000
    36 C30      -1.3109   -5.9074   -2.9670   C.3       1 RES1   0.0000
    37 H1        7.0615    7.0091    1.0801   H         1 RES1   0.0000
    38 H2        5.6274    6.0084    1.2701   H         1 RES1   0.0000
    39 H3        5.8292    7.4693    2.2407   H         1 RES1   0.0000
    40 H4        5.6248    8.8898    0.2753   H         1 RES1   0.0000
    41 H5        5.4444    6.2911   -1.3166   H         1 RES1   0.0000
    42 H6        6.7621    7.4557   -1.3631   H         1 RES1   0.0000
    43 H7        5.1732    7.9006   -1.9799   H         1 RES1   0.0000
    44 H8        3.3549    8.5209   -0.4159   H         1 RES1   0.0000
    45 H9        3.4289    6.8261    0.0265   H         1 RES1   0.0000
    46 H10       3.6048    9.1408    2.0065   H         1 RES1   0.0000
    47 H11       3.5862    7.4342    2.4298   H         1 RES1   0.0000
    48 H12       1.3400    7.4346    0.9766   H         1 RES1   0.0000
    49 H13       1.3820    9.1547    1.2792   H         1 RES1   0.0000
    50 H14       1.6149    8.5890    3.7659   H         1 RES1   0.0000
    51 H15      -1.0571    7.9018    2.4574   H         1 RES1   0.0000
    52 H16      -0.3776    9.5092    2.6601   H         1 RES1   0.0000
    53 H17      -0.7694    8.5457    4.0745   H         1 RES1   0.0000
    54 H18       1.8860    6.4479    4.3808   H         1 RES1   0.0000
    55 H19       1.7636    5.9884    2.7093   H         1 RES1   0.0000
    56 H20      -0.7970    5.7576    3.1108   H         1 RES1   0.0000
    57 H21      -0.4327    5.9867    4.8055   H         1 RES1   0.0000
    58 H22       1.1447    4.0377    4.7260   H         1 RES1   0.0000
    59 H23       0.7850    3.8160    3.0218   H         1 RES1   0.0000
    60 H24      -1.5567    3.2205    3.5830   H         1 RES1   0.0000
    61 H25      -1.2411    3.5523    5.2679   H         1 RES1   0.0000
    62 H26      -0.3725    2.1798    6.6211   H         1 RES1   0.0000
    63 H27       0.4663    0.7119    6.1665   H         1 RES1   0.0000
    64 H28      -1.3017    0.7698    6.1588   H         1 RES1   0.0000
    65 H29      -0.4807   -0.9105    4.5901   H         1 RES1   0.0000
    66 H30       1.2523   -0.4993    4.4544   H         1 RES1   0.0000
    67 H31       0.4964   -3.2887    2.6575   H         1 RES1   0.0000
    68 H32       1.6662   -2.4921    3.7517   H         1 RES1   0.0000
    69 H33       4.3841   -1.6024    0.5507   H         1 RES1   0.0000
    70 H34       4.1687   -3.1790   -0.2477   H         1 RES1   0.0000
    71 H35       5.2995   -3.0158    1.1011   H         1 RES1   0.0000
    72 H36       2.7009   -4.3027    3.1780   H         1 RES1   0.0000
    73 H37       4.4480   -4.0305    3.0829   H         1 RES1   0.0000
    74 H38       4.6578   -5.4252    1.1202   H         1 RES1   0.0000
    75 H39       2.9142   -5.4037    0.8290   H         1 RES1   0.0000
    76 H40       4.0296   -6.6180    3.3702   H         1 RES1   0.0000
    77 H41       3.9836   -7.5404    1.8738   H         1 RES1   0.0000
    78 H42       1.4804   -6.1557    2.8675   H         1 RES1   0.0000
    79 H43       1.9377   -7.7291    3.4864   H         1 RES1   0.0000
    80 H44       1.8107   -7.3163    0.4940   H         1 RES1   0.0000
    81 H45       1.2625   -9.7308    2.2714   H         1 RES1   0.0000
    82 H46       2.8190   -9.4005    1.5075   H         1 RES1   0.0000
    83 H47       1.4071   -9.7303    0.5103   H         1 RES1   0.0000
    84 H48      -0.4660   -7.6934    2.4390   H         1 RES1   0.0000
    85 H49      -0.5801   -8.3835    0.8394   H         1 RES1   0.0000
    86 H50       0.2214   -5.5390    0.7188   H         1 RES1   0.0000
    87 H51      -1.2980   -5.7755    1.5707   H         1 RES1   0.0000
    88 H52      -2.0035   -5.4312   -0.5742   H         1 RES1   0.0000
    89 H53      -2.0637   -7.1820   -0.4580   H         1 RES1   0.0000
    90 H54       0.3610   -5.7677   -1.6237   H         1 RES1   0.0000
    91 H55      -0.9066   -8.4897   -2.2057   H         1 RES1   0.0000
    92 H56       0.5404   -8.2388   -1.2335   H         1 RES1   0.0000
    93 H57       0.5551   -7.8594   -2.9529   H         1 RES1   0.0000
    94 H58      -2.1433   -6.5753   -3.1740   H         1 RES1   0.0000
    95 H59      -0.6792   -5.8822   -3.8512   H         1 RES1   0.0000
    96 H60      -1.7112   -4.9059   -2.7997   H         1 RES1   0.0000
    97 C31      -4.8393    4.0960    4.8030   C.3       1 RES1   0.0000
    98 C32      -5.9339    3.5317    3.8965   C.3       1 RES1   0.0000
    99 C33      -5.7723    2.0182    3.7355   C.3       1 RES1   0.0000
   100 C34      -6.0269    4.2776    2.5502   C.3       1 RES1   0.0000
   101 C35      -4.8761    4.0149    1.5706   C.3       1 RES1   0.0000
   102 C36      -5.0039    4.7946    0.2416   C.3       1 RES1   0.0000
   103 C37      -5.4437    3.9931   -1.0067   C.3       1 RES1   0.0000
   104 C38      -6.8809    3.5191   -0.8503   C.3       1 RES1   0.0000
   105 C39      -4.4750    2.8294   -1.2598   C.3       1 RES1   0.0000
   106 C40      -4.3374    2.1885   -2.6432   C.3       1 RES1   0.0000
   107 C41      -3.4559    0.9374   -2.4843   C.3       1 RES1   0.0000
   108 C42      -2.8199    0.4557   -3.7883   C.3       1 RES1   0.0000
   109 N3       -2.0495   -0.7824   -3.6271   N.am      1 RES1   0.0000
   110 C43      -2.3975   -1.8510   -4.5374   C.3       1 RES1   0.0000
   111 C44      -0.9904   -0.8113   -2.8258   C.2       1 RES1   0.0000
   112 O4       -0.6663    0.1392   -2.0961   O.2       1 RES1   0.0000
   113 C45      -0.1017   -2.0693   -2.7580   C.3       1 RES1   0.0000
   114 O5        1.0432   -1.7814   -1.9625   O.3       1 RES1   0.0000
   115 C46       2.2400   -1.4719   -2.6791   C.3       1 RES1   0.0000
   116 C47       2.8517   -0.1603   -2.1686   C.2       1 RES1   0.0000
   117 O6        2.3233    0.4246   -1.2054   O.2       1 RES1   0.0000
   118 N4        3.9378    0.3149   -2.7699   N.am      1 RES1   0.0000
   119 C48       4.6724   -0.3706   -3.8138   C.3       1 RES1   0.0000
   120 C49       4.4472    1.6154   -2.3346   C.3       1 RES1   0.0000
   121 C50       3.5476    2.7581   -2.8250   C.3       1 RES1   0.0000
   122 C51       3.7727    3.1203   -4.2990   C.3       1 RES1   0.0000
   123 C52       2.5757    3.8321   -4.9357   C.3       1 RES1   0.0000
   124 C53       1.2985    2.9910   -5.1039   C.3       1 RES1   0.0000
   125 C54       0.1861    3.9191   -5.5946   C.3       1 RES1   0.0000
   126 C55       1.5276    1.8288   -6.0811   C.3       1 RES1   0.0000
   127 C56       0.3311    0.8845   -6.1742   C.3       1 RES1   0.0000
   128 C57       0.4321   -0.1922   -7.2612   C.3       1 RES1   0.0000
   129 C58       1.2766   -1.4286   -6.9131   C.3       1 RES1   0.0000
   130 C59       2.7689   -1.2238   -7.1739   C.3       1 RES1   0.0000
   131 C60       0.8005   -2.6279   -7.7372   C.3       1 RES1   0.0000
   132 H61      -4.8497    3.5874    5.7649   H         1 RES1   0.0000
   133 H62      -3.8517    3.9730    4.3605   H         1 RES1   0.0000
   134 H63      -5.0035    5.1552    4.9829   H         1 RES1   0.0000
   135 H64      -6.8910    3.6967    4.4018   H         1 RES1   0.0000
   136 H65      -6.5078    1.6298    3.0340   H         1 RES1   0.0000
   137 H66      -4.7730    1.7575    3.3843   H         1 RES1   0.0000
   138 H67      -5.9291    1.5296    4.6946   H         1 RES1   0.0000
   139 H68      -6.9644    3.9951    2.0685   H         1 RES1   0.0000
   140 H69      -6.0818    5.3465    2.7675   H         1 RES1   0.0000
   141 H70      -3.9386    4.2948    2.0624   H         1 RES1   0.0000
   142 H71      -4.8411    2.9433    1.3755   H         1 RES1   0.0000
   143 H72      -5.7277    5.5946    0.3903   H         1 RES1   0.0000
   144 H73      -4.0510    5.2826    0.0163   H         1 RES1   0.0000
   145 H74      -5.3812    4.6809   -1.8565   H         1 RES1   0.0000
   146 H75      -7.0010    2.9589    0.0721   H         1 RES1   0.0000
   147 H76      -7.5506    4.3720   -0.8167   H         1 RES1   0.0000
   148 H77      -7.1760    2.8879   -1.6797   H         1 RES1   0.0000
   149 H78      -3.4758    3.2088   -1.0507   H         1 RES1   0.0000
   150 H79      -4.7238    2.0264   -0.5607   H         1 RES1   0.0000
   151 H80      -5.3036    1.9202   -3.0632   H         1 RES1   0.0000
   152 H81      -3.8696    2.8979   -3.3264   H         1 RES1   0.0000
   153 H82      -2.6432    1.1636   -1.7902   H         1 RES1   0.0000
   154 H83      -4.0557    0.1323   -2.0524   H         1 RES1   0.0000
   155 H84      -3.5858    0.2695   -4.5407   H         1 RES1   0.0000
   156 H85      -2.1552    1.2356   -4.1686   H         1 RES1   0.0000
   157 H86      -2.0602   -1.5893   -5.5419   H         1 RES1   0.0000
   158 H87      -1.9575   -2.7956   -4.2343   H         1 RES1   0.0000
   159 H88      -3.4803   -1.9635   -4.5629   H         1 RES1   0.0000
   160 H89      -0.6226   -2.8959   -2.2561   H         1 RES1   0.0000
   161 H90       0.1850   -2.4098   -3.7577   H         1 RES1   0.0000
   162 H91       2.9566   -2.2927   -2.5310   H         1 RES1   0.0000
   163 H92       2.0432   -1.3779   -3.7526   H         1 RES1   0.0000
   164 H93       4.0086   -0.9646   -4.4369   H         1 RES1   0.0000
   165 H94       5.1723    0.3595   -4.4483   H         1 RES1   0.0000
   166 H95       5.4423   -1.0160   -3.3850   H         1 RES1   0.0000
   167 H96       4.5008    1.6158   -1.2406   H         1 RES1   0.0000
   168 H97       5.4539    1.7278   -2.7345   H         1 RES1   0.0000
   169 H98       2.5082    2.4624   -2.6622   H         1 RES1   0.0000
   170 H99       3.7433    3.6328   -2.2042   H         1 RES1   0.0000
   171 H100      4.6445    3.7747   -4.3784   H         1 RES1   0.0000
   172 H101      4.0000    2.2258   -4.8784   H         1 RES1   0.0000
   173 H102      2.3434    4.7213   -4.3447   H         1 RES1   0.0000
   174 H103      2.8806    4.1733   -5.9262   H         1 RES1   0.0000
   175 H104      0.9929    2.5718   -4.1337   H         1 RES1   0.0000
   176 H105      0.3956    4.2634   -6.6035   H         1 RES1   0.0000
   177 H106     -0.7792    3.4221   -5.6018   H         1 RES1   0.0000
   178 H107      0.1027    4.7928   -4.9525   H         1 RES1   0.0000
   179 H108      1.7407    2.2277   -7.0733   H         1 RES1   0.0000
   180 H109      2.4002    1.2648   -5.7539   H         1 RES1   0.0000
   181 H110      0.1707    0.4100   -5.1980   H         1 RES1   0.0000
   182 H111     -0.5522    1.4822   -6.3996   H         1 RES1   0.0000
   183 H112     -0.5828   -0.5379   -7.4796   H         1 RES1   0.0000
   184 H113      0.8173    0.2531   -8.1792   H         1 RES1   0.0000
   185 H114      1.1317   -1.6638   -5.8443   H         1 RES1   0.0000
   186 H115      2.9355   -1.0534   -8.2338   H         1 RES1   0.0000
   187 H116      3.1707   -0.3736   -6.6298   H         1 RES1   0.0000
   188 H117      3.3292   -2.1135   -6.8897   H         1 RES1   0.0000
   189 H118      0.8875   -2.4018   -8.7975   H         1 RES1   0.0000
   190 H119      1.4103   -3.5047   -7.5279   H         1 RES1   0.0000
   191 H120     -0.2379   -2.8768   -7.5222   H         1 RES1   0.0000
   192 C61      -7.8652    3.7145   -6.9735   C.3       1 RES1   0.0000
   193 C62      -6.9635    2.5610   -6.5357   C.3       1 RES1   0.0000
   194 C63      -5.6795    3.1124   -5.9193   C.3       1 RES1   0.0000
   195 C64      -7.6772    1.5688   -5.6009   C.3       1 RES1   0.0000
   196 C65      -8.1868    2.1744   -4.2951   C.3       1 RES1   0.0000
   197 C66      -8.9688    1.1975   -3.4081   C.3       1 RES1   0.0000
   198 C67      -8.1319    0.0577   -2.7758   C.3       1 RES1   0.0000
   199 C68      -8.4615   -1.2788   -3.4464   C.3       1 RES1   0.0000
   200 C69      -8.3410   -0.0502   -1.2473   C.3       1 RES1   0.0000
   201 C70      -7.0700   -0.0949   -0.3894   C.3       1 RES1   0.0000
   202 C71      -6.2903   -1.4071   -0.4584   C.3       1 RES1   0.0000
   203 C72      -5.2269   -1.5171    0.6578   C.3       1 RES1   0.0000
   204 N5       -3.8663   -1.6967    0.1568   N.am      1 RES1   0.0000
   205 C73      -3.6861   -2.9512   -0.5534   C.3       1 RES1   0.0000
   206 C74      -2.7901   -0.9790    0.4543   C.2       1 RES1   0.0000
   207 O7       -1.6327   -1.3563    0.1724   O.2       1 RES1   0.0000
   208 C75      -2.9243    0.4110    1.0949   C.3       1 RES1   0.0000
   209 O8       -1.7918    1.1021    0.5905   O.3       1 RES1   0.0000
   210 C76      -1.7559    2.5109    0.7681   C.3       1 RES1   0.0000
   211 C77      -0.4645    2.9485    0.0834   C.2       1 RES1   0.0000
   212 O9        0.2612    2.0696   -0.4130   O.2       1 RES1   0.0000
   213 N6       -0.0934    4.2140    0.0402   N.am      1 RES1   0.0000
   214 C78      -0.8931    5.3614    0.3886   C.3       1 RES1   0.0000
   215 C79       1.2553    4.4855   -0.4611   C.3       1 RES1   0.0000
   216 C80       2.2836    4.2713    0.6525   C.3       1 RES1   0.0000
   217 C81       2.5967    2.8350    1.0882   C.3       1 RES1   0.0000
   218 C82       3.6533    2.8445    2.2074   C.3       1 RES1   0.0000
   219 C83       3.4675    1.7442    3.2574   C.3       1 RES1   0.0000
   220 C84       3.7556    0.3669    2.6669   C.3       1 RES1   0.0000
   221 C85       4.3801    1.9705    4.4682   C.3       1 RES1   0.0000
   222 C86       3.9538    3.1436    5.3535   C.3       1 RES1   0.0000
   223 C87       5.1191    3.9737    5.8898   C.3       1 RES1   0.0000
   224 C88       5.8316    3.4276    7.1319   C.3       1 RES1   0.0000
   225 C89       6.8966    4.4510    7.5277   C.3       1 RES1   0.0000
   226 C90       6.4781    2.0562    6.9463   C.3       1 RES1   0.0000
   227 H121     -7.4283    4.2277   -7.8270   H         1 RES1   0.0000
   228 H122     -7.9912    4.4438   -6.1762   H         1 RES1   0.0000
   229 H123     -8.8448    3.3508   -7.2691   H         1 RES1   0.0000
   230 H124     -6.6849    1.9877   -7.4275   H         1 RES1   0.0000
   231 H125     -5.9015    3.7121   -5.0403   H         1 RES1   0.0000
   232 H126     -5.1632    3.7467   -6.6347   H         1 RES1   0.0000
   233 H127     -5.0090    2.3029   -5.6358   H         1 RES1   0.0000
   234 H128     -6.9905    0.7455   -5.3794   H         1 RES1   0.0000
   235 H129     -8.5278    1.1459   -6.1380   H         1 RES1   0.0000
   236 H130     -8.8484    3.0089   -4.5302   H         1 RES1   0.0000
   237 H131     -7.3482    2.5814   -3.7265   H         1 RES1   0.0000
   238 H132     -9.7796    0.7597   -3.9921   H         1 RES1   0.0000
   239 H133     -9.4368    1.7886   -2.6180   H         1 RES1   0.0000
   240 H134     -7.0694    0.2550   -2.9639   H         1 RES1   0.0000
   241 H135     -9.5040   -1.5416   -3.2921   H         1 RES1   0.0000
   242 H136     -7.8445   -2.0817   -3.0471   H         1 RES1   0.0000
   243 H137     -8.2844   -1.2195   -4.5158   H         1 RES1   0.0000
   244 H138     -8.9399   -0.9338   -1.0196   H         1 RES1   0.0000
   245 H139     -8.9147    0.8078   -0.8932   H         1 RES1   0.0000
   246 H140     -7.3867    0.0569    0.6447   H         1 RES1   0.0000
   247 H141     -6.4061    0.7219   -0.6701   H         1 RES1   0.0000
   248 H142     -5.8220   -1.4881   -1.4397   H         1 RES1   0.0000
   249 H143     -6.9962   -2.2291   -0.3617   H         1 RES1   0.0000
   250 H144     -5.4296   -2.3964    1.2789   H         1 RES1   0.0000
   251 H145     -5.2759   -0.6477    1.3120   H         1 RES1   0.0000
   252 H146     -3.7832   -3.7929    0.1349   H         1 RES1   0.0000
   253 H147     -2.7037   -2.9501   -1.0203   H         1 RES1   0.0000
   254 H148     -4.4581   -3.0416   -1.3141   H         1 RES1   0.0000
   255 H149     -2.8987    0.3271    2.1980   H         1 RES1   0.0000
   256 H150     -3.8556    0.9088    0.8026   H         1 RES1   0.0000
   257 H151     -1.7499    2.7872    1.8272   H         1 RES1   0.0000
   258 H152     -2.6162    2.9703    0.2877   H         1 RES1   0.0000
   259 H153     -1.0827    5.9493   -0.5124   H         1 RES1   0.0000
   260 H154     -0.3437    5.9853    1.0929   H         1 RES1   0.0000
   261 H155     -1.8415    5.0671    0.8296   H         1 RES1   0.0000
   262 H156      1.2781    5.5313   -0.7726   H         1 RES1   0.0000
   263 H157      1.4510    3.8249   -1.3078   H         1 RES1   0.0000
   264 H158      1.9081    4.7910    1.5302   H         1 RES1   0.0000
   265 H159      3.2183    4.7474    0.3536   H         1 RES1   0.0000
   266 H160      2.9552    2.2639    0.2261   H         1 RES1   0.0000
   267 H161      1.7023    2.3458    1.4885   H         1 RES1   0.0000
   268 H162      3.5987    3.8060    2.7136   H         1 RES1   0.0000
   269 H163      4.6557    2.7726    1.7856   H         1 RES1   0.0000
   270 H164      2.4262    1.7676    3.5992   H         1 RES1   0.0000
   271 H165      4.7909    0.3081    2.3388   H         1 RES1   0.0000
   272 H166      3.0899    0.1553    1.8249   H         1 RES1   0.0000
   273 H167      3.6209   -0.4002    3.4266   H         1 RES1   0.0000
   274 H168      5.3958    2.1247    4.1071   H         1 RES1   0.0000
   275 H169      4.3963    1.0601    5.0638   H         1 RES1   0.0000
   276 H170      3.3440    2.7902    6.1894   H         1 RES1   0.0000
   277 H171      3.3298    3.8093    4.7572   H         1 RES1   0.0000
   278 H172      4.7311    4.9584    6.1608   H         1 RES1   0.0000
   279 H173      5.8525    4.1267    5.0955   H         1 RES1   0.0000
   280 H174      5.0954    3.3456    7.9400   H         1 RES1   0.0000
   281 H175      7.6299    4.5489    6.7280   H         1 RES1   0.0000
   282 H176      7.4140    4.1533    8.4358   H         1 RES1   0.0000
   283 H177      6.4421    5.4260    7.6933   H         1 RES1   0.0000
   284 H178      7.1666    2.0617    6.1046   H         1 RES1   0.0000
   285 H179      5.7368    1.2759    6.7917   H         1 RES1   0.0000
   286 H180      7.0414    1.7982    7.8405   H         1 RES1   0.0000
@<TRIPOS>BOND
     1     1    17    1
     2     1    19    1
     3     1    22    1
     4     1   112    1
     5     1   114    1
     6     1   117    1
     7     1   207    1
     8     1   209    1
     9     1   212    1
    10     2     3    1
    11     2    37    1
    12     2    38    1
    13     2    39    1
    14     3     4    1
    15     3     5    1
    16     3    40    1
    17     4    41    1
    18     4    42    1
    19     4    43    1
    20     5     6    1
    21     5    44    1
    22     5    45    1
    23     6     7    1
    24     6    46    1
    25     6    47    1
    26     7     8    1
    27     7    48    1
    28     7    49    1
    29     8     9    1
    30     8    10    1
    31     8    50    1
    32     9    51    1
    33     9    52    1
    34     9    53    1
    35    10    11    1
    36    10    54    1
    37    10    55    1
    38    11    12    1
    39    11    56    1
    40    11    57    1
    41    12    13    1
    42    12    58    1
    43    12    59    1
    44    13    14    1
    45    13    60    1
    46    13    61    1
    47    14    15    1
    48    14    16    1
    49    15    62    1
    50    15    63    1
    51    15    64    1
    52    16    17    2
    53    16    18    1
    54    18    19    1
    55    18    65    1
    56    18    66    1
    57    19    20    1
    58    20    21    1
    59    20    67    1
    60    20    68    1
    61    21    22    2
    62    21    23    1
    63    23    24    1
    64    23    25    1
    65    24    69    1
    66    24    70    1
    67    24    71    1
    68    25    26    1
    69    25    72    1
    70    25    73    1
    71    26    27    1
    72    26    74    1
    73    26    75    1
    74    27    28    1
    75    27    76    1
    76    27    77    1
    77    28    29    1
    78    28    78    1
    79    28    79    1
    80    29    30    1
    81    29    31    1
    82    29    80    1
    83    30    81    1
    84    30    82    1
    85    30    83    1
    86    31    32    1
    87    31    84    1
    88    31    85    1
    89    32    33    1
    90    32    86    1
    91    32    87    1
    92    33    34    1
    93    33    88    1
    94    33    89    1
    95    34    35    1
    96    34    36    1
    97    34    90    1
    98    35    91    1
    99    35    92    1
   100    35    93    1
   101    36    94    1
   102    36    95    1
   103    36    96    1
   104    97    98    1
   105    97   132    1
   106    97   133    1
   107    97   134    1
   108    98    99    1
   109    98   100    1
   110    98   135    1
   111    99   136    1
   112    99   137    1
   113    99   138    1
   114   100   101    1
   115   100   139    1
   116   100   140    1
   117   101   102    1
   118   101   141    1
   119   101   142    1
   120   102   103    1
   121   102   143    1
   122   102   144    1
   123   103   104    1
   124   103   105    1
   125   103   145    1
   126   104   146    1
   127   104   147    1
   128   104   148    1
   129   105   106    1
   130   105   149    1
   131   105   150    1
   132   106   107    1
   133   106   151    1
   134   106   152    1
   135   107   108    1
   136   107   153    1
   137   107   154    1
   138   108   109    1
   139   108   155    1
   140   108   156    1
   141   109   110    1
   142   109   111    1
   143   110   157    1
   144   110   158    1
   145   110   159    1
   146   111   112    2
   147   111   113    1
   148   113   114    1
   149   113   160    1
   150   113   161    1
   151   114   115    1
   152   115   116    1
   153   115   162    1
   154   115   163    1
   155   116   117    2
   156   116   118    1
   157   118   119    1
   158   118   120    1
   159   119   164    1
   160   119   165    1
   161   119   166    1
   162   120   121    1
   163   120   167    1
   164   120   168    1
   165   121   122    1
   166   121   169    1
   167   121   170    1
   168   122   123    1
   169   122   171    1
   170   122   172    1
   171   123   124    1
   172   123   173    1
   173   123   174    1
   174   124   125    1
   175   124   126    1
   176   124   175    1
   177   125   176    1
   178   125   177    1
   179   125   178    1
   180   126   127    1
   181   126   179    1
   182   126   180    1
   183   127   128    1
   184   127   181    1
   185   127   182    1
   186   128   129    1
   187   128   183    1
   188   128   184    1
   189   129   130    1
   190   129   131    1
   191   129   185    1
   192   130   186    1
   193   130   187    1
   194   130   188    1
   195   131   189    1
   196   131   190    1
   197   131   191    1
   198   192   193    1
   199   192   227    1
   200   192   228    1
   201   192   229    1
   202   193   194    1
   203   193   195    1
   204   193   230    1
   205   194   231    1
   206   194   232    1
   207   194   233    1
   208   195   196    1
   209   195   234    1
   210   195   235    1
   211   196   197    1
   212   196   236    1
   213   196   237    1
   214   197   198    1
   215   197   238    1
   216   197   239    1
   217   198   199    1
   218   198   200    1
   219   198   240    1
   220   199   241    1
   221   199   242    1
   222   199   243    1
   223   200   201    1
   224   200   244    1
   225   200   245    1
   226   201   202    1
   227   201   246    1
   228   201   247    1
   229   202   203    1
   230   202   248    1
   231   202   249    1
   232   203   204    1
   233   203   250    1
   234   203   251    1
   235   204   205    1
   236   204   206    1
   237   205   252    1
   238   205   253    1
   239   205   254    1
   240   206   207    2
   241   206   208    1
   242   208   209    1
   243   208   255    1
   244   208   256    1
   245   209   210    1
   246   210   211    1
   247   210   257    1
   248   210   258    1
   249   211   212    2
   250   211   213    1
   251   213   214    1
   252   213   215    1
   253   214   259    1
   254   214   260    1
   255   214   261    1
   256   215   216    1
   257   215   262    1
   258   215   263    1
   259   216   217    1
   260   216   264    1
   261   216   265    1
   262   217   218    1
   263   217   266    1
   264   217   267    1
   265   218   219    1
   266   218   268    1
   267   218   269    1
   268   219   220    1
   269   219   221    1
   270   219   270    1
   271   220   271    1
   272   220   272    1
   273   220   273    1
   274   221   222    1
   275   221   274    1
   276   221   275    1
   277   222   223    1
   278   222   276    1
   279   222   277    1
   280   223   224    1
   281   223   278    1
   282   223   279    1
   283   224   225    1
   284   224   226    1
   285   224   280    1
   286   225   281    1
   287   225   282    1
   288   225   283    1
   289   226   284    1
   290   226   285    1
   291   226   286    1
@<TRIPOS>SUBSTRUCTURE
     1 RES1      286 GROUP             0 ****  ****    0  
