@<TRIPOS>MOLECULE
am_c3_9H2O_c0_0_nunpairedes_0_charge_3 Charge: 3 Unpaired_Electrons: 3 XTB_Unpaired_Electrons: 0 XTB_Charge: 3
   184   198     1     0     0
SMALL
NoCharges
****
Generated from Architector

@<TRIPOS>ATOM
     1 Nd1      -0.0234    0.0283    0.0096   Nd        1 RES1   0.0000
     2 C1        0.0101   -0.5696   -7.2669   C.3       1 RES1   0.0000
     3 C2       -0.1389   -1.9890   -6.7433   C.3       1 RES1   0.0000
     4 C3        0.1935   -2.1342   -5.2467   C.3       1 RES1   0.0000
     5 C4       -0.8184   -1.8270   -4.1793   C.ar      1 RES1   0.0000
     6 N1       -0.2850   -1.2939   -3.0907   N.ar      1 RES1   0.0000
     7 N2       -0.9963   -1.0108   -2.0208   N.ar      1 RES1   0.0000
     8 C5       -2.3214   -1.1535   -2.0938   C.ar      1 RES1   0.0000
     9 C6       -3.1469   -0.6338   -0.9742   C.ar      1 RES1   0.0000
    10 C7       -4.5157   -0.8814   -0.8869   C.ar      1 RES1   0.0000
    11 C8       -5.2317   -0.2884    0.1506   C.ar      1 RES1   0.0000
    12 C9       -4.5770    0.5415    1.0471   C.ar      1 RES1   0.0000
    13 C10      -3.2039    0.7238    0.8907   C.ar      1 RES1   0.0000
    14 C11      -2.4177    1.6093    1.7778   C.ar      1 RES1   0.0000
    15 N3       -1.1115    1.3583    1.9135   N.ar      1 RES1   0.0000
    16 N4       -0.3680    2.2859    2.4956   N.ar      1 RES1   0.0000
    17 C12      -0.8872    3.3906    2.9871   C.ar      1 RES1   0.0000
    18 C13       0.0503    4.4554    3.4570   C.3       1 RES1   0.0000
    19 C14       0.5353    5.3888    2.3332   C.3       1 RES1   0.0000
    20 C15      -0.5587    6.1673    1.6120   C.3       1 RES1   0.0000
    21 C16      -2.3145    3.4593    3.1082   C.ar      1 RES1   0.0000
    22 C17      -2.9969    4.4371    3.9915   C.3       1 RES1   0.0000
    23 C18      -4.5117    4.2479    4.0852   C.3       1 RES1   0.0000
    24 C19      -5.2330    4.5775    2.7859   C.3       1 RES1   0.0000
    25 N5       -3.0334    2.5789    2.4396   N.ar      1 RES1   0.0000
    26 N6       -2.5069    0.1287   -0.0796   N.ar      1 RES1   0.0000
    27 N7       -2.9184   -1.7631   -3.1088   N.ar      1 RES1   0.0000
    28 C20      -2.2014   -2.1921   -4.1348   C.ar      1 RES1   0.0000
    29 C21      -2.9397   -3.0451   -5.1048   C.3       1 RES1   0.0000
    30 C22      -4.1333   -2.2884   -5.7269   C.3       1 RES1   0.0000
    31 C23      -3.7123   -1.0108   -6.4452   C.3       1 RES1   0.0000
    32 H1       -0.5829    0.1248   -6.6781   H         1 RES1   0.0000
    33 H2       -0.3128   -0.5196   -8.3023   H         1 RES1   0.0000
    34 H3        1.0525   -0.2663   -7.2400   H         1 RES1   0.0000
    35 H4        0.5421   -2.6370   -7.3006   H         1 RES1   0.0000
    36 H5       -1.1470   -2.3331   -6.9628   H         1 RES1   0.0000
    37 H6        1.0697   -1.5205   -5.0058   H         1 RES1   0.0000
    38 H7        0.4844   -3.1804   -5.0731   H         1 RES1   0.0000
    39 H8       -4.9904   -1.5073   -1.6280   H         1 RES1   0.0000
    40 H9       -6.2919   -0.4658    0.2559   H         1 RES1   0.0000
    41 H10      -5.1084    1.0304    1.8500   H         1 RES1   0.0000
    42 H11       0.9470    3.9775    3.8534   H         1 RES1   0.0000
    43 H12      -0.4132    5.0564    4.2378   H         1 RES1   0.0000
    44 H13       1.0904    4.7992    1.6058   H         1 RES1   0.0000
    45 H14       1.2240    6.0999    2.7902   H         1 RES1   0.0000
    46 H15      -1.2499    5.4969    1.0973   H         1 RES1   0.0000
    47 H16      -0.1113    6.8326    0.8732   H         1 RES1   0.0000
    48 H17      -1.1196    6.7907    2.3043   H         1 RES1   0.0000
    49 H18      -2.7703    5.4412    3.6229   H         1 RES1   0.0000
    50 H19      -2.5504    4.3571    4.9897   H         1 RES1   0.0000
    51 H20      -4.8890    4.8995    4.8750   H         1 RES1   0.0000
    52 H21      -4.7287    3.2160    4.3717   H         1 RES1   0.0000
    53 H22      -5.0430    5.6005    2.4836   H         1 RES1   0.0000
    54 H23      -6.3034    4.4710    2.9143   H         1 RES1   0.0000
    55 H24      -4.9095    3.9206    1.9863   H         1 RES1   0.0000
    56 H25      -3.3512   -3.8856   -4.5425   H         1 RES1   0.0000
    57 H26      -2.2891   -3.4396   -5.8783   H         1 RES1   0.0000
    58 H27      -4.8410   -2.0449   -4.9340   H         1 RES1   0.0000
    59 H28      -4.6298   -2.9513   -6.4369   H         1 RES1   0.0000
    60 H29      -3.1753   -0.3426   -5.7675   H         1 RES1   0.0000
    61 H30      -4.5887   -0.4865   -6.8228   H         1 RES1   0.0000
    62 H31      -3.0767   -1.2275   -7.3021   H         1 RES1   0.0000
    63 C24      -1.2251   -1.0174    4.8393   C.3       1 RES1   0.0000
    64 C25      -0.0443   -0.7831    5.7701   C.3       1 RES1   0.0000
    65 C26       1.2899   -1.2686    5.1663   C.3       1 RES1   0.0000
    66 C27       1.7771   -0.3797    4.0685   C.ar      1 RES1   0.0000
    67 N8        1.3835   -0.6766    2.8419   N.ar      1 RES1   0.0000
    68 N9        1.6379    0.1159    1.8172   N.ar      1 RES1   0.0000
    69 C28       2.2520    1.2793    2.0708   C.ar      1 RES1   0.0000
    70 C29       2.2736    2.3068    1.0069   C.ar      1 RES1   0.0000
    71 C30       3.2827    3.2634    0.8964   C.ar      1 RES1   0.0000
    72 C31       3.1409    4.2501   -0.0735   C.ar      1 RES1   0.0000
    73 C32       1.9903    4.2858   -0.8533   C.ar      1 RES1   0.0000
    74 C33       1.0382    3.2838   -0.6751   C.ar      1 RES1   0.0000
    75 C34      -0.2365    3.2076   -1.4234   C.ar      1 RES1   0.0000
    76 N10      -0.8261    2.0135   -1.4307   N.ar      1 RES1   0.0000
    77 N11      -1.9883    1.8854   -2.0411   N.ar      1 RES1   0.0000
    78 C35      -2.5607    2.9130   -2.6378   C.ar      1 RES1   0.0000
    79 C36      -3.8927    2.6508   -3.2638   C.3       1 RES1   0.0000
    80 C37      -4.9933    2.4176   -2.2117   C.3       1 RES1   0.0000
    81 C38      -5.2517    3.6136   -1.3036   C.3       1 RES1   0.0000
    82 C39      -1.8803    4.1686   -2.6707   C.ar      1 RES1   0.0000
    83 C40      -2.4119    5.3220   -3.4427   C.3       1 RES1   0.0000
    84 C41      -1.5610    6.5880   -3.3600   C.3       1 RES1   0.0000
    85 C42      -1.6364    7.2424   -1.9870   C.3       1 RES1   0.0000
    86 N12      -0.7224    4.2815   -2.0394   N.ar      1 RES1   0.0000
    87 N13       1.2017    2.2983    0.2122   N.ar      1 RES1   0.0000
    88 N14       2.8166    1.5670    3.2295   N.ar      1 RES1   0.0000
    89 C43       2.6420    0.7464    4.2521   C.ar      1 RES1   0.0000
    90 C44       3.3878    1.1108    5.4859   C.3       1 RES1   0.0000
    91 C45       3.0183    2.5333    5.9486   C.3       1 RES1   0.0000
    92 C46       1.5512    2.6359    6.3419   C.3       1 RES1   0.0000
    93 H32      -2.1487   -0.6972    5.3151   H         1 RES1   0.0000
    94 H33      -1.3127   -2.0769    4.6118   H         1 RES1   0.0000
    95 H34      -1.1049   -0.4737    3.9004   H         1 RES1   0.0000
    96 H35      -0.2052   -1.3321    6.6994   H         1 RES1   0.0000
    97 H36       0.0126    0.2768    6.0200   H         1 RES1   0.0000
    98 H37       1.1428   -2.2745    4.7629   H         1 RES1   0.0000
    99 H38       2.0336   -1.3223    5.9618   H         1 RES1   0.0000
   100 H39       4.1349    3.2291    1.5574   H         1 RES1   0.0000
   101 H40       3.9054    5.0026   -0.2100   H         1 RES1   0.0000
   102 H41       1.8347    5.0720   -1.5775   H         1 RES1   0.0000
   103 H42      -3.8172    1.7283   -3.8463   H         1 RES1   0.0000
   104 H43      -4.1853    3.4638   -3.9254   H         1 RES1   0.0000
   105 H44      -4.7052    1.5587   -1.6069   H         1 RES1   0.0000
   106 H45      -5.9114    2.1686   -2.7472   H         1 RES1   0.0000
   107 H46      -4.3656    3.8609   -0.7190   H         1 RES1   0.0000
   108 H47      -6.0634    3.3855   -0.6162   H         1 RES1   0.0000
   109 H48      -5.5495    4.4828   -1.8833   H         1 RES1   0.0000
   110 H49      -3.4333    5.5300   -3.1083   H         1 RES1   0.0000
   111 H50      -2.4808    4.9982   -4.4877   H         1 RES1   0.0000
   112 H51      -1.9093    7.2907   -4.1182   H         1 RES1   0.0000
   113 H52      -0.5235    6.3354   -3.5850   H         1 RES1   0.0000
   114 H53      -2.6650    7.4675   -1.7157   H         1 RES1   0.0000
   115 H54      -1.0834    8.1769   -1.9804   H         1 RES1   0.0000
   116 H55      -1.2180    6.5762   -1.2364   H         1 RES1   0.0000
   117 H56       4.4538    1.1244    5.2393   H         1 RES1   0.0000
   118 H57       3.2176    0.3958    6.2866   H         1 RES1   0.0000
   119 H58       3.2474    3.2331    5.1438   H         1 RES1   0.0000
   120 H59       3.6435    2.7822    6.8059   H         1 RES1   0.0000
   121 H60       0.9101    2.3535    5.5051   H         1 RES1   0.0000
   122 H61       1.3036    3.6504    6.6438   H         1 RES1   0.0000
   123 H62       1.3401    1.9844    7.1863   H         1 RES1   0.0000
   124 C47       0.3157    2.4938   -4.6874   C.3       1 RES1   0.0000
   125 C48       1.6331    2.1348   -5.3576   C.3       1 RES1   0.0000
   126 C49       2.8148    2.1348   -4.3695   C.3       1 RES1   0.0000
   127 C50       2.7723    0.9332   -3.4851   C.ar      1 RES1   0.0000
   128 N15       2.0579    1.0333   -2.3775   N.ar      1 RES1   0.0000
   129 N16       1.9240    0.0060   -1.5603   N.ar      1 RES1   0.0000
   130 C51       2.5377   -1.1370   -1.8702   C.ar      1 RES1   0.0000
   131 C52       2.3424   -2.2789   -0.9492   C.ar      1 RES1   0.0000
   132 C53       3.2496   -3.3379   -0.8892   C.ar      1 RES1   0.0000
   133 C54       3.0129   -4.3621    0.0193   C.ar      1 RES1   0.0000
   134 C55       1.8586   -4.3270    0.7941   C.ar      1 RES1   0.0000
   135 C56       0.9944   -3.2422    0.6458   C.ar      1 RES1   0.0000
   136 C57      -0.2842   -3.1541    1.3772   C.ar      1 RES1   0.0000
   137 N17      -0.9997   -2.0412    1.2184   N.ar      1 RES1   0.0000
   138 N18      -2.2014   -1.9898    1.7607   N.ar      1 RES1   0.0000
   139 C58      -2.6630   -2.9927    2.4864   C.ar      1 RES1   0.0000
   140 C59      -4.0509   -2.8384    3.0113   C.3       1 RES1   0.0000
   141 C60      -5.0992   -3.1898    1.9373   C.3       1 RES1   0.0000
   142 C61      -5.1215   -4.6623    1.5507   C.3       1 RES1   0.0000
   143 C62      -1.8292   -4.1253    2.7335   C.ar      1 RES1   0.0000
   144 C63      -2.2288   -5.2149    3.6603   C.3       1 RES1   0.0000
   145 C64      -1.2377   -6.3753    3.7420   C.3       1 RES1   0.0000
   146 C65      -1.1802   -7.2003    2.4614   C.3       1 RES1   0.0000
   147 N19      -0.6538   -4.1823    2.1347   N.ar      1 RES1   0.0000
   148 N20       1.2467   -2.2271   -0.1856   N.ar      1 RES1   0.0000
   149 N21       3.3121   -1.3022   -2.9345   N.ar      1 RES1   0.0000
   150 C66       3.4472   -0.2921   -3.7772   C.ar      1 RES1   0.0000
   151 C67       4.3484   -0.4808   -4.9464   C.3       1 RES1   0.0000
   152 C68       4.9593   -1.8819   -5.0350   C.3       1 RES1   0.0000
   153 C69       3.9463   -2.9804   -5.3378   C.3       1 RES1   0.0000
   154 H63      -0.4880    2.4996   -5.4205   H         1 RES1   0.0000
   155 H64       0.3796    3.4862   -4.2473   H         1 RES1   0.0000
   156 H65       0.0793    1.7746   -3.9018   H         1 RES1   0.0000
   157 H66       1.8457    2.8553   -6.1485   H         1 RES1   0.0000
   158 H67       1.5369    1.1507   -5.8151   H         1 RES1   0.0000
   159 H68       2.7450    3.0331   -3.7496   H         1 RES1   0.0000
   160 H69       3.7518    2.1668   -4.9284   H         1 RES1   0.0000
   161 H70       4.1074   -3.3333   -1.5455   H         1 RES1   0.0000
   162 H71       3.7085   -5.1837    0.1275   H         1 RES1   0.0000
   163 H72       1.6198   -5.1167    1.4919   H         1 RES1   0.0000
   164 H73      -4.1938   -1.7867    3.2746   H         1 RES1   0.0000
   165 H74      -4.2144   -3.4537    3.8952   H         1 RES1   0.0000
   166 H75      -4.8870   -2.5856    1.0541   H         1 RES1   0.0000
   167 H76      -6.0766   -2.9043    2.3307   H         1 RES1   0.0000
   168 H77      -4.1704   -4.9661    1.1164   H         1 RES1   0.0000
   169 H78      -5.9036   -4.8413    0.8170   H         1 RES1   0.0000
   170 H79      -5.3435   -5.2834    2.4139   H         1 RES1   0.0000
   171 H80      -3.2133   -5.5798    3.3586   H         1 RES1   0.0000
   172 H81      -2.3497   -4.7715    4.6549   H         1 RES1   0.0000
   173 H82      -1.5388   -7.0250    4.5657   H         1 RES1   0.0000
   174 H83      -0.2432   -5.9836    3.9643   H         1 RES1   0.0000
   175 H84      -2.1645   -7.5763    2.1919   H         1 RES1   0.0000
   176 H85      -0.5292   -8.0590    2.6028   H         1 RES1   0.0000
   177 H86      -0.8026   -6.6041    1.6320   H         1 RES1   0.0000
   178 H87       5.1615    0.2479   -4.8458   H         1 RES1   0.0000
   179 H88       3.8179   -0.2282   -5.8699   H         1 RES1   0.0000
   180 H89       5.4573   -2.0994   -4.0894   H         1 RES1   0.0000
   181 H90       5.7161   -1.8763   -5.8201   H         1 RES1   0.0000
   182 H91       3.2332   -3.0878   -4.5222   H         1 RES1   0.0000
   183 H92       4.4631   -3.9264   -5.4758   H         1 RES1   0.0000
   184 H93       3.4010   -2.7714   -6.2557   H         1 RES1   0.0000
@<TRIPOS>BOND
     1     1     7    1
     2     1    15    1
     3     1    26    1
     4     1    68    1
     5     1    76    1
     6     1    87    1
     7     1   129    1
     8     1   137    1
     9     1   148    1
    10     2     3    1
    11     2    32    1
    12     2    33    1
    13     2    34    1
    14     3     4    1
    15     3    35    1
    16     3    36    1
    17     4     5    1
    18     4    37    1
    19     4    38    1
    20     5     6    1
    21     5    28    2
    22     6     7    2
    23     7     8    1
    24     8     9    1
    25     8    27    2
    26     9    10    1
    27     9    26    2
    28    10    11    2
    29    10    39    1
    30    11    12    1
    31    11    40    1
    32    12    13    2
    33    12    41    1
    34    13    14    1
    35    13    26    1
    36    14    15    1
    37    14    25    2
    38    15    16    2
    39    16    17    1
    40    17    18    1
    41    17    21    2
    42    18    19    1
    43    18    42    1
    44    18    43    1
    45    19    20    1
    46    19    44    1
    47    19    45    1
    48    20    46    1
    49    20    47    1
    50    20    48    1
    51    21    22    1
    52    21    25    1
    53    22    23    1
    54    22    49    1
    55    22    50    1
    56    23    24    1
    57    23    51    1
    58    23    52    1
    59    24    53    1
    60    24    54    1
    61    24    55    1
    62    27    28    1
    63    28    29    1
    64    29    30    1
    65    29    56    1
    66    29    57    1
    67    30    31    1
    68    30    58    1
    69    30    59    1
    70    31    60    1
    71    31    61    1
    72    31    62    1
    73    63    64    1
    74    63    93    1
    75    63    94    1
    76    63    95    1
    77    64    65    1
    78    64    96    1
    79    64    97    1
    80    65    66    1
    81    65    98    1
    82    65    99    1
    83    66    67    1
    84    66    89    2
    85    67    68    2
    86    68    69    1
    87    69    70    1
    88    69    88    2
    89    70    71    1
    90    70    87    2
    91    71    72    2
    92    71   100    1
    93    72    73    1
    94    72   101    1
    95    73    74    2
    96    73   102    1
    97    74    75    1
    98    74    87    1
    99    75    76    1
   100    75    86    2
   101    76    77    2
   102    77    78    1
   103    78    79    1
   104    78    82    2
   105    79    80    1
   106    79   103    1
   107    79   104    1
   108    80    81    1
   109    80   105    1
   110    80   106    1
   111    81   107    1
   112    81   108    1
   113    81   109    1
   114    82    83    1
   115    82    86    1
   116    83    84    1
   117    83   110    1
   118    83   111    1
   119    84    85    1
   120    84   112    1
   121    84   113    1
   122    85   114    1
   123    85   115    1
   124    85   116    1
   125    88    89    1
   126    89    90    1
   127    90    91    1
   128    90   117    1
   129    90   118    1
   130    91    92    1
   131    91   119    1
   132    91   120    1
   133    92   121    1
   134    92   122    1
   135    92   123    1
   136   124   125    1
   137   124   154    1
   138   124   155    1
   139   124   156    1
   140   125   126    1
   141   125   157    1
   142   125   158    1
   143   126   127    1
   144   126   159    1
   145   126   160    1
   146   127   128    1
   147   127   150    2
   148   128   129    2
   149   129   130    1
   150   130   131    1
   151   130   149    2
   152   131   132    1
   153   131   148    2
   154   132   133    2
   155   132   161    1
   156   133   134    1
   157   133   162    1
   158   134   135    2
   159   134   163    1
   160   135   136    1
   161   135   148    1
   162   136   137    1
   163   136   147    2
   164   137   138    2
   165   138   139    1
   166   139   140    1
   167   139   143    2
   168   140   141    1
   169   140   164    1
   170   140   165    1
   171   141   142    1
   172   141   166    1
   173   141   167    1
   174   142   168    1
   175   142   169    1
   176   142   170    1
   177   143   144    1
   178   143   147    1
   179   144   145    1
   180   144   171    1
   181   144   172    1
   182   145   146    1
   183   145   173    1
   184   145   174    1
   185   146   175    1
   186   146   176    1
   187   146   177    1
   188   149   150    1
   189   150   151    1
   190   151   152    1
   191   151   178    1
   192   151   179    1
   193   152   153    1
   194   152   180    1
   195   152   181    1
   196   153   182    1
   197   153   183    1
   198   153   184    1
@<TRIPOS>SUBSTRUCTURE
     1 RES1      184 GROUP             0 ****  ****    0  
