@<TRIPOS>MOLECULE
am_c3_9H2O_c0_0_nunpairedes_0_charge_3 Charge: 3 Unpaired_Electrons: 3 XTB_Unpaired_Electrons: 0 XTB_Charge: 3
   196   222     1     0     0
SMALL
NoCharges
****
Generated from Architector

@<TRIPOS>ATOM
     1 Nd1      -0.0494   -0.0835   -0.1369   Nd        1 RES1   0.0000
     2 C1       -3.9756   -5.7571   -3.0119   C.3       1 RES1   0.0000
     3 C2       -2.5585   -5.2384   -2.9478   C.3       1 RES1   0.0000
     4 C3       -1.8979   -5.1453   -4.3588   C.3       1 RES1   0.0000
     5 C4       -0.3850   -5.1255   -4.0944   C.3       1 RES1   0.0000
     6 C5       -0.3099   -5.0636   -2.5560   C.3       1 RES1   0.0000
     7 C6       -0.9174   -3.7513   -2.2330   C.ar      1 RES1   0.0000
     8 N1       -0.3707   -2.6060   -1.9322   N.ar      1 RES1   0.0000
     9 N2       -1.1889   -1.6049   -1.6121   N.ar      1 RES1   0.0000
    10 C7       -2.5024   -1.7789   -1.6441   C.ar      1 RES1   0.0000
    11 C8       -3.2967   -0.7346   -0.9593   C.ar      1 RES1   0.0000
    12 C9       -4.6784   -0.6193   -1.0820   C.ar      1 RES1   0.0000
    13 C10      -5.3390    0.2657   -0.2405   C.ar      1 RES1   0.0000
    14 C11      -4.6238    0.9538    0.7286   C.ar      1 RES1   0.0000
    15 C12      -3.2435    0.7741    0.7870   C.ar      1 RES1   0.0000
    16 C13      -2.4354    1.2451    1.9294   C.ar      1 RES1   0.0000
    17 N3       -1.1163    1.1519    1.8105   N.ar      1 RES1   0.0000
    18 N4       -0.3574    1.2028    2.9081   N.ar      1 RES1   0.0000
    19 C14      -0.9474    1.4266    4.0500   C.ar      1 RES1   0.0000
    20 C15      -2.3369    1.7656    4.1052   C.ar      1 RES1   0.0000
    21 N5       -3.0890    1.6151    3.0445   N.ar      1 RES1   0.0000
    22 C16      -2.6554    2.0769    5.5289   C.3       1 RES1   0.0000
    23 C17      -3.8911    2.8926    5.8373   C.3       1 RES1   0.0000
    24 C18      -2.6570    0.6374    6.1241   C.3       1 RES1   0.0000
    25 C19      -1.1837    0.1921    6.0667   C.3       1 RES1   0.0000
    26 C20      -0.4638    1.4158    5.4532   C.3       1 RES1   0.0000
    27 C21      -1.2740    2.6008    6.0461   C.3       1 RES1   0.0000
    28 C22      -0.8596    3.9298    5.4208   C.3       1 RES1   0.0000
    29 C23      -1.1813    2.7500    7.5615   C.3       1 RES1   0.0000
    30 N6       -2.5965   -0.0112   -0.0809   N.ar      1 RES1   0.0000
    31 N7       -3.1245   -2.8713   -2.1255   N.ar      1 RES1   0.0000
    32 C24      -2.3268   -3.8696   -2.4160   C.ar      1 RES1   0.0000
    33 C25      -1.4615   -6.0177   -2.1352   C.3       1 RES1   0.0000
    34 C26      -1.3136   -7.4751   -2.5470   C.3       1 RES1   0.0000
    35 C27      -1.6922   -6.0100   -0.6253   C.3       1 RES1   0.0000
    36 H1       -4.5593   -5.1385   -3.6888   H         1 RES1   0.0000
    37 H2       -4.4625   -5.7471   -2.0428   H         1 RES1   0.0000
    38 H3       -3.9712   -6.7731   -3.3957   H         1 RES1   0.0000
    39 H4       -2.2355   -4.2466   -4.8755   H         1 RES1   0.0000
    40 H5       -2.2000   -6.0016   -4.9558   H         1 RES1   0.0000
    41 H6        0.1082   -4.2758   -4.5634   H         1 RES1   0.0000
    42 H7        0.1077   -6.0293   -4.4444   H         1 RES1   0.0000
    43 H8        0.6744   -5.2320   -2.1307   H         1 RES1   0.0000
    44 H9       -5.2043   -1.2061   -1.8162   H         1 RES1   0.0000
    45 H10      -6.4087    0.3834   -0.3078   H         1 RES1   0.0000
    46 H11      -5.1003    1.6068    1.4393   H         1 RES1   0.0000
    47 H12      -4.7710    2.4171    5.4137   H         1 RES1   0.0000
    48 H13      -3.8089    3.8944    5.4248   H         1 RES1   0.0000
    49 H14      -4.0222    2.9784    6.9132   H         1 RES1   0.0000
    50 H15      -3.3134   -0.0127    5.5493   H         1 RES1   0.0000
    51 H16      -3.0386    0.6733    7.1426   H         1 RES1   0.0000
    52 H17      -1.0435   -0.7042    5.4575   H         1 RES1   0.0000
    53 H18      -0.7828   -0.0088    7.0569   H         1 RES1   0.0000
    54 H19       0.6136    1.4324    5.5823   H         1 RES1   0.0000
    55 H20      -0.9097    3.8947    4.3331   H         1 RES1   0.0000
    56 H21       0.1599    4.1707    5.7170   H         1 RES1   0.0000
    57 H22      -1.5091    4.7258    5.7754   H         1 RES1   0.0000
    58 H23      -1.5220    1.8864    8.1215   H         1 RES1   0.0000
    59 H24      -1.7805    3.6018    7.8697   H         1 RES1   0.0000
    60 H25      -0.1543    2.9537    7.8532   H         1 RES1   0.0000
    61 H26      -1.1640   -7.6243   -3.6077   H         1 RES1   0.0000
    62 H27      -2.2139   -8.0115   -2.2606   H         1 RES1   0.0000
    63 H28      -0.4786   -7.9275   -2.0194   H         1 RES1   0.0000
    64 H29      -1.7164   -5.0044   -0.2105   H         1 RES1   0.0000
    65 H30      -0.8940   -6.5519   -0.1232   H         1 RES1   0.0000
    66 H31      -2.6335   -6.5048   -0.4007   H         1 RES1   0.0000
    67 C28      -1.6706    5.0392   -5.8124   C.3       1 RES1   0.0000
    68 C29      -1.8790    3.5746   -5.4951   C.3       1 RES1   0.0000
    69 C30      -3.3632    3.1362   -5.3147   C.3       1 RES1   0.0000
    70 C31      -3.3363    1.6020   -5.4697   C.3       1 RES1   0.0000
    71 C32      -1.8304    1.2920   -5.6764   C.3       1 RES1   0.0000
    72 C33      -1.3165    1.6157   -4.3205   C.ar      1 RES1   0.0000
    73 N8       -1.1851    0.8931   -3.2405   N.ar      1 RES1   0.0000
    74 N9       -0.7581    1.4977   -2.1319   N.ar      1 RES1   0.0000
    75 C34      -0.4108    2.7823   -2.1953   C.ar      1 RES1   0.0000
    76 C35       0.4323    3.3012   -1.1027   C.ar      1 RES1   0.0000
    77 C36       0.8046    4.6444   -1.0004   C.ar      1 RES1   0.0000
    78 C37       1.7164    5.0063   -0.0194   C.ar      1 RES1   0.0000
    79 C38       2.2674    4.0249    0.7910   C.ar      1 RES1   0.0000
    80 C39       1.8385    2.7131    0.6252   C.ar      1 RES1   0.0000
    81 C40       2.4161    1.5843    1.3796   C.ar      1 RES1   0.0000
    82 N10       1.7631    0.4403    1.2577   N.ar      1 RES1   0.0000
    83 N11       2.2428   -0.6845    1.7815   N.ar      1 RES1   0.0000
    84 C41       3.4077   -0.6079    2.3578   C.ar      1 RES1   0.0000
    85 C42       4.0789    0.6467    2.5116   C.ar      1 RES1   0.0000
    86 N12       3.5683    1.7572    2.0474   N.ar      1 RES1   0.0000
    87 C43       5.3810    0.3629    3.1699   C.3       1 RES1   0.0000
    88 C44       6.4299    1.4516    3.1317   C.3       1 RES1   0.0000
    89 C45       4.9609   -0.0684    4.6062   C.3       1 RES1   0.0000
    90 C46       4.2752   -1.4336    4.4229   C.3       1 RES1   0.0000
    91 C47       4.3205   -1.6473    2.8954   C.3       1 RES1   0.0000
    92 C48       5.6771   -1.0133    2.4757   C.3       1 RES1   0.0000
    93 C49       5.7733   -0.8767    0.9509   C.3       1 RES1   0.0000
    94 C50       6.9171   -1.7466    2.9583   C.3       1 RES1   0.0000
    95 N13       0.9186    2.3652   -0.2804   N.ar      1 RES1   0.0000
    96 N14      -0.7366    3.6153   -3.1984   N.ar      1 RES1   0.0000
    97 C51      -1.2575    3.0423   -4.2488   C.ar      1 RES1   0.0000
    98 C52      -1.3402    2.5132   -6.5080   C.3       1 RES1   0.0000
    99 C53      -1.9133    2.5595   -7.9202   C.3       1 RES1   0.0000
   100 C54       0.1783    2.6483   -6.6291   C.3       1 RES1   0.0000
   101 H32      -2.2813    5.6624   -5.1660   H         1 RES1   0.0000
   102 H33      -1.9393    5.2382   -6.8474   H         1 RES1   0.0000
   103 H34      -0.6362    5.3296   -5.6525   H         1 RES1   0.0000
   104 H35      -3.9786    3.6143   -6.0730   H         1 RES1   0.0000
   105 H36      -3.7410    3.4468   -4.3387   H         1 RES1   0.0000
   106 H37      -3.9113    1.2593   -6.3265   H         1 RES1   0.0000
   107 H38      -3.7216    1.0921   -4.5847   H         1 RES1   0.0000
   108 H39      -1.6117    0.3061   -6.0668   H         1 RES1   0.0000
   109 H40       0.3997    5.3739   -1.6835   H         1 RES1   0.0000
   110 H41       2.0165    6.0402    0.0960   H         1 RES1   0.0000
   111 H42       3.0185    4.2482    1.5331   H         1 RES1   0.0000
   112 H43       6.1411    2.2783    3.7747   H         1 RES1   0.0000
   113 H44       6.5604    1.8398    2.1262   H         1 RES1   0.0000
   114 H45       7.3785    1.0604    3.4862   H         1 RES1   0.0000
   115 H46       4.2921    0.6738    5.0406   H         1 RES1   0.0000
   116 H47       5.8369   -0.1227    5.2505   H         1 RES1   0.0000
   117 H48       3.2477   -1.4375    4.7907   H         1 RES1   0.0000
   118 H49       4.8055   -2.2322    4.9354   H         1 RES1   0.0000
   119 H50       4.1223   -2.6624    2.5673   H         1 RES1   0.0000
   120 H51       4.8938   -0.3933    0.5216   H         1 RES1   0.0000
   121 H52       5.8646   -1.8623    0.4970   H         1 RES1   0.0000
   122 H53       6.6430   -0.2767    0.6923   H         1 RES1   0.0000
   123 H54       6.9842   -1.8416    4.0345   H         1 RES1   0.0000
   124 H55       7.8000   -1.2179    2.6128   H         1 RES1   0.0000
   125 H56       6.9336   -2.7416    2.5209   H         1 RES1   0.0000
   126 H57      -2.9947    2.5470   -7.9632   H         1 RES1   0.0000
   127 H58      -1.5494    1.6989   -8.4781   H         1 RES1   0.0000
   128 H59      -1.5713    3.4552   -8.4313   H         1 RES1   0.0000
   129 H60       0.6634    2.6844   -5.6532   H         1 RES1   0.0000
   130 H61       0.4164    3.5841   -7.1309   H         1 RES1   0.0000
   131 H62       0.5749    1.8339   -7.2291   H         1 RES1   0.0000
   132 C55      -3.1584   -6.2649    3.2380   C.3       1 RES1   0.0000
   133 C56      -3.3952   -4.7757    3.1438   C.3       1 RES1   0.0000
   134 C57      -3.6138   -4.1019    4.5334   C.3       1 RES1   0.0000
   135 C58      -4.3073   -2.7651    4.2236   C.3       1 RES1   0.0000
   136 C59      -4.3402   -2.7426    2.6815   C.3       1 RES1   0.0000
   137 C60      -2.9054   -2.6513    2.3046   C.ar      1 RES1   0.0000
   138 N15      -2.1774   -1.6531    1.8877   N.ar      1 RES1   0.0000
   139 N16      -0.9110   -1.9091    1.5405   N.ar      1 RES1   0.0000
   140 C61      -0.4307   -3.1361    1.6841   C.ar      1 RES1   0.0000
   141 C62       0.8893   -3.4026    1.0840   C.ar      1 RES1   0.0000
   142 C63       1.6557   -4.5237    1.3987   C.ar      1 RES1   0.0000
   143 C64       2.8464   -4.7238    0.7151   C.ar      1 RES1   0.0000
   144 C65       3.2285   -3.8269   -0.2742   C.ar      1 RES1   0.0000
   145 C66       2.3913   -2.7437   -0.5275   C.ar      1 RES1   0.0000
   146 C67       2.5349   -1.8034   -1.6471   C.ar      1 RES1   0.0000
   147 N17       1.8400   -0.6764   -1.5182   N.ar      1 RES1   0.0000
   148 N18       1.4412   -0.0414   -2.6212   N.ar      1 RES1   0.0000
   149 C68       1.8632   -0.4965   -3.7618   C.ar      1 RES1   0.0000
   150 C69       2.9372   -1.4400   -3.8063   C.ar      1 RES1   0.0000
   151 N19       3.2085   -2.1559   -2.7475   N.ar      1 RES1   0.0000
   152 C70       3.3711   -1.5515   -5.2269   C.3       1 RES1   0.0000
   153 C71       4.7887   -2.0089   -5.4876   C.3       1 RES1   0.0000
   154 C72       2.2228   -2.4669   -5.7456   C.3       1 RES1   0.0000
   155 C73       0.9658   -1.5778   -5.6514   C.3       1 RES1   0.0000
   156 C74       1.5121   -0.2147   -5.1713   C.3       1 RES1   0.0000
   157 C75       2.9272   -0.1627   -5.7949   C.3       1 RES1   0.0000
   158 C76       3.7319    0.9918   -5.2038   C.3       1 RES1   0.0000
   159 C77       2.9477   -0.0508   -7.3144   C.3       1 RES1   0.0000
   160 N20       1.2608   -2.5273    0.1538   N.ar      1 RES1   0.0000
   161 N21      -1.0771   -4.1708    2.2556   N.ar      1 RES1   0.0000
   162 C78      -2.3258   -3.9321    2.5546   C.ar      1 RES1   0.0000
   163 C79      -4.6169   -4.2278    2.3224   C.3       1 RES1   0.0000
   164 C80      -5.9733   -4.7789    2.7396   C.3       1 RES1   0.0000
   165 C81      -4.4831   -4.4676    0.8182   C.3       1 RES1   0.0000
   166 H63      -2.3509   -6.4695    3.9365   H         1 RES1   0.0000
   167 H64      -2.8810   -6.6954    2.2805   H         1 RES1   0.0000
   168 H65      -4.0618   -6.7468    3.6011   H         1 RES1   0.0000
   169 H66      -2.6621   -3.9637    5.0477   H         1 RES1   0.0000
   170 H67      -4.2255   -4.7543    5.1519   H         1 RES1   0.0000
   171 H68      -3.7621   -1.9096    4.6234   H         1 RES1   0.0000
   172 H69      -5.3196   -2.7233    4.6195   H         1 RES1   0.0000
   173 H70      -4.9957   -1.9979    2.2433   H         1 RES1   0.0000
   174 H71       1.3203   -5.2072    2.1592   H         1 RES1   0.0000
   175 H72       3.4584   -5.5881    0.9330   H         1 RES1   0.0000
   176 H73       4.1391   -3.9613   -0.8357   H         1 RES1   0.0000
   177 H74       4.9697   -2.9639   -5.0027   H         1 RES1   0.0000
   178 H75       5.4959   -1.2779   -5.0998   H         1 RES1   0.0000
   179 H76       4.9733   -2.1163   -6.5527   H         1 RES1   0.0000
   180 H77       2.1474   -3.3669   -5.1374   H         1 RES1   0.0000
   181 H78       2.4369   -2.7662   -6.7694   H         1 RES1   0.0000
   182 H79       0.2378   -1.9594   -4.9316   H         1 RES1   0.0000
   183 H80       0.4663   -1.4815   -6.6116   H         1 RES1   0.0000
   184 H81       0.8616    0.6294   -5.3414   H         1 RES1   0.0000
   185 H82       3.8001    0.9128   -4.1184   H         1 RES1   0.0000
   186 H83       3.2532    1.9370   -5.4550   H         1 RES1   0.0000
   187 H84       4.7348    0.9936   -5.6205   H         1 RES1   0.0000
   188 H85       2.2487   -0.7170   -7.8098   H         1 RES1   0.0000
   189 H86       3.9453   -0.2705   -7.6789   H         1 RES1   0.0000
   190 H87       2.7242    0.9709   -7.6074   H         1 RES1   0.0000
   191 H88      -6.1744   -4.7237    3.8019   H         1 RES1   0.0000
   192 H89      -6.0356   -5.8239    2.4472   H         1 RES1   0.0000
   193 H90      -6.7573   -4.2397    2.2136   H         1 RES1   0.0000
   194 H91      -3.5943   -3.9948    0.4025   H         1 RES1   0.0000
   195 H92      -5.3469   -4.0556    0.3014   H         1 RES1   0.0000
   196 H93      -4.4347   -5.5366    0.6267   H         1 RES1   0.0000
@<TRIPOS>BOND
     1     1     9    1
     2     1    17    1
     3     1    30    1
     4     1    74    1
     5     1    82    1
     6     1    95    1
     7     1   139    1
     8     1   147    1
     9     1   160    1
    10     2     3    1
    11     2    36    1
    12     2    37    1
    13     2    38    1
    14     3     4    1
    15     3    32    1
    16     3    33    1
    17     4     5    1
    18     4    39    1
    19     4    40    1
    20     5     6    1
    21     5    41    1
    22     5    42    1
    23     6     7    1
    24     6    33    1
    25     6    43    1
    26     7     8    1
    27     7    32    2
    28     8     9    2
    29     9    10    1
    30    10    11    1
    31    10    31    2
    32    11    12    1
    33    11    30    2
    34    12    13    2
    35    12    44    1
    36    13    14    1
    37    13    45    1
    38    14    15    2
    39    14    46    1
    40    15    16    1
    41    15    30    1
    42    16    17    1
    43    16    21    2
    44    17    18    2
    45    18    19    1
    46    19    20    2
    47    19    26    1
    48    20    21    1
    49    20    22    1
    50    22    23    1
    51    22    24    1
    52    22    27    1
    53    23    47    1
    54    23    48    1
    55    23    49    1
    56    24    25    1
    57    24    50    1
    58    24    51    1
    59    25    26    1
    60    25    52    1
    61    25    53    1
    62    26    27    1
    63    26    54    1
    64    27    28    1
    65    27    29    1
    66    28    55    1
    67    28    56    1
    68    28    57    1
    69    29    58    1
    70    29    59    1
    71    29    60    1
    72    31    32    1
    73    33    34    1
    74    33    35    1
    75    34    61    1
    76    34    62    1
    77    34    63    1
    78    35    64    1
    79    35    65    1
    80    35    66    1
    81    67    68    1
    82    67   101    1
    83    67   102    1
    84    67   103    1
    85    68    69    1
    86    68    97    1
    87    68    98    1
    88    69    70    1
    89    69   104    1
    90    69   105    1
    91    70    71    1
    92    70   106    1
    93    70   107    1
    94    71    72    1
    95    71    98    1
    96    71   108    1
    97    72    73    1
    98    72    97    2
    99    73    74    2
   100    74    75    1
   101    75    76    1
   102    75    96    2
   103    76    77    1
   104    76    95    2
   105    77    78    2
   106    77   109    1
   107    78    79    1
   108    78   110    1
   109    79    80    2
   110    79   111    1
   111    80    81    1
   112    80    95    1
   113    81    82    1
   114    81    86    2
   115    82    83    2
   116    83    84    1
   117    84    85    2
   118    84    91    1
   119    85    86    1
   120    85    87    1
   121    87    88    1
   122    87    89    1
   123    87    92    1
   124    88   112    1
   125    88   113    1
   126    88   114    1
   127    89    90    1
   128    89   115    1
   129    89   116    1
   130    90    91    1
   131    90   117    1
   132    90   118    1
   133    91    92    1
   134    91   119    1
   135    92    93    1
   136    92    94    1
   137    93   120    1
   138    93   121    1
   139    93   122    1
   140    94   123    1
   141    94   124    1
   142    94   125    1
   143    96    97    1
   144    98    99    1
   145    98   100    1
   146    99   126    1
   147    99   127    1
   148    99   128    1
   149   100   129    1
   150   100   130    1
   151   100   131    1
   152   132   133    1
   153   132   166    1
   154   132   167    1
   155   132   168    1
   156   133   134    1
   157   133   162    1
   158   133   163    1
   159   134   135    1
   160   134   169    1
   161   134   170    1
   162   135   136    1
   163   135   171    1
   164   135   172    1
   165   136   137    1
   166   136   163    1
   167   136   173    1
   168   137   138    1
   169   137   162    2
   170   138   139    2
   171   139   140    1
   172   140   141    1
   173   140   161    2
   174   141   142    1
   175   141   160    2
   176   142   143    2
   177   142   174    1
   178   143   144    1
   179   143   175    1
   180   144   145    2
   181   144   176    1
   182   145   146    1
   183   145   160    1
   184   146   147    1
   185   146   151    2
   186   147   148    2
   187   148   149    1
   188   149   150    2
   189   149   156    1
   190   150   151    1
   191   150   152    1
   192   152   153    1
   193   152   154    1
   194   152   157    1
   195   153   177    1
   196   153   178    1
   197   153   179    1
   198   154   155    1
   199   154   180    1
   200   154   181    1
   201   155   156    1
   202   155   182    1
   203   155   183    1
   204   156   157    1
   205   156   184    1
   206   157   158    1
   207   157   159    1
   208   158   185    1
   209   158   186    1
   210   158   187    1
   211   159   188    1
   212   159   189    1
   213   159   190    1
   214   161   162    1
   215   163   164    1
   216   163   165    1
   217   164   191    1
   218   164   192    1
   219   164   193    1
   220   165   194    1
   221   165   195    1
   222   165   196    1
@<TRIPOS>SUBSTRUCTURE
     1 RES1      196 GROUP             0 ****  ****    0  
