@<TRIPOS>MOLECULE
square_antiprismatic_0_nunpairedes_0_charge_3 Charge: 3 Unpaired_Electrons: 0 XTB_Unpaired_Electrons: 0 XTB_Charge: 3
    65    73     1     0     0
SMALL
NoCharges
****
Generated from Architector

@<TRIPOS>ATOM
     1 Lu1      -0.7131   -0.6479    0.6257   Lu        1 RES1   0.0000
     2 C1       -5.4229    2.6654    2.1549   C.3       1 RES1   0.0000
     3 C2       -5.1127    2.6512    0.6721   C.3       1 RES1   0.0000
     4 C3       -3.6018    2.5177    0.3767   C.3       1 RES1   0.0000
     5 C4       -3.1008    1.2141    0.8632   C.ar      1 RES1   0.0000
     6 N1       -2.0408    1.1626    1.6546   N.ar      1 RES1   0.0000
     7 N2       -1.6421    0.0923    2.3204   N.ar      1 RES1   0.0000
     8 C5       -2.5021   -1.0277    2.2234   C.ar      1 RES1   0.0000
     9 C6       -2.9338   -2.0738    3.1691   C.ar      1 RES1   0.0000
    10 C7       -3.8960   -3.0331    3.4289   C.ar      1 RES1   0.0000
    11 C8       -3.6484   -4.2734    2.8459   C.ar      1 RES1   0.0000
    12 C9       -2.5871   -4.4954    1.9406   C.ar      1 RES1   0.0000
    13 C10      -1.6628   -3.4884    1.7399   C.ar      1 RES1   0.0000
    14 C11      -0.7206   -3.1589    0.6362   C.ar      1 RES1   0.0000
    15 N3        0.3524   -2.3954    0.9517   N.ar      1 RES1   0.0000
    16 N4        1.1811   -2.0415   -0.0283   N.ar      1 RES1   0.0000
    17 C12       1.0347   -2.5165   -1.2767   C.ar      1 RES1   0.0000
    18 C13       2.1451   -2.6585   -2.2090   C.3       1 RES1   0.0000
    19 C14       3.1804   -3.7851   -1.8325   C.3       1 RES1   0.0000
    20 C15       2.6126   -5.1826   -1.9600   C.3       1 RES1   0.0000
    21 C16      -0.3673   -2.6786   -1.5843   C.ar      1 RES1   0.0000
    22 C17      -0.9445   -2.3082   -2.8923   C.3       1 RES1   0.0000
    23 C18      -1.1416   -3.6440   -3.6628   C.3       1 RES1   0.0000
    24 C19      -2.1688   -4.5465   -3.0190   C.3       1 RES1   0.0000
    25 N5       -1.1838   -3.0795   -0.6137   N.ar      1 RES1   0.0000
    26 N6       -1.7891   -2.3705    2.5087   N.ar      1 RES1   0.0000
    27 N7       -3.0488   -1.1479    0.9314   N.ar      1 RES1   0.0000
    28 C20      -3.4736   -0.0667    0.3091   C.ar      1 RES1   0.0000
    29 C21      -4.0415   -0.2822   -1.0629   C.3       1 RES1   0.0000
    30 C22      -4.6271   -1.7004   -1.2214   C.3       1 RES1   0.0000
    31 C23      -5.8603   -1.9001   -0.3462   C.3       1 RES1   0.0000
    32 H1       -6.4690    2.9194    2.2999   H         1 RES1   0.0000
    33 H2       -4.8495    3.4243    2.6742   H         1 RES1   0.0000
    34 H3       -5.2248    1.7004    2.6166   H         1 RES1   0.0000
    35 H4       -5.4596    3.5777    0.2244   H         1 RES1   0.0000
    36 H5       -5.6574    1.8388    0.1952   H         1 RES1   0.0000
    37 H6       -3.0441    3.3245    0.8571   H         1 RES1   0.0000
    38 H7       -3.4643    2.5636   -0.7066   H         1 RES1   0.0000
    39 H8       -4.7870   -2.8262    4.0043   H         1 RES1   0.0000
    40 H9       -4.3846   -5.0545    2.9757   H         1 RES1   0.0000
    41 H10      -2.5608   -5.4214    1.3771   H         1 RES1   0.0000
    42 H11       2.7462   -1.7452   -2.2198   H         1 RES1   0.0000
    43 H12       1.7689   -2.8835   -3.2050   H         1 RES1   0.0000
    44 H13       3.5616   -3.6076   -0.8283   H         1 RES1   0.0000
    45 H14       4.0039   -3.6736   -2.5389   H         1 RES1   0.0000
    46 H15       1.8048   -5.3701   -1.2583   H         1 RES1   0.0000
    47 H16       3.4058   -5.8985   -1.7501   H         1 RES1   0.0000
    48 H17       2.2623   -5.4006   -2.9650   H         1 RES1   0.0000
    49 H18      -0.2684   -1.6548   -3.4470   H         1 RES1   0.0000
    50 H19      -1.9197   -1.8329   -2.7477   H         1 RES1   0.0000
    51 H20      -0.1819   -4.1544   -3.7302   H         1 RES1   0.0000
    52 H21      -1.4568   -3.3802   -4.6723   H         1 RES1   0.0000
    53 H22      -1.8924   -4.8246   -2.0033   H         1 RES1   0.0000
    54 H23      -2.2464   -5.4614   -3.5995   H         1 RES1   0.0000
    55 H24      -3.1450   -4.0738   -2.9858   H         1 RES1   0.0000
    56 H25      -3.2266   -0.1295   -1.7906   H         1 RES1   0.0000
    57 H26      -4.8138    0.4638   -1.2708   H         1 RES1   0.0000
    58 H27      -3.8650   -2.4445   -0.9626   H         1 RES1   0.0000
    59 H28      -4.9041   -1.8365   -2.2687   H         1 RES1   0.0000
    60 H29      -5.6088   -1.8363    0.7129   H         1 RES1   0.0000
    61 H30      -6.2828   -2.8836   -0.5365   H         1 RES1   0.0000
    62 H31      -6.6144   -1.1520   -0.5822   H         1 RES1   0.0000
    63 O1       -0.3671    1.2115   -0.6240   O.3       1 RES1   0.0000
    64 H32      -0.4900    1.6929   -1.4672   H         1 RES1   0.0000
    65 H33      -0.0657    1.9145   -0.0053   H         1 RES1   0.0000
@<TRIPOS>BOND
     1     1     6    1
     2     1     7    1
     3     1    15    1
     4     1    16    1
     5     1    25    1
     6     1    26    1
     7     1    27    1
     8     1    63    1
     9     2     3    1
    10     2    32    1
    11     2    33    1
    12     2    34    1
    13     3     4    1
    14     3    35    1
    15     3    36    1
    16     4     5    1
    17     4    37    1
    18     4    38    1
    19     5     6    1
    20     5    28    2
    21     6     7    2
    22     7     8    1
    23     8     9    1
    24     8    27    2
    25     9    10    1
    26     9    26    2
    27    10    11    2
    28    10    39    1
    29    11    12    1
    30    11    40    1
    31    12    13    2
    32    12    41    1
    33    13    14    1
    34    13    26    1
    35    14    15    1
    36    14    25    2
    37    15    16    2
    38    16    17    1
    39    17    18    1
    40    17    21    2
    41    18    19    1
    42    18    42    1
    43    18    43    1
    44    19    20    1
    45    19    44    1
    46    19    45    1
    47    20    46    1
    48    20    47    1
    49    20    48    1
    50    21    22    1
    51    21    25    1
    52    22    23    1
    53    22    49    1
    54    22    50    1
    55    23    24    1
    56    23    51    1
    57    23    52    1
    58    24    53    1
    59    24    54    1
    60    24    55    1
    61    27    28    1
    62    28    29    1
    63    29    30    1
    64    29    56    1
    65    29    57    1
    66    30    31    1
    67    30    58    1
    68    30    59    1
    69    31    60    1
    70    31    61    1
    71    31    62    1
    72    63    64    1
    73    63    65    1
@<TRIPOS>SUBSTRUCTURE
     1 RES1       65 GROUP             0 ****  ****    0  
