@<TRIPOS>MOLECULE
am_c3_9H2O_c0_0_nunpairedes_0_charge_3 Charge: 3 Unpaired_Electrons: 3 XTB_Unpaired_Electrons: 0 XTB_Charge: 3
   184   198     1     0     0
SMALL
NoCharges
****
Generated from Architector

@<TRIPOS>ATOM
     1 Er1      -0.0190    0.0020    0.0039   Er        1 RES1   0.0000
     2 C1        1.3788    6.6827    2.7025   C.3       1 RES1   0.0000
     3 C2        0.2635    5.6955    2.3784   C.3       1 RES1   0.0000
     4 C3        0.3585    4.4100    3.2143   C.3       1 RES1   0.0000
     5 C4       -0.6672    3.4136    2.7798   C.ar      1 RES1   0.0000
     6 N1       -0.1891    2.4326    2.0373   N.ar      1 RES1   0.0000
     7 N2       -0.9820    1.5498    1.4808   N.ar      1 RES1   0.0000
     8 C5       -2.2908    1.6073    1.7187   C.ar      1 RES1   0.0000
     9 C6       -3.1064    0.6286    0.9566   C.ar      1 RES1   0.0000
    10 C7       -4.4743    0.4586    1.1521   C.ar      1 RES1   0.0000
    11 C8       -5.1449   -0.4824    0.3837   C.ar      1 RES1   0.0000
    12 C9       -4.4486   -1.2024   -0.5801   C.ar      1 RES1   0.0000
    13 C10      -3.0882   -0.9358   -0.7435   C.ar      1 RES1   0.0000
    14 C11      -2.2717   -1.5631   -1.8034   C.ar      1 RES1   0.0000
    15 N3       -0.9470   -1.4373   -1.6858   N.ar      1 RES1   0.0000
    16 N4       -0.1991   -1.7301   -2.7248   N.ar      1 RES1   0.0000
    17 C12      -0.7090   -2.2367   -3.8276   C.ar      1 RES1   0.0000
    18 C13       0.2349   -2.4041   -4.9724   C.3       1 RES1   0.0000
    19 C14       0.8872   -3.7958   -5.0006   C.3       1 RES1   0.0000
    20 C15       1.8772   -3.9156   -6.1536   C.3       1 RES1   0.0000
    21 C16      -2.0753   -2.6542   -3.7965   C.ar      1 RES1   0.0000
    22 C17      -2.6545   -3.5393   -4.8336   C.3       1 RES1   0.0000
    23 C18      -3.7083   -2.8454   -5.7140   C.3       1 RES1   0.0000
    24 C19      -3.1022   -1.8876   -6.7302   C.3       1 RES1   0.0000
    25 N5       -2.8373   -2.2350   -2.8003   N.ar      1 RES1   0.0000
    26 N6       -2.4357   -0.0680    0.0320   N.ar      1 RES1   0.0000
    27 N7       -2.8388    2.4861    2.5552   N.ar      1 RES1   0.0000
    28 C20      -2.0601    3.4253    3.0821   C.ar      1 RES1   0.0000
    29 C21      -2.6487    4.4412    3.9890   C.3       1 RES1   0.0000
    30 C22      -3.5274    5.4889    3.2728   C.3       1 RES1   0.0000
    31 C23      -4.6883    4.8684    2.5133   C.3       1 RES1   0.0000
    32 H1        1.2877    7.5682    2.0755   H         1 RES1   0.0000
    33 H2        2.3638    6.2494    2.5380   H         1 RES1   0.0000
    34 H3        1.3182    7.0030    3.7395   H         1 RES1   0.0000
    35 H4        0.2979    5.4429    1.3168   H         1 RES1   0.0000
    36 H5       -0.6942    6.1705    2.5821   H         1 RES1   0.0000
    37 H6        0.2734    4.6705    4.2684   H         1 RES1   0.0000
    38 H7        1.3323    3.9454    3.0595   H         1 RES1   0.0000
    39 H8       -4.9726    1.0695    1.8888   H         1 RES1   0.0000
    40 H9       -6.2013   -0.6588    0.5168   H         1 RES1   0.0000
    41 H10      -4.9336   -1.9464   -1.1903   H         1 RES1   0.0000
    42 H11       1.0219   -1.6585   -4.8649   H         1 RES1   0.0000
    43 H12      -0.2607   -2.2345   -5.9266   H         1 RES1   0.0000
    44 H13       0.1154   -4.5546   -5.1165   H         1 RES1   0.0000
    45 H14       1.3992   -3.9806   -4.0561   H         1 RES1   0.0000
    46 H15       1.3775   -3.7701   -7.1093   H         1 RES1   0.0000
    47 H16       2.3299   -4.9058   -6.1597   H         1 RES1   0.0000
    48 H17       2.6726   -3.1761   -6.0725   H         1 RES1   0.0000
    49 H18      -3.1511   -4.3676   -4.3321   H         1 RES1   0.0000
    50 H19      -1.8633   -3.9328   -5.4644   H         1 RES1   0.0000
    51 H20      -4.4140   -2.3168   -5.0750   H         1 RES1   0.0000
    52 H21      -4.2496   -3.6279   -6.2438   H         1 RES1   0.0000
    53 H22      -2.5380   -1.0903   -6.2468   H         1 RES1   0.0000
    54 H23      -3.8960   -1.4362   -7.3223   H         1 RES1   0.0000
    55 H24      -2.4376   -2.4175   -7.4097   H         1 RES1   0.0000
    56 H25      -1.8528    4.9632    4.5160   H         1 RES1   0.0000
    57 H26      -3.2874    3.9392    4.7140   H         1 RES1   0.0000
    58 H27      -2.9244    6.0933    2.5936   H         1 RES1   0.0000
    59 H28      -3.9182    6.1521    4.0452   H         1 RES1   0.0000
    60 H29      -4.3415    4.2566    1.6809   H         1 RES1   0.0000
    61 H30      -5.3276    5.6508    2.1113   H         1 RES1   0.0000
    62 H31      -5.2859    4.2420    3.1716   H         1 RES1   0.0000
    63 C24       4.1305   -4.8836    3.0079   C.3       1 RES1   0.0000
    64 C25       3.9436   -3.4744    2.4466   C.3       1 RES1   0.0000
    65 C26       3.4998   -2.4540    3.5113   C.3       1 RES1   0.0000
    66 C27       3.2192   -1.1151    2.9027   C.ar      1 RES1   0.0000
    67 N8        2.1649   -1.0598    2.1127   N.ar      1 RES1   0.0000
    68 N9        1.8536    0.0331    1.4528   N.ar      1 RES1   0.0000
    69 C28       2.6355    1.1027    1.5580   C.ar      1 RES1   0.0000
    70 C29       2.2746    2.2398    0.6733   C.ar      1 RES1   0.0000
    71 C30       2.9866    3.4341    0.6831   C.ar      1 RES1   0.0000
    72 C31       2.5904    4.4442   -0.1860   C.ar      1 RES1   0.0000
    73 C32       1.5139    4.2347   -1.0362   C.ar      1 RES1   0.0000
    74 C33       0.8608    3.0072   -0.9914   C.ar      1 RES1   0.0000
    75 C34      -0.2598    2.6531   -1.8990   C.ar      1 RES1   0.0000
    76 N10      -0.9189    1.5393   -1.6003   N.ar      1 RES1   0.0000
    77 N11      -1.8576    1.1068   -2.4155   N.ar      1 RES1   0.0000
    78 C35      -2.1764    1.7665   -3.5124   C.ar      1 RES1   0.0000
    79 C36      -3.1418    1.0784   -4.4261   C.3       1 RES1   0.0000
    80 C37      -4.5721    1.6386   -4.4983   C.3       1 RES1   0.0000
    81 C38      -5.4074    0.8662   -5.5191   C.3       1 RES1   0.0000
    82 C39      -1.5056    2.9962   -3.7780   C.ar      1 RES1   0.0000
    83 C40      -1.7867    3.7616   -5.0135   C.3       1 RES1   0.0000
    84 C41      -0.5478    3.7526   -5.9234   C.3       1 RES1   0.0000
    85 C42      -0.1505    2.3422   -6.3437   C.3       1 RES1   0.0000
    86 N12      -0.5445    3.4058   -2.9628   N.ar      1 RES1   0.0000
    87 N13       1.2348    2.0454   -0.1414   N.ar      1 RES1   0.0000
    88 N14       3.6547    1.1679    2.4169   N.ar      1 RES1   0.0000
    89 C43       3.9482    0.0915    3.1345   C.ar      1 RES1   0.0000
    90 C44       5.0290    0.1683    4.1477   C.3       1 RES1   0.0000
    91 C45       6.3235   -0.4919    3.6344   C.3       1 RES1   0.0000
    92 C46       6.8466    0.2098    2.3918   C.3       1 RES1   0.0000
    93 H32       4.4391   -5.5593    2.2100   H         1 RES1   0.0000
    94 H33       3.2119   -5.2783    3.4413   H         1 RES1   0.0000
    95 H34       4.9036   -4.9012    3.7735   H         1 RES1   0.0000
    96 H35       3.1880   -3.4998    1.6616   H         1 RES1   0.0000
    97 H36       4.8825   -3.1529    1.9933   H         1 RES1   0.0000
    98 H37       4.2493   -2.3881    4.2950   H         1 RES1   0.0000
    99 H38       2.5771   -2.8371    3.9504   H         1 RES1   0.0000
   100 H39       3.8163    3.5306    1.3633   H         1 RES1   0.0000
   101 H40       3.1170    5.3849   -0.2108   H         1 RES1   0.0000
   102 H41       1.1874    4.9967   -1.7288   H         1 RES1   0.0000
   103 H42      -3.2058    0.0446   -4.0886   H         1 RES1   0.0000
   104 H43      -2.7400    1.0830   -5.4411   H         1 RES1   0.0000
   105 H44      -4.5538    2.6884   -4.7864   H         1 RES1   0.0000
   106 H45      -5.0525    1.5672   -3.5229   H         1 RES1   0.0000
   107 H46      -4.9836    0.9459   -6.5192   H         1 RES1   0.0000
   108 H47      -6.4188    1.2681   -5.5542   H         1 RES1   0.0000
   109 H48      -5.4755   -0.1901   -5.2634   H         1 RES1   0.0000
   110 H49      -2.0180    4.7983   -4.7747   H         1 RES1   0.0000
   111 H50      -2.6327    3.3180   -5.5312   H         1 RES1   0.0000
   112 H51       0.2740    4.2192   -5.3839   H         1 RES1   0.0000
   113 H52      -0.7634    4.3470   -6.8104   H         1 RES1   0.0000
   114 H53       0.0635    1.7131   -5.4764   H         1 RES1   0.0000
   115 H54       0.7419    2.3761   -6.9651   H         1 RES1   0.0000
   116 H55      -0.9450    1.8743   -6.9228   H         1 RES1   0.0000
   117 H56       4.7185   -0.3536    5.0530   H         1 RES1   0.0000
   118 H57       5.2331    1.2094    4.3880   H         1 RES1   0.0000
   119 H58       6.1450   -1.5434    3.4135   H         1 RES1   0.0000
   120 H59       7.0659   -0.4375    4.4295   H         1 RES1   0.0000
   121 H60       6.1313    0.1343    1.5728   H         1 RES1   0.0000
   122 H61       7.7835   -0.2360    2.0661   H         1 RES1   0.0000
   123 H62       7.0181    1.2639    2.5955   H         1 RES1   0.0000
   124 C47       3.2354    4.3795   -4.4160   C.3       1 RES1   0.0000
   125 C48       2.8068    2.9307   -4.1774   C.3       1 RES1   0.0000
   126 C49       3.8454    2.1550   -3.3519   C.3       1 RES1   0.0000
   127 C50       3.3744    0.8264   -2.8421   C.ar      1 RES1   0.0000
   128 N15       2.2421    0.8450   -2.1642   N.ar      1 RES1   0.0000
   129 N16       1.7848   -0.2273   -1.5635   N.ar      1 RES1   0.0000
   130 C51       2.4374   -1.3777   -1.7010   C.ar      1 RES1   0.0000
   131 C52       1.8977   -2.5147   -0.9219   C.ar      1 RES1   0.0000
   132 C53       2.3254   -3.8247   -1.1093   C.ar      1 RES1   0.0000
   133 C54       1.7805   -4.8198   -0.3060   C.ar      1 RES1   0.0000
   134 C55       0.8693   -4.4729    0.6822   C.ar      1 RES1   0.0000
   135 C56       0.5332   -3.1316    0.8310   C.ar      1 RES1   0.0000
   136 C57      -0.3005   -2.6315    1.9420   C.ar      1 RES1   0.0000
   137 N17      -0.7056   -1.3652    1.8585   N.ar      1 RES1   0.0000
   138 N18      -1.2911   -0.8219    2.8997   N.ar      1 RES1   0.0000
   139 C58      -1.5095   -1.5075    4.0074   C.ar      1 RES1   0.0000
   140 C59      -2.0870   -0.7260    5.1433   C.3       1 RES1   0.0000
   141 C60      -1.1060    0.3248    5.6900   C.3       1 RES1   0.0000
   142 C61      -1.6973    1.1071    6.8615   C.3       1 RES1   0.0000
   143 C62      -1.2269   -2.9063    4.0058   C.ar      1 RES1   0.0000
   144 C63      -1.5479   -3.8093    5.1357   C.3       1 RES1   0.0000
   145 C64      -0.2491   -4.3296    5.7771   C.3       1 RES1   0.0000
   146 C65       0.5705   -3.2169    6.4179   C.3       1 RES1   0.0000
   147 N19      -0.5943   -3.4256    2.9643   N.ar      1 RES1   0.0000
   148 N20       1.0083   -2.1851    0.0162   N.ar      1 RES1   0.0000
   149 N21       3.5418   -1.5077   -2.4337   N.ar      1 RES1   0.0000
   150 C66       4.0567   -0.4179   -2.9874   C.ar      1 RES1   0.0000
   151 C67       5.3700   -0.5267   -3.6683   C.3       1 RES1   0.0000
   152 C68       6.4715    0.0850   -2.7801   C.3       1 RES1   0.0000
   153 C69       6.5437   -0.5976   -1.4224   C.3       1 RES1   0.0000
   154 H63       2.4912    4.9022   -5.0171   H         1 RES1   0.0000
   155 H64       4.1785    4.4168   -4.9579   H         1 RES1   0.0000
   156 H65       3.3557    4.9323   -3.4840   H         1 RES1   0.0000
   157 H66       2.6829    2.4486   -5.1473   H         1 RES1   0.0000
   158 H67       1.8445    2.9168   -3.6671   H         1 RES1   0.0000
   159 H68       4.0839    2.7684   -2.4785   H         1 RES1   0.0000
   160 H69       4.7492    2.0484   -3.9445   H         1 RES1   0.0000
   161 H70       3.0730   -4.0220   -1.8594   H         1 RES1   0.0000
   162 H71       2.0821   -5.8481   -0.4138   H         1 RES1   0.0000
   163 H72       0.4406   -5.2116    1.3423   H         1 RES1   0.0000
   164 H73      -2.4046   -1.3696    5.9583   H         1 RES1   0.0000
   165 H74      -2.9632   -0.1966    4.7676   H         1 RES1   0.0000
   166 H75      -0.8419    1.0140    4.8854   H         1 RES1   0.0000
   167 H76      -0.1891   -0.1621    6.0261   H         1 RES1   0.0000
   168 H77      -2.6040    1.6399    6.5775   H         1 RES1   0.0000
   169 H78      -0.9777    1.8396    7.2271   H         1 RES1   0.0000
   170 H79      -1.9410    0.4416    7.6874   H         1 RES1   0.0000
   171 H80      -2.1023   -4.6768    4.7809   H         1 RES1   0.0000
   172 H81      -2.1506   -3.2928    5.8768   H         1 RES1   0.0000
   173 H82       0.3377   -4.8278    5.0057   H         1 RES1   0.0000
   174 H83      -0.5126   -5.0653    6.5361   H         1 RES1   0.0000
   175 H84       0.8539   -2.4573    5.6858   H         1 RES1   0.0000
   176 H85       1.4807   -3.6268    6.8514   H         1 RES1   0.0000
   177 H86       0.0062   -2.7329    7.2127   H         1 RES1   0.0000
   178 H87       5.3520    0.0183   -4.6119   H         1 RES1   0.0000
   179 H88       5.6004   -1.5734   -3.8562   H         1 RES1   0.0000
   180 H89       6.2851    1.1491   -2.6412   H         1 RES1   0.0000
   181 H90       7.4257   -0.0232   -3.2934   H         1 RES1   0.0000
   182 H91       5.6115   -0.4672   -0.8688   H         1 RES1   0.0000
   183 H92       7.3508   -0.1795   -0.8250   H         1 RES1   0.0000
   184 H93       6.7170   -1.6640   -1.5435   H         1 RES1   0.0000
@<TRIPOS>BOND
     1     1     7    1
     2     1    15    1
     3     1    26    1
     4     1    68    1
     5     1    76    1
     6     1    87    1
     7     1   129    1
     8     1   137    1
     9     1   148    1
    10     2     3    1
    11     2    32    1
    12     2    33    1
    13     2    34    1
    14     3     4    1
    15     3    35    1
    16     3    36    1
    17     4     5    1
    18     4    37    1
    19     4    38    1
    20     5     6    1
    21     5    28    2
    22     6     7    2
    23     7     8    1
    24     8     9    1
    25     8    27    2
    26     9    10    1
    27     9    26    2
    28    10    11    2
    29    10    39    1
    30    11    12    1
    31    11    40    1
    32    12    13    2
    33    12    41    1
    34    13    14    1
    35    13    26    1
    36    14    15    1
    37    14    25    2
    38    15    16    2
    39    16    17    1
    40    17    18    1
    41    17    21    2
    42    18    19    1
    43    18    42    1
    44    18    43    1
    45    19    20    1
    46    19    44    1
    47    19    45    1
    48    20    46    1
    49    20    47    1
    50    20    48    1
    51    21    22    1
    52    21    25    1
    53    22    23    1
    54    22    49    1
    55    22    50    1
    56    23    24    1
    57    23    51    1
    58    23    52    1
    59    24    53    1
    60    24    54    1
    61    24    55    1
    62    27    28    1
    63    28    29    1
    64    29    30    1
    65    29    56    1
    66    29    57    1
    67    30    31    1
    68    30    58    1
    69    30    59    1
    70    31    60    1
    71    31    61    1
    72    31    62    1
    73    63    64    1
    74    63    93    1
    75    63    94    1
    76    63    95    1
    77    64    65    1
    78    64    96    1
    79    64    97    1
    80    65    66    1
    81    65    98    1
    82    65    99    1
    83    66    67    1
    84    66    89    2
    85    67    68    2
    86    68    69    1
    87    69    70    1
    88    69    88    2
    89    70    71    1
    90    70    87    2
    91    71    72    2
    92    71   100    1
    93    72    73    1
    94    72   101    1
    95    73    74    2
    96    73   102    1
    97    74    75    1
    98    74    87    1
    99    75    76    1
   100    75    86    2
   101    76    77    2
   102    77    78    1
   103    78    79    1
   104    78    82    2
   105    79    80    1
   106    79   103    1
   107    79   104    1
   108    80    81    1
   109    80   105    1
   110    80   106    1
   111    81   107    1
   112    81   108    1
   113    81   109    1
   114    82    83    1
   115    82    86    1
   116    83    84    1
   117    83   110    1
   118    83   111    1
   119    84    85    1
   120    84   112    1
   121    84   113    1
   122    85   114    1
   123    85   115    1
   124    85   116    1
   125    88    89    1
   126    89    90    1
   127    90    91    1
   128    90   117    1
   129    90   118    1
   130    91    92    1
   131    91   119    1
   132    91   120    1
   133    92   121    1
   134    92   122    1
   135    92   123    1
   136   124   125    1
   137   124   154    1
   138   124   155    1
   139   124   156    1
   140   125   126    1
   141   125   157    1
   142   125   158    1
   143   126   127    1
   144   126   159    1
   145   126   160    1
   146   127   128    1
   147   127   150    2
   148   128   129    2
   149   129   130    1
   150   130   131    1
   151   130   149    2
   152   131   132    1
   153   131   148    2
   154   132   133    2
   155   132   161    1
   156   133   134    1
   157   133   162    1
   158   134   135    2
   159   134   163    1
   160   135   136    1
   161   135   148    1
   162   136   137    1
   163   136   147    2
   164   137   138    2
   165   138   139    1
   166   139   140    1
   167   139   143    2
   168   140   141    1
   169   140   164    1
   170   140   165    1
   171   141   142    1
   172   141   166    1
   173   141   167    1
   174   142   168    1
   175   142   169    1
   176   142   170    1
   177   143   144    1
   178   143   147    1
   179   144   145    1
   180   144   171    1
   181   144   172    1
   182   145   146    1
   183   145   173    1
   184   145   174    1
   185   146   175    1
   186   146   176    1
   187   146   177    1
   188   149   150    1
   189   150   151    1
   190   151   152    1
   191   151   178    1
   192   151   179    1
   193   152   153    1
   194   152   180    1
   195   152   181    1
   196   153   182    1
   197   153   183    1
   198   153   184    1
@<TRIPOS>SUBSTRUCTURE
     1 RES1      184 GROUP             0 ****  ****    0  
