@<TRIPOS>MOLECULE
am_c3_9H2O_c0_0_nunpairedes_0_charge_3 Charge: 3 Unpaired_Electrons: 3 XTB_Unpaired_Electrons: 0 XTB_Charge: 3
   196   222     1     0     0
SMALL
NoCharges
****
Generated from Architector

@<TRIPOS>ATOM
     1 Er1      -0.0726   -0.1410   -0.0897   Er        1 RES1   0.0000
     2 C1       -3.9590    1.9034    6.0761   C.3       1 RES1   0.0000
     3 C2       -2.5190    1.9336    5.6169   C.3       1 RES1   0.0000
     4 C3       -1.7985    3.2983    5.8190   C.3       1 RES1   0.0000
     5 C4       -0.2991    2.9543    5.7580   C.3       1 RES1   0.0000
     6 C5       -0.2913    1.4441    5.4454   C.3       1 RES1   0.0000
     7 C6       -0.8547    1.3575    4.0690   C.ar      1 RES1   0.0000
     8 N1       -0.3048    1.1114    2.9109   N.ar      1 RES1   0.0000
     9 N2       -1.1218    1.0275    1.8545   N.ar      1 RES1   0.0000
    10 C7       -2.4240    1.2212    2.0009   C.ar      1 RES1   0.0000
    11 C8       -3.2745    0.8526    0.8515   C.ar      1 RES1   0.0000
    12 C9       -4.6365    1.1426    0.8007   C.ar      1 RES1   0.0000
    13 C10      -5.4002    0.5497   -0.1928   C.ar      1 RES1   0.0000
    14 C11      -4.8045   -0.3729   -1.0439   C.ar      1 RES1   0.0000
    15 C12      -3.4344   -0.6011   -0.9249   C.ar      1 RES1   0.0000
    16 C13      -2.7072   -1.6847   -1.6209   C.ar      1 RES1   0.0000
    17 N3       -1.3840   -1.5753   -1.5838   N.ar      1 RES1   0.0000
    18 N4       -0.6150   -2.5905   -1.9694   N.ar      1 RES1   0.0000
    19 C14      -1.2160   -3.6653   -2.4058   C.ar      1 RES1   0.0000
    20 C15      -2.6368   -3.7344   -2.5207   C.ar      1 RES1   0.0000
    21 N5       -3.3904   -2.7434   -2.1020   N.ar      1 RES1   0.0000
    22 C16      -2.9595   -5.1383   -2.9248   C.3       1 RES1   0.0000
    23 C17      -4.3212   -5.4423   -3.5050   C.3       1 RES1   0.0000
    24 C18      -2.6858   -5.8551   -1.5711   C.3       1 RES1   0.0000
    25 C19      -1.1602   -5.7680   -1.3914   C.3       1 RES1   0.0000
    26 C20      -0.6898   -5.0238   -2.6693   C.3       1 RES1   0.0000
    27 C21      -1.6904   -5.5317   -3.7398   C.3       1 RES1   0.0000
    28 C22      -1.5776   -4.7809   -5.0638   C.3       1 RES1   0.0000
    29 C23      -1.5575   -7.0206   -4.0257   C.3       1 RES1   0.0000
    30 N6       -2.6810    0.0513   -0.0382   N.ar      1 RES1   0.0000
    31 N7       -3.0386    1.5905    3.1374   N.ar      1 RES1   0.0000
    32 C24      -2.2520    1.6406    4.1829   C.ar      1 RES1   0.0000
    33 C25      -1.5057    0.9354    6.2707   C.3       1 RES1   0.0000
    34 C26      -1.8215   -0.5226    5.9500   C.3       1 RES1   0.0000
    35 C27      -1.3676    1.0680    7.7804   C.3       1 RES1   0.0000
    36 H1       -4.5198    2.6978    5.5931   H         1 RES1   0.0000
    37 H2       -4.0130    2.0409    7.1540   H         1 RES1   0.0000
    38 H3       -4.4148    0.9530    5.8151   H         1 RES1   0.0000
    39 H4       -2.0882    3.7163    6.7808   H         1 RES1   0.0000
    40 H5       -2.0978    4.0110    5.0491   H         1 RES1   0.0000
    41 H6        0.1939    3.1336    6.7104   H         1 RES1   0.0000
    42 H7        0.2391    3.5134    4.9937   H         1 RES1   0.0000
    43 H8        0.6669    0.9559    5.6076   H         1 RES1   0.0000
    44 H9       -5.0624    1.7962    1.5481   H         1 RES1   0.0000
    45 H10      -6.4586    0.7570   -0.2689   H         1 RES1   0.0000
    46 H11      -5.3796   -0.9264   -1.7685   H         1 RES1   0.0000
    47 H12      -5.0997   -5.1526   -2.8019   H         1 RES1   0.0000
    48 H13      -4.3998   -6.5103   -3.6961   H         1 RES1   0.0000
    49 H14      -4.4785   -4.9108   -4.4394   H         1 RES1   0.0000
    50 H15      -3.0396   -6.8814   -1.6381   H         1 RES1   0.0000
    51 H16      -3.2496   -5.3647   -0.7799   H         1 RES1   0.0000
    52 H17      -0.6971   -6.7486   -1.3397   H         1 RES1   0.0000
    53 H18      -0.8719   -5.2198   -0.4915   H         1 RES1   0.0000
    54 H19       0.3723   -5.1096   -2.8799   H         1 RES1   0.0000
    55 H20      -1.7399   -3.7098   -4.9510   H         1 RES1   0.0000
    56 H21      -2.3140   -5.1546   -5.7691   H         1 RES1   0.0000
    57 H22      -0.5949   -4.9498   -5.5000   H         1 RES1   0.0000
    58 H23      -1.6831   -7.6356   -3.1446   H         1 RES1   0.0000
    59 H24      -0.5775   -7.2255   -4.4494   H         1 RES1   0.0000
    60 H25      -2.3016   -7.3388   -4.7481   H         1 RES1   0.0000
    61 H26      -1.9131   -0.6918    4.8767   H         1 RES1   0.0000
    62 H27      -2.7544   -0.8216    6.4200   H         1 RES1   0.0000
    63 H28      -1.0283   -1.1632    6.3297   H         1 RES1   0.0000
    64 H29      -1.1948    2.0857    8.1081   H         1 RES1   0.0000
    65 H30      -0.5426    0.4482    8.1250   H         1 RES1   0.0000
    66 H31      -2.2755    0.7172    8.2656   H         1 RES1   0.0000
    67 C28      -1.8675    5.4476   -5.0675   C.3       1 RES1   0.0000
    68 C29      -1.9397    3.9436   -4.9235   C.3       1 RES1   0.0000
    69 C30      -3.3784    3.3671   -5.0605   C.3       1 RES1   0.0000
    70 C31      -3.1733    1.8814   -5.4048   C.3       1 RES1   0.0000
    71 C32      -1.6433    1.7093   -5.3293   C.3       1 RES1   0.0000
    72 C33      -1.3513    1.9251   -3.8860   C.ar      1 RES1   0.0000
    73 N8       -1.1925    1.1094   -2.8807   N.ar      1 RES1   0.0000
    74 N9       -0.8048    1.6344   -1.7172   N.ar      1 RES1   0.0000
    75 C34      -0.5629    2.9431   -1.6460   C.ar      1 RES1   0.0000
    76 C35       0.2976    3.3766   -0.5367   C.ar      1 RES1   0.0000
    77 C36       0.5959    4.7137   -0.2652   C.ar      1 RES1   0.0000
    78 C37       1.5545    4.9958    0.6984   C.ar      1 RES1   0.0000
    79 C38       2.1756    3.9440    1.3590   C.ar      1 RES1   0.0000
    80 C39       1.7918    2.6428    1.0394   C.ar      1 RES1   0.0000
    81 C40       2.4240    1.4591    1.6324   C.ar      1 RES1   0.0000
    82 N10       1.8760    0.2956    1.2960   N.ar      1 RES1   0.0000
    83 N11       2.4099   -0.8477    1.7179   N.ar      1 RES1   0.0000
    84 C41       3.4885   -0.7589    2.4389   C.ar      1 RES1   0.0000
    85 C42       4.0654    0.5036    2.7765   C.ar      1 RES1   0.0000
    86 N12       3.5202    1.6276    2.3867   N.ar      1 RES1   0.0000
    87 C43       5.3376    0.2239    3.4854   C.3       1 RES1   0.0000
    88 C44       5.9446    1.3599    4.2737   C.3       1 RES1   0.0000
    89 C45       6.2043   -0.3061    2.2983   C.3       1 RES1   0.0000
    90 C46       5.6027   -1.6849    1.9715   C.3       1 RES1   0.0000
    91 C47       4.4109   -1.7995    2.9515   C.3       1 RES1   0.0000
    92 C48       4.9499   -1.0950    4.2252   C.3       1 RES1   0.0000
    93 C49       3.8479   -0.8937    5.2666   C.3       1 RES1   0.0000
    94 C50       6.1168   -1.8075    4.8865   C.3       1 RES1   0.0000
    95 N13       0.8735    2.3667    0.1151   N.ar      1 RES1   0.0000
    96 N14      -0.9829    3.8456   -2.5457   N.ar      1 RES1   0.0000
    97 C51      -1.4236    3.3361   -3.6659   C.ar      1 RES1   0.0000
    98 C52      -1.1193    3.0524   -5.9263   C.3       1 RES1   0.0000
    99 C53       0.3918    3.2495   -5.7599   C.3       1 RES1   0.0000
   100 C54      -1.4746    3.2808   -7.3891   C.3       1 RES1   0.0000
   101 H32      -2.6511    5.9113   -4.4757   H         1 RES1   0.0000
   102 H33      -2.0078    5.7320   -6.1089   H         1 RES1   0.0000
   103 H34      -0.9089    5.8227   -4.7191   H         1 RES1   0.0000
   104 H35      -3.9093    3.9060   -5.8430   H         1 RES1   0.0000
   105 H36      -3.9379    3.5089   -4.1354   H         1 RES1   0.0000
   106 H37      -3.5311    1.6475   -6.4055   H         1 RES1   0.0000
   107 H38      -3.6665    1.2051   -4.7072   H         1 RES1   0.0000
   108 H39      -1.2883    0.7792   -5.7598   H         1 RES1   0.0000
   109 H40       0.0822    5.4884   -0.8108   H         1 RES1   0.0000
   110 H41       1.8306    6.0167    0.9199   H         1 RES1   0.0000
   111 H42       2.9481    4.0978    2.0933   H         1 RES1   0.0000
   112 H43       6.0863    2.2271    3.6305   H         1 RES1   0.0000
   113 H44       6.9058    1.0628    4.6887   H         1 RES1   0.0000
   114 H45       5.2796    1.6408    5.0876   H         1 RES1   0.0000
   115 H46       7.2422   -0.3748    2.6178   H         1 RES1   0.0000
   116 H47       6.1686    0.3846    1.4529   H         1 RES1   0.0000
   117 H48       6.3127   -2.4879    2.1539   H         1 RES1   0.0000
   118 H49       5.2651   -1.7695    0.9382   H         1 RES1   0.0000
   119 H50       3.9968   -2.7989    3.0549   H         1 RES1   0.0000
   120 H51       2.9920   -0.3442    4.8721   H         1 RES1   0.0000
   121 H52       4.2273   -0.3474    6.1270   H         1 RES1   0.0000
   122 H53       3.5003   -1.8642    5.6162   H         1 RES1   0.0000
   123 H54       6.9639   -1.9307    4.2227   H         1 RES1   0.0000
   124 H55       5.7898   -2.7883    5.2218   H         1 RES1   0.0000
   125 H56       6.4531   -1.2483    5.7541   H         1 RES1   0.0000
   126 H57       0.7907    2.7502   -4.8786   H         1 RES1   0.0000
   127 H58       0.6239    4.3067   -5.6689   H         1 RES1   0.0000
   128 H59       0.9195    2.8859   -6.6370   H         1 RES1   0.0000
   129 H60      -2.5438    3.3179   -7.5600   H         1 RES1   0.0000
   130 H61      -1.0565    2.4818   -7.9959   H         1 RES1   0.0000
   131 H62      -1.0465    4.2190   -7.7326   H         1 RES1   0.0000
   132 C55       3.6233   -3.2163   -5.8062   C.3       1 RES1   0.0000
   133 C56       3.0950   -1.8461   -5.4447   C.3       1 RES1   0.0000
   134 C57       4.0788   -0.6724   -5.7233   C.3       1 RES1   0.0000
   135 C58       3.1883    0.5832   -5.7314   C.3       1 RES1   0.0000
   136 C59       1.7864    0.0296   -5.4001   C.3       1 RES1   0.0000
   137 C60       1.9116   -0.4285   -3.9914   C.ar      1 RES1   0.0000
   138 N15       1.4756    0.0685   -2.8662   N.ar      1 RES1   0.0000
   139 N16       1.6561   -0.6671   -1.7664   N.ar      1 RES1   0.0000
   140 C61       2.2837   -1.8347   -1.8540   C.ar      1 RES1   0.0000
   141 C62       2.1963   -2.7288   -0.6904   C.ar      1 RES1   0.0000
   142 C63       3.0737   -3.7954   -0.5038   C.ar      1 RES1   0.0000
   143 C64       2.8138   -4.6911    0.5229   C.ar      1 RES1   0.0000
   144 C65       1.6747   -4.5103    1.2992   C.ar      1 RES1   0.0000
   145 C66       0.8667   -3.4054    1.0434   C.ar      1 RES1   0.0000
   146 C67      -0.4275   -3.1808    1.6972   C.ar      1 RES1   0.0000
   147 N17      -0.9335   -1.9629    1.5312   N.ar      1 RES1   0.0000
   148 N18      -2.2184   -1.7490    1.8111   N.ar      1 RES1   0.0000
   149 C68      -2.9033   -2.7529    2.2740   C.ar      1 RES1   0.0000
   150 C69      -2.2854   -3.9904    2.6326   C.ar      1 RES1   0.0000
   151 N19      -1.0360   -4.2126    2.3108   N.ar      1 RES1   0.0000
   152 C70      -3.3612   -4.8704    3.1743   C.3       1 RES1   0.0000
   153 C71      -2.9600   -6.0392    4.0398   C.3       1 RES1   0.0000
   154 C72      -4.0633   -5.2684    1.8453   C.3       1 RES1   0.0000
   155 C73      -4.6871   -3.9551    1.3413   C.3       1 RES1   0.0000
   156 C74      -4.3558   -2.9341    2.4636   C.3       1 RES1   0.0000
   157 C75      -4.3619   -3.8159    3.7410   C.3       1 RES1   0.0000
   158 C76      -3.8119   -3.0860    4.9642   C.3       1 RES1   0.0000
   159 C77      -5.7431   -4.3497    4.0848   C.3       1 RES1   0.0000
   160 N20       1.1355   -2.5178    0.0869   N.ar      1 RES1   0.0000
   161 N21       2.8991   -2.3238   -2.9444   N.ar      1 RES1   0.0000
   162 C78       2.6972   -1.6220   -4.0273   C.ar      1 RES1   0.0000
   163 C79       1.7859   -1.3375   -6.1344   C.3       1 RES1   0.0000
   164 C80       0.5570   -2.1671   -5.7686   C.3       1 RES1   0.0000
   165 C81       1.8540   -1.2438   -7.6517   C.3       1 RES1   0.0000
   166 H63       4.5894   -3.3736   -5.3346   H         1 RES1   0.0000
   167 H64       3.7446   -3.3032   -6.8843   H         1 RES1   0.0000
   168 H65       2.9409   -3.9878   -5.4592   H         1 RES1   0.0000
   169 H66       4.5686   -0.8413   -6.6796   H         1 RES1   0.0000
   170 H67       4.8573   -0.6296   -4.9612   H         1 RES1   0.0000
   171 H68       3.1767    1.0623   -6.7077   H         1 RES1   0.0000
   172 H69       3.4972    1.3279   -4.9996   H         1 RES1   0.0000
   173 H70       0.9703    0.7029   -5.6156   H         1 RES1   0.0000
   174 H71       3.9138   -3.9061   -1.1707   H         1 RES1   0.0000
   175 H72       3.4601   -5.5382    0.6914   H         1 RES1   0.0000
   176 H73       1.3937   -5.2062    2.0735   H         1 RES1   0.0000
   177 H74      -2.2378   -6.6638    3.5168   H         1 RES1   0.0000
   178 H75      -3.8365   -6.6357    4.2853   H         1 RES1   0.0000
   179 H76      -2.5100   -5.6866    4.9640   H         1 RES1   0.0000
   180 H77      -4.8178   -6.0216    2.0622   H         1 RES1   0.0000
   181 H78      -3.3480   -5.7216    1.1589   H         1 RES1   0.0000
   182 H79      -5.7621   -4.0344    1.2110   H         1 RES1   0.0000
   183 H80      -4.2651   -3.6228    0.3896   H         1 RES1   0.0000
   184 H81      -4.9612   -2.0328    2.4575   H         1 RES1   0.0000
   185 H82      -2.7510   -2.8636    4.8721   H         1 RES1   0.0000
   186 H83      -3.9403   -3.6942    5.8549   H         1 RES1   0.0000
   187 H84      -4.3568   -2.1555    5.1101   H         1 RES1   0.0000
   188 H85      -6.1973   -4.9034    3.2723   H         1 RES1   0.0000
   189 H86      -6.3901   -3.5104    4.3274   H         1 RES1   0.0000
   190 H87      -5.6945   -5.0017    4.9517   H         1 RES1   0.0000
   191 H88       0.4326   -2.2837   -4.6928   H         1 RES1   0.0000
   192 H89       0.6336   -3.1568   -6.2077   H         1 RES1   0.0000
   193 H90      -0.3404   -1.6932   -6.1626   H         1 RES1   0.0000
   194 H91       2.7148   -0.6891   -8.0042   H         1 RES1   0.0000
   195 H92       0.9538   -0.7566   -8.0211   H         1 RES1   0.0000
   196 H93       1.9024   -2.2415   -8.0821   H         1 RES1   0.0000
@<TRIPOS>BOND
     1     1     9    1
     2     1    17    1
     3     1    30    1
     4     1    74    1
     5     1    82    1
     6     1    95    1
     7     1   139    1
     8     1   147    1
     9     1   160    1
    10     2     3    1
    11     2    36    1
    12     2    37    1
    13     2    38    1
    14     3     4    1
    15     3    32    1
    16     3    33    1
    17     4     5    1
    18     4    39    1
    19     4    40    1
    20     5     6    1
    21     5    41    1
    22     5    42    1
    23     6     7    1
    24     6    33    1
    25     6    43    1
    26     7     8    1
    27     7    32    2
    28     8     9    2
    29     9    10    1
    30    10    11    1
    31    10    31    2
    32    11    12    1
    33    11    30    2
    34    12    13    2
    35    12    44    1
    36    13    14    1
    37    13    45    1
    38    14    15    2
    39    14    46    1
    40    15    16    1
    41    15    30    1
    42    16    17    1
    43    16    21    2
    44    17    18    2
    45    18    19    1
    46    19    20    2
    47    19    26    1
    48    20    21    1
    49    20    22    1
    50    22    23    1
    51    22    24    1
    52    22    27    1
    53    23    47    1
    54    23    48    1
    55    23    49    1
    56    24    25    1
    57    24    50    1
    58    24    51    1
    59    25    26    1
    60    25    52    1
    61    25    53    1
    62    26    27    1
    63    26    54    1
    64    27    28    1
    65    27    29    1
    66    28    55    1
    67    28    56    1
    68    28    57    1
    69    29    58    1
    70    29    59    1
    71    29    60    1
    72    31    32    1
    73    33    34    1
    74    33    35    1
    75    34    61    1
    76    34    62    1
    77    34    63    1
    78    35    64    1
    79    35    65    1
    80    35    66    1
    81    67    68    1
    82    67   101    1
    83    67   102    1
    84    67   103    1
    85    68    69    1
    86    68    97    1
    87    68    98    1
    88    69    70    1
    89    69   104    1
    90    69   105    1
    91    70    71    1
    92    70   106    1
    93    70   107    1
    94    71    72    1
    95    71    98    1
    96    71   108    1
    97    72    73    1
    98    72    97    2
    99    73    74    2
   100    74    75    1
   101    75    76    1
   102    75    96    2
   103    76    77    1
   104    76    95    2
   105    77    78    2
   106    77   109    1
   107    78    79    1
   108    78   110    1
   109    79    80    2
   110    79   111    1
   111    80    81    1
   112    80    95    1
   113    81    82    1
   114    81    86    2
   115    82    83    2
   116    83    84    1
   117    84    85    2
   118    84    91    1
   119    85    86    1
   120    85    87    1
   121    87    88    1
   122    87    89    1
   123    87    92    1
   124    88   112    1
   125    88   113    1
   126    88   114    1
   127    89    90    1
   128    89   115    1
   129    89   116    1
   130    90    91    1
   131    90   117    1
   132    90   118    1
   133    91    92    1
   134    91   119    1
   135    92    93    1
   136    92    94    1
   137    93   120    1
   138    93   121    1
   139    93   122    1
   140    94   123    1
   141    94   124    1
   142    94   125    1
   143    96    97    1
   144    98    99    1
   145    98   100    1
   146    99   126    1
   147    99   127    1
   148    99   128    1
   149   100   129    1
   150   100   130    1
   151   100   131    1
   152   132   133    1
   153   132   166    1
   154   132   167    1
   155   132   168    1
   156   133   134    1
   157   133   162    1
   158   133   163    1
   159   134   135    1
   160   134   169    1
   161   134   170    1
   162   135   136    1
   163   135   171    1
   164   135   172    1
   165   136   137    1
   166   136   163    1
   167   136   173    1
   168   137   138    1
   169   137   162    2
   170   138   139    2
   171   139   140    1
   172   140   141    1
   173   140   161    2
   174   141   142    1
   175   141   160    2
   176   142   143    2
   177   142   174    1
   178   143   144    1
   179   143   175    1
   180   144   145    2
   181   144   176    1
   182   145   146    1
   183   145   160    1
   184   146   147    1
   185   146   151    2
   186   147   148    2
   187   148   149    1
   188   149   150    2
   189   149   156    1
   190   150   151    1
   191   150   152    1
   192   152   153    1
   193   152   154    1
   194   152   157    1
   195   153   177    1
   196   153   178    1
   197   153   179    1
   198   154   155    1
   199   154   180    1
   200   154   181    1
   201   155   156    1
   202   155   182    1
   203   155   183    1
   204   156   157    1
   205   156   184    1
   206   157   158    1
   207   157   159    1
   208   158   185    1
   209   158   186    1
   210   158   187    1
   211   159   188    1
   212   159   189    1
   213   159   190    1
   214   161   162    1
   215   163   164    1
   216   163   165    1
   217   164   191    1
   218   164   192    1
   219   164   193    1
   220   165   194    1
   221   165   195    1
   222   165   196    1
@<TRIPOS>SUBSTRUCTURE
     1 RES1      196 GROUP             0 ****  ****    0  
