@<TRIPOS>MOLECULE
ICIGOT_geomtry_0_nunpairedes_0_charge_1 Charge: 1 Unpaired_Electrons: 3 XTB_Unpaired_Electrons: 0 XTB_Charge: 1
   103   111     1     0     0
SMALL
NoCharges
****
Generated from Architector

@<TRIPOS>ATOM
     1 Er1      -0.3239    0.0878   -0.1456   Er        1 RES1   0.0000
     2 C1       -0.0760    6.8730   -3.7768   C.3       1 RES1   0.0000
     3 C2       -1.4066    6.6250   -3.0717   C.3       1 RES1   0.0000
     4 C3       -1.2987    6.6297   -1.5469   C.3       1 RES1   0.0000
     5 C4       -0.4331    5.4800   -1.0432   C.3       1 RES1   0.0000
     6 C5       -0.4735    5.3731    0.4901   C.3       1 RES1   0.0000
     7 C6        0.3640    4.2338    0.9527   C.ar      1 RES1   0.0000
     8 N1        0.1160    3.0627    0.3953   N.ar      1 RES1   0.0000
     9 N2        0.6989    1.9649    0.8148   N.ar      1 RES1   0.0000
    10 C7        1.4461    2.0409    1.9288   C.ar      1 RES1   0.0000
    11 C8        1.8075    0.7567    2.5379   C.ar      1 RES1   0.0000
    12 C9        2.4744    0.6316    3.7548   C.ar      1 RES1   0.0000
    13 C10       2.6979   -0.6479    4.2397   C.ar      1 RES1   0.0000
    14 C11       2.2896   -1.7457    3.4993   C.ar      1 RES1   0.0000
    15 C12       1.6911   -1.5300    2.2609   C.ar      1 RES1   0.0000
    16 C13       1.4108   -2.5769    1.2533   C.ar      1 RES1   0.0000
    17 C14       1.4884   -3.9582    1.4324   C.ar      1 RES1   0.0000
    18 C15       1.3755   -4.7724    0.3159   C.ar      1 RES1   0.0000
    19 C16       1.2494   -4.2134   -0.9484   C.ar      1 RES1   0.0000
    20 C17       1.1724   -2.8276   -1.0374   C.ar      1 RES1   0.0000
    21 C18       1.1805   -2.0265   -2.2740   C.ar      1 RES1   0.0000
    22 N3        0.8000   -0.7522   -2.0945   N.ar      1 RES1   0.0000
    23 N4        0.9484    0.0945   -3.0771   N.ar      1 RES1   0.0000
    24 C19       1.4891   -0.2847   -4.2235   C.ar      1 RES1   0.0000
    25 C20       1.6555    0.8143   -5.2195   C.3       1 RES1   0.0000
    26 C21       3.0357    1.4978   -5.1658   C.3       1 RES1   0.0000
    27 C22       3.2945    2.2399   -3.8501   C.3       1 RES1   0.0000
    28 C23       4.0032    1.3957   -2.7904   C.3       1 RES1   0.0000
    29 C24       4.2485    2.1888   -1.5125   C.3       1 RES1   0.0000
    30 C25       1.8069   -1.6609   -4.4235   C.ar      1 RES1   0.0000
    31 C26       2.2709   -2.2386   -5.7149   C.3       1 RES1   0.0000
    32 C27       3.4396   -3.2265   -5.5797   C.3       1 RES1   0.0000
    33 C28       4.7445   -2.5539   -5.1543   C.3       1 RES1   0.0000
    34 C29       4.8453   -2.2442   -3.6603   C.3       1 RES1   0.0000
    35 C30       4.8081   -3.4904   -2.7826   C.3       1 RES1   0.0000
    36 N5        1.6243   -2.5124   -3.4193   N.ar      1 RES1   0.0000
    37 N6        1.2012   -2.0513    0.0453   N.ar      1 RES1   0.0000
    38 N7        1.4448   -0.2973    1.8106   N.ar      1 RES1   0.0000
    39 N8        1.8842    3.1881    2.4185   N.ar      1 RES1   0.0000
    40 C31       1.4417    4.3107    1.8895   C.ar      1 RES1   0.0000
    41 C32       2.1242    5.5600    2.3108   C.3       1 RES1   0.0000
    42 C33       2.7505    6.3308    1.1377   C.3       1 RES1   0.0000
    43 C34       3.8382    5.5302    0.4275   C.3       1 RES1   0.0000
    44 C35       4.4835    6.3181   -0.7140   C.3       1 RES1   0.0000
    45 C36       3.5561    6.5413   -1.9052   C.3       1 RES1   0.0000
    46 H1       -0.2365    6.9781   -4.8470   H         1 RES1   0.0000
    47 H2        0.6160    6.0484   -3.6234   H         1 RES1   0.0000
    48 H3        0.3881    7.7879   -3.4133   H         1 RES1   0.0000
    49 H4       -1.8156    5.6639   -3.3913   H         1 RES1   0.0000
    50 H5       -2.1113    7.4030   -3.3707   H         1 RES1   0.0000
    51 H6       -2.3009    6.5298   -1.1257   H         1 RES1   0.0000
    52 H7       -0.8869    7.5853   -1.2138   H         1 RES1   0.0000
    53 H8        0.6016    5.6240   -1.3592   H         1 RES1   0.0000
    54 H9       -0.7968    4.5417   -1.4651   H         1 RES1   0.0000
    55 H10      -1.5077    5.1785    0.7876   H         1 RES1   0.0000
    56 H11      -0.1619    6.3094    0.9530   H         1 RES1   0.0000
    57 H12       2.8020    1.5025    4.2976   H         1 RES1   0.0000
    58 H13       3.1905   -0.7870    5.1873   H         1 RES1   0.0000
    59 H14       2.4522   -2.7443    3.8701   H         1 RES1   0.0000
    60 H15       1.6384   -4.3986    2.4063   H         1 RES1   0.0000
    61 H16       1.4192   -5.8438    0.4329   H         1 RES1   0.0000
    62 H17       1.2179   -4.8222   -1.8340   H         1 RES1   0.0000
    63 H18       0.9001    1.5691   -4.9893   H         1 RES1   0.0000
    64 H19       1.4755    0.4333   -6.2248   H         1 RES1   0.0000
    65 H20       3.0624    2.2137   -5.9895   H         1 RES1   0.0000
    66 H21       3.8238    0.7632   -5.3413   H         1 RES1   0.0000
    67 H22       2.3468    2.6038   -3.4483   H         1 RES1   0.0000
    68 H23       3.9268    3.1050   -4.0581   H         1 RES1   0.0000
    69 H24       4.9597    1.0531   -3.1954   H         1 RES1   0.0000
    70 H25       3.4064    0.5142   -2.5383   H         1 RES1   0.0000
    71 H26       4.8523    3.0693   -1.7157   H         1 RES1   0.0000
    72 H27       4.7699    1.5775   -0.7815   H         1 RES1   0.0000
    73 H28       3.2988    2.5015   -1.0821   H         1 RES1   0.0000
    74 H29       2.5397   -1.4515   -6.4166   H         1 RES1   0.0000
    75 H30       1.4165   -2.7854   -6.1284   H         1 RES1   0.0000
    76 H31       3.5898   -3.6950   -6.5534   H         1 RES1   0.0000
    77 H32       3.1693   -4.0073   -4.8727   H         1 RES1   0.0000
    78 H33       4.8697   -1.6267   -5.7201   H         1 RES1   0.0000
    79 H34       5.5750   -3.2080   -5.4218   H         1 RES1   0.0000
    80 H35       4.0389   -1.5681   -3.3679   H         1 RES1   0.0000
    81 H36       5.7849   -1.7149   -3.4842   H         1 RES1   0.0000
    82 H37       3.8393   -3.9799   -2.8375   H         1 RES1   0.0000
    83 H38       4.9909   -3.2211   -1.7450   H         1 RES1   0.0000
    84 H39       5.5746   -4.1932   -3.0982   H         1 RES1   0.0000
    85 H40       2.8955    5.2701    3.0264   H         1 RES1   0.0000
    86 H41       1.4042    6.2060    2.8184   H         1 RES1   0.0000
    87 H42       3.1844    7.2504    1.5337   H         1 RES1   0.0000
    88 H43       1.9764    6.6067    0.4236   H         1 RES1   0.0000
    89 H44       3.4161    4.6059    0.0272   H         1 RES1   0.0000
    90 H45       4.6086    5.2572    1.1515   H         1 RES1   0.0000
    91 H46       5.3622    5.7684   -1.0551   H         1 RES1   0.0000
    92 H47       4.8288    7.2825   -0.3367   H         1 RES1   0.0000
    93 H48       3.1408    5.5940   -2.2461   H         1 RES1   0.0000
    94 H49       4.1090    6.9882   -2.7287   H         1 RES1   0.0000
    95 H50       2.7392    7.2132   -1.6541   H         1 RES1   0.0000
    96 N9       -1.9892   -1.5308    0.6285   N.3       1 RES1   0.0000
    97 O1       -2.9057   -2.1939    0.9826   O.2       1 RES1   0.0000
    98 O2       -1.2085   -1.0120    1.4407   O.co2     1 RES1   0.0000
    99 O3       -1.7285   -1.3756   -0.5843   O.co2     1 RES1   0.0000
   100 N10      -1.9919    1.7606   -0.9123   N.3       1 RES1   0.0000
   101 O4       -2.7726    2.5793   -1.2695   O.2       1 RES1   0.0000
   102 O5       -2.0876    1.1991    0.1977   O.co2     1 RES1   0.0000
   103 O6       -1.0316    1.4231   -1.6241   O.co2     1 RES1   0.0000
@<TRIPOS>BOND
     1     1     9    1
     2     1    22    1
     3     1    37    1
     4     1    38    1
     5     1    98    1
     6     1    99    1
     7     1   102    1
     8     1   103    1
     9     2     3    1
    10     2    46    1
    11     2    47    1
    12     2    48    1
    13     3     4    1
    14     3    49    1
    15     3    50    1
    16     4     5    1
    17     4    51    1
    18     4    52    1
    19     5     6    1
    20     5    53    1
    21     5    54    1
    22     6     7    1
    23     6    55    1
    24     6    56    1
    25     7     8    1
    26     7    40    2
    27     8     9    2
    28     9    10    1
    29    10    11    1
    30    10    39    2
    31    11    12    1
    32    11    38    2
    33    12    13    2
    34    12    57    1
    35    13    14    1
    36    13    58    1
    37    14    15    2
    38    14    59    1
    39    15    16    1
    40    15    38    1
    41    16    17    1
    42    16    37    2
    43    17    18    2
    44    17    60    1
    45    18    19    1
    46    18    61    1
    47    19    20    2
    48    19    62    1
    49    20    21    1
    50    20    37    1
    51    21    22    1
    52    21    36    2
    53    22    23    2
    54    23    24    1
    55    24    25    1
    56    24    30    2
    57    25    26    1
    58    25    63    1
    59    25    64    1
    60    26    27    1
    61    26    65    1
    62    26    66    1
    63    27    28    1
    64    27    67    1
    65    27    68    1
    66    28    29    1
    67    28    69    1
    68    28    70    1
    69    29    71    1
    70    29    72    1
    71    29    73    1
    72    30    31    1
    73    30    36    1
    74    31    32    1
    75    31    74    1
    76    31    75    1
    77    32    33    1
    78    32    76    1
    79    32    77    1
    80    33    34    1
    81    33    78    1
    82    33    79    1
    83    34    35    1
    84    34    80    1
    85    34    81    1
    86    35    82    1
    87    35    83    1
    88    35    84    1
    89    39    40    1
    90    40    41    1
    91    41    42    1
    92    41    85    1
    93    41    86    1
    94    42    43    1
    95    42    87    1
    96    42    88    1
    97    43    44    1
    98    43    89    1
    99    43    90    1
   100    44    45    1
   101    44    91    1
   102    44    92    1
   103    45    93    1
   104    45    94    1
   105    45    95    1
   106    96    97    2
   107    96    98    1
   108    96    99    1
   109   100   101    2
   110   100   102    1
   111   100   103    1
@<TRIPOS>SUBSTRUCTURE
     1 RES1      103 GROUP             0 ****  ****    0  
