@<TRIPOS>MOLECULE
am_c3_9H2O_c0_0_nunpairedes_0_charge_3 Charge: 3 Unpaired_Electrons: 4 XTB_Unpaired_Electrons: 0 XTB_Charge: 3
   196   222     1     0     0
SMALL
NoCharges
****
Generated from Architector

@<TRIPOS>ATOM
     1 Ho1      -0.0788   -0.0174   -0.0315   Ho        1 RES1   0.0000
     2 C1       -3.9832    5.6217    3.5500   C.3       1 RES1   0.0000
     3 C2       -2.5654    5.1138    3.4014   C.3       1 RES1   0.0000
     4 C3       -1.8344    4.9713    4.7714   C.3       1 RES1   0.0000
     5 C4       -0.3371    4.9972    4.4337   C.3       1 RES1   0.0000
     6 C5       -0.3322    4.9974    2.8937   C.3       1 RES1   0.0000
     7 C6       -0.9319    3.6871    2.5336   C.ar      1 RES1   0.0000
     8 N1       -0.3851    2.5677    2.1551   N.ar      1 RES1   0.0000
     9 N2       -1.1957    1.5903    1.7435   N.ar      1 RES1   0.0000
    10 C7       -2.5078    1.7696    1.8214   C.ar      1 RES1   0.0000
    11 C8       -3.3284    0.7941    1.0949   C.ar      1 RES1   0.0000
    12 C9       -4.6855    0.6221    1.3556   C.ar      1 RES1   0.0000
    13 C10      -5.3897   -0.2987    0.5924   C.ar      1 RES1   0.0000
    14 C11      -4.7326   -0.9666   -0.4311   C.ar      1 RES1   0.0000
    15 C12      -3.3793   -0.7054   -0.6389   C.ar      1 RES1   0.0000
    16 C13      -2.6658   -1.2491   -1.8082   C.ar      1 RES1   0.0000
    17 N3       -1.3393   -1.2551   -1.7884   N.ar      1 RES1   0.0000
    18 N4       -0.6639   -1.5428   -2.9083   N.ar      1 RES1   0.0000
    19 C14      -1.3587   -1.8135   -3.9794   C.ar      1 RES1   0.0000
    20 C15      -2.7876   -1.8601   -3.9528   C.ar      1 RES1   0.0000
    21 N5       -3.4402   -1.5864   -2.8532   N.ar      1 RES1   0.0000
    22 C16      -3.2573   -2.1393   -5.3388   C.3       1 RES1   0.0000
    23 C17      -4.7151   -1.8760   -5.6528   C.3       1 RES1   0.0000
    24 C18      -2.8260   -3.6072   -5.5993   C.3       1 RES1   0.0000
    25 C19      -1.2921   -3.5570   -5.6619   C.3       1 RES1   0.0000
    26 C20      -0.9671   -2.0702   -5.3955   C.3       1 RES1   0.0000
    27 C21      -2.1502   -1.3447   -6.1114   C.3       1 RES1   0.0000
    28 C22      -2.1899   -1.4841   -7.6241   C.3       1 RES1   0.0000
    29 C23      -2.1997    0.1555   -5.8136   C.3       1 RES1   0.0000
    30 N6       -2.6846    0.1345    0.1291   N.ar      1 RES1   0.0000
    31 N7       -3.1261    2.7963    2.4343   N.ar      1 RES1   0.0000
    32 C24      -2.3359    3.7813    2.7749   C.ar      1 RES1   0.0000
    33 C25      -1.5261    5.9444    2.5695   C.3       1 RES1   0.0000
    34 C26      -1.8461    6.0059    1.0736   C.3       1 RES1   0.0000
    35 C27      -1.3664    7.3794    3.0440   C.3       1 RES1   0.0000
    36 H1       -4.5383    4.9797    4.2299   H         1 RES1   0.0000
    37 H2       -4.5168    5.6413    2.6047   H         1 RES1   0.0000
    38 H3       -3.9571    6.6266    3.9648   H         1 RES1   0.0000
    39 H4       -2.1259    4.0437    5.2647   H         1 RES1   0.0000
    40 H5       -2.1264    5.7903    5.4218   H         1 RES1   0.0000
    41 H6        0.2031    4.1457    4.8383   H         1 RES1   0.0000
    42 H7        0.1533    5.8943    4.7984   H         1 RES1   0.0000
    43 H8        0.6294    5.2080    2.4284   H         1 RES1   0.0000
    44 H9       -5.1586    1.1857    2.1409   H         1 RES1   0.0000
    45 H10      -6.4412   -0.4765    0.7820   H         1 RES1   0.0000
    46 H11      -5.2458   -1.6656   -1.0738   H         1 RES1   0.0000
    47 H12      -5.3480   -2.5736   -5.1092   H         1 RES1   0.0000
    48 H13      -4.8862   -2.0089   -6.7189   H         1 RES1   0.0000
    49 H14      -5.0113   -0.8710   -5.3649   H         1 RES1   0.0000
    50 H15      -3.2630   -3.9429   -6.5362   H         1 RES1   0.0000
    51 H16      -3.1879   -4.2714   -4.8150   H         1 RES1   0.0000
    52 H17      -0.9183   -3.8302   -6.6463   H         1 RES1   0.0000
    53 H18      -0.8217   -4.2239   -4.9417   H         1 RES1   0.0000
    54 H19       0.0391   -1.7814   -5.6781   H         1 RES1   0.0000
    55 H20      -2.1564   -2.5046   -7.9827   H         1 RES1   0.0000
    56 H21      -1.3520   -0.9444   -8.0593   H         1 RES1   0.0000
    57 H22      -3.1079   -1.0281   -7.9875   H         1 RES1   0.0000
    58 H23      -2.1028    0.3779   -4.7501   H         1 RES1   0.0000
    59 H24      -3.1498    0.5441   -6.1761   H         1 RES1   0.0000
    60 H25      -1.4029    0.6725   -6.3438   H         1 RES1   0.0000
    61 H26      -1.8691    5.0273    0.5968   H         1 RES1   0.0000
    62 H27      -1.0995    6.6070    0.5573   H         1 RES1   0.0000
    63 H28      -2.8158    6.4791    0.9376   H         1 RES1   0.0000
    64 H29      -1.1799    7.4708    4.1061   H         1 RES1   0.0000
    65 H30      -2.2758    7.9274    2.8162   H         1 RES1   0.0000
    66 H31      -0.5489    7.8577    2.5106   H         1 RES1   0.0000
    67 C28      -3.1622    6.1853   -2.6689   C.3       1 RES1   0.0000
    68 C29      -3.3436    4.6950   -2.8207   C.3       1 RES1   0.0000
    69 C30      -3.5146    4.2210   -4.2964   C.3       1 RES1   0.0000
    70 C31      -4.1846    2.8407   -4.1975   C.3       1 RES1   0.0000
    71 C32      -4.2184    2.5804   -2.6806   C.3       1 RES1   0.0000
    72 C33      -2.7841    2.4938   -2.3028   C.ar      1 RES1   0.0000
    73 N8       -2.0332    1.4743   -2.0069   N.ar      1 RES1   0.0000
    74 N9       -0.7960    1.7311   -1.5708   N.ar      1 RES1   0.0000
    75 C34      -0.3582    2.9813   -1.5178   C.ar      1 RES1   0.0000
    76 C35       0.9041    3.1879   -0.7857   C.ar      1 RES1   0.0000
    77 C36       1.6886    4.3333   -0.8879   C.ar      1 RES1   0.0000
    78 C37       2.7770    4.4647   -0.0361   C.ar      1 RES1   0.0000
    79 C38       3.0269    3.4799    0.9132   C.ar      1 RES1   0.0000
    80 C39       2.1847    2.3714    0.9441   C.ar      1 RES1   0.0000
    81 C40       2.1631    1.3703    2.0225   C.ar      1 RES1   0.0000
    82 N10       1.5535    0.2267    1.7258   N.ar      1 RES1   0.0000
    83 N11       1.1237   -0.5645    2.7131   N.ar      1 RES1   0.0000
    84 C41       1.3636   -0.1815    3.9342   C.ar      1 RES1   0.0000
    85 C42       2.2071    0.9390    4.2052   C.ar      1 RES1   0.0000
    86 N12       2.5901    1.7345    3.2415   N.ar      1 RES1   0.0000
    87 C43       2.4250    0.9728    5.6711   C.3       1 RES1   0.0000
    88 C44       3.0229    2.2283    6.2627   C.3       1 RES1   0.0000
    89 C45       3.2646   -0.3175    5.9180   C.3       1 RES1   0.0000
    90 C46       2.2816   -1.4816    5.6989   C.3       1 RES1   0.0000
    91 C47       0.9905   -0.7667    5.2506   C.3       1 RES1   0.0000
    92 C48       0.9956    0.5176    6.1271   C.3       1 RES1   0.0000
    93 C49       0.8414    0.2951    7.6226   C.3       1 RES1   0.0000
    94 C50      -0.1099    1.4851    5.7012   C.3       1 RES1   0.0000
    95 N13       1.1695    2.2204    0.0886   N.ar      1 RES1   0.0000
    96 N14      -1.0257    4.0635   -1.9611   N.ar      1 RES1   0.0000
    97 C51      -2.2533    3.8175   -2.3399   C.ar      1 RES1   0.0000
    98 C52      -4.5470    3.9852   -2.1044   C.3       1 RES1   0.0000
    99 C53      -4.4190    3.9918   -0.5804   C.3       1 RES1   0.0000
   100 C54      -5.9241    4.5237   -2.4549   C.3       1 RES1   0.0000
   101 H32      -2.3565    6.5318   -3.3105   H         1 RES1   0.0000
   102 H33      -2.9108    6.4526   -1.6468   H         1 RES1   0.0000
   103 H34      -4.0792    6.6899   -2.9578   H         1 RES1   0.0000
   104 H35      -2.5435    4.1656   -4.7909   H         1 RES1   0.0000
   105 H36      -4.1186    4.9381   -4.8443   H         1 RES1   0.0000
   106 H37      -3.6232    2.0703   -4.7174   H         1 RES1   0.0000
   107 H38      -5.1967    2.8378   -4.5929   H         1 RES1   0.0000
   108 H39      -4.8375    1.7484   -2.3564   H         1 RES1   0.0000
   109 H40       1.4515    5.0842   -1.6258   H         1 RES1   0.0000
   110 H41       3.4035    5.3436   -0.0888   H         1 RES1   0.0000
   111 H42       3.8339    3.5613    1.6210   H         1 RES1   0.0000
   112 H43       4.0551    2.3437    5.9434   H         1 RES1   0.0000
   113 H44       3.0037    2.1716    7.3478   H         1 RES1   0.0000
   114 H45       2.4766    3.1121    5.9453   H         1 RES1   0.0000
   115 H46       3.6706   -0.3044    6.9262   H         1 RES1   0.0000
   116 H47       4.1082   -0.3634    5.2284   H         1 RES1   0.0000
   117 H48       2.0945   -2.0389    6.6126   H         1 RES1   0.0000
   118 H49       2.6273   -2.1913    4.9489   H         1 RES1   0.0000
   119 H50       0.0877   -1.3703    5.2615   H         1 RES1   0.0000
   120 H51       1.5888   -0.3608    8.0503   H         1 RES1   0.0000
   121 H52      -0.1415   -0.1238    7.8237   H         1 RES1   0.0000
   122 H53       0.9044    1.2531    8.1317   H         1 RES1   0.0000
   123 H54      -0.0716    1.7162    4.6370   H         1 RES1   0.0000
   124 H55      -0.0227    2.4104    6.2665   H         1 RES1   0.0000
   125 H56      -1.0806    1.0426    5.9184   H         1 RES1   0.0000
   126 H57      -3.4850    3.5425   -0.2432   H         1 RES1   0.0000
   127 H58      -5.2332    3.4234   -0.1370   H         1 RES1   0.0000
   128 H59      -4.4620    5.0105   -0.2068   H         1 RES1   0.0000
   129 H60      -6.0927    4.6357   -3.5187   H         1 RES1   0.0000
   130 H61      -6.0560    5.4967   -1.9907   H         1 RES1   0.0000
   131 H62      -6.6819    3.8540   -2.0548   H         1 RES1   0.0000
   132 C55      -2.6098   -6.4244    2.9832   C.3       1 RES1   0.0000
   133 C56      -2.9178   -4.9507    3.1040   C.3       1 RES1   0.0000
   134 C57      -2.9812   -4.4230    4.5670   C.3       1 RES1   0.0000
   135 C58      -3.7292   -3.0835    4.4741   C.3       1 RES1   0.0000
   136 C59      -3.9817   -2.9242    2.9606   C.3       1 RES1   0.0000
   137 C60      -2.6237   -2.7434    2.3851   C.ar      1 RES1   0.0000
   138 N15      -2.0387   -1.7036    1.8553   N.ar      1 RES1   0.0000
   139 N16      -0.8484   -1.8976    1.2874   N.ar      1 RES1   0.0000
   140 C61      -0.2672   -3.0860    1.3450   C.ar      1 RES1   0.0000
   141 C62       1.0017   -3.2165    0.6080   C.ar      1 RES1   0.0000
   142 C63       1.8029   -4.3516    0.6996   C.ar      1 RES1   0.0000
   143 C64       2.9352   -4.4324   -0.0939   C.ar      1 RES1   0.0000
   144 C65       3.2289   -3.3911   -0.9635   C.ar      1 RES1   0.0000
   145 C66       2.3912   -2.2760   -0.9645   C.ar      1 RES1   0.0000
   146 C67       2.5720   -1.1383   -1.8813   C.ar      1 RES1   0.0000
   147 N17       1.8423   -0.0618   -1.6105   N.ar      1 RES1   0.0000
   148 N18       1.7516    0.9226   -2.5047   N.ar      1 RES1   0.0000
   149 C68       2.4346    0.7956   -3.6099   C.ar      1 RES1   0.0000
   150 C69       3.3198   -0.3046   -3.8129   C.ar      1 RES1   0.0000
   151 N19       3.3714   -1.2872   -2.9492   N.ar      1 RES1   0.0000
   152 C70       3.8574   -0.1868   -5.1976   C.3       1 RES1   0.0000
   153 C71       5.1202   -0.9497   -5.5155   C.3       1 RES1   0.0000
   154 C72       2.5745   -0.6392   -5.9700   C.3       1 RES1   0.0000
   155 C73       1.5812    0.5190   -5.7660   C.3       1 RES1   0.0000
   156 C74       2.3728    1.5298   -4.9016   C.3       1 RES1   0.0000
   157 C75       3.8203    1.3544   -5.4253   C.3       1 RES1   0.0000
   158 C76       4.8040    2.1091   -4.5386   C.3       1 RES1   0.0000
   159 C77       4.0192    1.7799   -6.8749   C.3       1 RES1   0.0000
   160 N20       1.3054   -2.1877   -0.1879   N.ar      1 RES1   0.0000
   161 N21      -0.7688   -4.1740    1.9609   N.ar      1 RES1   0.0000
   162 C78      -1.9674   -4.0083    2.4559   C.ar      1 RES1   0.0000
   163 C79      -4.2456   -4.3866    2.4888   C.3       1 RES1   0.0000
   164 C80      -4.2596   -4.4815    0.9590   C.3       1 RES1   0.0000
   165 C81      -5.5265   -5.0217    3.0025   C.3       1 RES1   0.0000
   166 H63      -1.7163   -6.6671    3.5516   H         1 RES1   0.0000
   167 H64      -2.4280   -6.7036    1.9491   H         1 RES1   0.0000
   168 H65      -3.4396   -7.0065    3.3721   H         1 RES1   0.0000
   169 H66      -1.9776   -4.3056    4.9762   H         1 RES1   0.0000
   170 H67      -3.5037   -5.1419    5.1916   H         1 RES1   0.0000
   171 H68      -3.1486   -2.2504    4.8705   H         1 RES1   0.0000
   172 H69      -4.6737   -3.1015    5.0104   H         1 RES1   0.0000
   173 H70      -4.7161   -2.1709    2.6870   H         1 RES1   0.0000
   174 H71       1.5323   -5.1516    1.3712   H         1 RES1   0.0000
   175 H72       3.5746   -5.3045   -0.0415   H         1 RES1   0.0000
   176 H73       4.0730   -3.4463   -1.6325   H         1 RES1   0.0000
   177 H74       5.0090   -1.9923   -5.2271   H         1 RES1   0.0000
   178 H75       5.9548   -0.5308   -4.9609   H         1 RES1   0.0000
   179 H76       5.3493   -0.8929   -6.5762   H         1 RES1   0.0000
   180 H77       2.2049   -1.5809   -5.5627   H         1 RES1   0.0000
   181 H78       2.8131   -0.8146   -7.0174   H         1 RES1   0.0000
   182 H79       0.6832    0.2098   -5.2327   H         1 RES1   0.0000
   183 H80       1.2680    0.9735   -6.7027   H         1 RES1   0.0000
   184 H81       1.9606    2.5342   -4.8818   H         1 RES1   0.0000
   185 H82       4.7055    1.8060   -3.4950   H         1 RES1   0.0000
   186 H83       4.6252    3.1818   -4.6077   H         1 RES1   0.0000
   187 H84       5.8234    1.9176   -4.8606   H         1 RES1   0.0000
   188 H85       3.4219    1.2140   -7.5793   H         1 RES1   0.0000
   189 H86       5.0603    1.6498   -7.1519   H         1 RES1   0.0000
   190 H87       3.7781    2.8318   -7.0072   H         1 RES1   0.0000
   191 H88      -3.3889   -4.0093    0.5026   H         1 RES1   0.0000
   192 H89      -5.1483   -3.9930    0.5643   H         1 RES1   0.0000
   193 H90      -4.2700   -5.5252    0.6565   H         1 RES1   0.0000
   194 H91      -5.5973   -5.0589    4.0825   H         1 RES1   0.0000
   195 H92      -5.5927   -6.0379    2.6253   H         1 RES1   0.0000
   196 H93      -6.3844   -4.4720    2.6226   H         1 RES1   0.0000
@<TRIPOS>BOND
     1     1     9    1
     2     1    17    1
     3     1    30    1
     4     1    74    1
     5     1    82    1
     6     1    95    1
     7     1   139    1
     8     1   147    1
     9     1   160    1
    10     2     3    1
    11     2    36    1
    12     2    37    1
    13     2    38    1
    14     3     4    1
    15     3    32    1
    16     3    33    1
    17     4     5    1
    18     4    39    1
    19     4    40    1
    20     5     6    1
    21     5    41    1
    22     5    42    1
    23     6     7    1
    24     6    33    1
    25     6    43    1
    26     7     8    1
    27     7    32    2
    28     8     9    2
    29     9    10    1
    30    10    11    1
    31    10    31    2
    32    11    12    1
    33    11    30    2
    34    12    13    2
    35    12    44    1
    36    13    14    1
    37    13    45    1
    38    14    15    2
    39    14    46    1
    40    15    16    1
    41    15    30    1
    42    16    17    1
    43    16    21    2
    44    17    18    2
    45    18    19    1
    46    19    20    2
    47    19    26    1
    48    20    21    1
    49    20    22    1
    50    22    23    1
    51    22    24    1
    52    22    27    1
    53    23    47    1
    54    23    48    1
    55    23    49    1
    56    24    25    1
    57    24    50    1
    58    24    51    1
    59    25    26    1
    60    25    52    1
    61    25    53    1
    62    26    27    1
    63    26    54    1
    64    27    28    1
    65    27    29    1
    66    28    55    1
    67    28    56    1
    68    28    57    1
    69    29    58    1
    70    29    59    1
    71    29    60    1
    72    31    32    1
    73    33    34    1
    74    33    35    1
    75    34    61    1
    76    34    62    1
    77    34    63    1
    78    35    64    1
    79    35    65    1
    80    35    66    1
    81    67    68    1
    82    67   101    1
    83    67   102    1
    84    67   103    1
    85    68    69    1
    86    68    97    1
    87    68    98    1
    88    69    70    1
    89    69   104    1
    90    69   105    1
    91    70    71    1
    92    70   106    1
    93    70   107    1
    94    71    72    1
    95    71    98    1
    96    71   108    1
    97    72    73    1
    98    72    97    2
    99    73    74    2
   100    74    75    1
   101    75    76    1
   102    75    96    2
   103    76    77    1
   104    76    95    2
   105    77    78    2
   106    77   109    1
   107    78    79    1
   108    78   110    1
   109    79    80    2
   110    79   111    1
   111    80    81    1
   112    80    95    1
   113    81    82    1
   114    81    86    2
   115    82    83    2
   116    83    84    1
   117    84    85    2
   118    84    91    1
   119    85    86    1
   120    85    87    1
   121    87    88    1
   122    87    89    1
   123    87    92    1
   124    88   112    1
   125    88   113    1
   126    88   114    1
   127    89    90    1
   128    89   115    1
   129    89   116    1
   130    90    91    1
   131    90   117    1
   132    90   118    1
   133    91    92    1
   134    91   119    1
   135    92    93    1
   136    92    94    1
   137    93   120    1
   138    93   121    1
   139    93   122    1
   140    94   123    1
   141    94   124    1
   142    94   125    1
   143    96    97    1
   144    98    99    1
   145    98   100    1
   146    99   126    1
   147    99   127    1
   148    99   128    1
   149   100   129    1
   150   100   130    1
   151   100   131    1
   152   132   133    1
   153   132   166    1
   154   132   167    1
   155   132   168    1
   156   133   134    1
   157   133   162    1
   158   133   163    1
   159   134   135    1
   160   134   169    1
   161   134   170    1
   162   135   136    1
   163   135   171    1
   164   135   172    1
   165   136   137    1
   166   136   163    1
   167   136   173    1
   168   137   138    1
   169   137   162    2
   170   138   139    2
   171   139   140    1
   172   140   141    1
   173   140   161    2
   174   141   142    1
   175   141   160    2
   176   142   143    2
   177   142   174    1
   178   143   144    1
   179   143   175    1
   180   144   145    2
   181   144   176    1
   182   145   146    1
   183   145   160    1
   184   146   147    1
   185   146   151    2
   186   147   148    2
   187   148   149    1
   188   149   150    2
   189   149   156    1
   190   150   151    1
   191   150   152    1
   192   152   153    1
   193   152   154    1
   194   152   157    1
   195   153   177    1
   196   153   178    1
   197   153   179    1
   198   154   155    1
   199   154   180    1
   200   154   181    1
   201   155   156    1
   202   155   182    1
   203   155   183    1
   204   156   157    1
   205   156   184    1
   206   157   158    1
   207   157   159    1
   208   158   185    1
   209   158   186    1
   210   158   187    1
   211   159   188    1
   212   159   189    1
   213   159   190    1
   214   161   162    1
   215   163   164    1
   216   163   165    1
   217   164   191    1
   218   164   192    1
   219   164   193    1
   220   165   194    1
   221   165   195    1
   222   165   196    1
@<TRIPOS>SUBSTRUCTURE
     1 RES1      196 GROUP             0 ****  ****    0  
