@<TRIPOS>MOLECULE
ICIGOT_geomtry_0_nunpairedes_0_charge_1 Charge: 1 Unpaired_Electrons: 4 XTB_Unpaired_Electrons: 0 XTB_Charge: 1
    87    97     1     0     0
SMALL
NoCharges
****
Generated from Architector

@<TRIPOS>ATOM
     1 Ho1      -0.3592    0.0829   -0.1102   Ho        1 RES1   0.0000
     2 C1       -0.4245    1.5296   -5.5329   C.3       1 RES1   0.0000
     3 C2        1.0785    1.3756   -5.2441   C.3       1 RES1   0.0000
     4 C3        1.5937    2.6688   -4.5973   C.3       1 RES1   0.0000
     5 C4        1.8640    1.0419   -6.5192   C.3       1 RES1   0.0000
     6 C5        1.6451   -0.3973   -6.9778   C.3       1 RES1   0.0000
     7 C6        2.1224   -1.4314   -5.9478   C.3       1 RES1   0.0000
     8 C7        1.5931   -2.8230   -6.3205   C.3       1 RES1   0.0000
     9 C8        3.6620   -1.4883   -5.9021   C.3       1 RES1   0.0000
    10 C9        1.6785   -1.0393   -4.5722   C.ar      1 RES1   0.0000
    11 N1        1.8162   -1.9262   -3.5967   N.ar      1 RES1   0.0000
    12 C10       1.4475   -1.5593   -2.3802   C.ar      1 RES1   0.0000
    13 C11       1.7017   -2.4071   -1.2046   C.ar      1 RES1   0.0000
    14 C12       2.2261   -3.6970   -1.2373   C.ar      1 RES1   0.0000
    15 C13       2.5042   -4.3109   -0.0249   C.ar      1 RES1   0.0000
    16 C14       2.3438   -3.6062    1.1624   C.ar      1 RES1   0.0000
    17 C15       1.8631   -2.2994    1.0993   C.ar      1 RES1   0.0000
    18 C16       1.8607   -1.3136    2.2006   C.ar      1 RES1   0.0000
    19 C17       2.3322   -1.5194    3.4958   C.ar      1 RES1   0.0000
    20 C18       2.4511   -0.4259    4.3420   C.ar      1 RES1   0.0000
    21 C19       2.1056    0.8386    3.8867   C.ar      1 RES1   0.0000
    22 C20       1.6000    0.9455    2.5945   C.ar      1 RES1   0.0000
    23 C21       1.2083    2.2136    1.9573   C.ar      1 RES1   0.0000
    24 N2        0.6035    2.0793    0.7721   N.ar      1 RES1   0.0000
    25 N3        0.3222    3.1559    0.0770   N.ar      1 RES1   0.0000
    26 C22       0.6237    4.3557    0.5486   C.ar      1 RES1   0.0000
    27 C23       1.1859    4.4796    1.8450   C.ar      1 RES1   0.0000
    28 N4        1.4861    3.3795    2.5215   N.ar      1 RES1   0.0000
    29 C24       1.5343    5.7963    2.4691   C.3       1 RES1   0.0000
    30 C25       1.0871    5.8421    3.9368   C.3       1 RES1   0.0000
    31 C26       3.0722    5.8948    2.4298   C.3       1 RES1   0.0000
    32 C27       0.8934    6.9533    1.6885   C.3       1 RES1   0.0000
    33 C28       1.0099    6.7800    0.1776   C.3       1 RES1   0.0000
    34 C29       0.2844    5.5249   -0.3279   C.3       1 RES1   0.0000
    35 C30       0.6912    5.2078   -1.7739   C.3       1 RES1   0.0000
    36 C31      -1.2435    5.6979   -0.2668   C.3       1 RES1   0.0000
    37 N5        1.4788   -0.1030    1.7853   N.ar      1 RES1   0.0000
    38 N6        1.4923   -1.7566   -0.0594   N.ar      1 RES1   0.0000
    39 N7        0.9239   -0.3642   -2.0810   N.ar      1 RES1   0.0000
    40 N8        0.8335    0.5390   -3.0185   N.ar      1 RES1   0.0000
    41 C32       1.2146    0.2605   -4.2529   C.ar      1 RES1   0.0000
    42 H1       -0.5940    2.3524   -6.2227   H         1 RES1   0.0000
    43 H2       -0.9609    1.7294   -4.6093   H         1 RES1   0.0000
    44 H3       -0.8332    0.6233   -5.9699   H         1 RES1   0.0000
    45 H4        1.4941    3.5103   -5.2778   H         1 RES1   0.0000
    46 H5        2.6412    2.5719   -4.3193   H         1 RES1   0.0000
    47 H6        1.0234    2.8767   -3.6971   H         1 RES1   0.0000
    48 H7        2.9283    1.2001   -6.3369   H         1 RES1   0.0000
    49 H8        1.5669    1.7293   -7.3132   H         1 RES1   0.0000
    50 H9        2.1783   -0.5657   -7.9147   H         1 RES1   0.0000
    51 H10       0.5859   -0.5551   -7.1796   H         1 RES1   0.0000
    52 H11       1.9436   -3.0873   -7.3160   H         1 RES1   0.0000
    53 H12       0.5056   -2.8421   -6.3240   H         1 RES1   0.0000
    54 H13       1.9421   -3.5752   -5.6189   H         1 RES1   0.0000
    55 H14       4.0468   -1.7439   -6.8858   H         1 RES1   0.0000
    56 H15       3.9920   -2.2407   -5.1912   H         1 RES1   0.0000
    57 H16       4.0850   -0.5337   -5.6021   H         1 RES1   0.0000
    58 H17       2.4120   -4.1935   -2.1757   H         1 RES1   0.0000
    59 H18       2.8816   -5.3247   -0.0057   H         1 RES1   0.0000
    60 H19       2.6029   -4.0468    2.1113   H         1 RES1   0.0000
    61 H20       2.6148   -2.4989    3.8470   H         1 RES1   0.0000
    62 H21       2.8291   -0.5648    5.3462   H         1 RES1   0.0000
    63 H22       2.2204    1.7229    4.4931   H         1 RES1   0.0000
    64 H23       1.5605    5.0509    4.5101   H         1 RES1   0.0000
    65 H24       0.0095    5.7261    4.0241   H         1 RES1   0.0000
    66 H25       1.3652    6.7999    4.3711   H         1 RES1   0.0000
    67 H26       3.5153    5.0870    3.0051   H         1 RES1   0.0000
    68 H27       3.3888    6.8422    2.8574   H         1 RES1   0.0000
    69 H28       3.4494    5.8321    1.4132   H         1 RES1   0.0000
    70 H29       1.3763    7.8863    1.9843   H         1 RES1   0.0000
    71 H30      -0.1582    7.0387    1.9633   H         1 RES1   0.0000
    72 H31       2.0645    6.7195   -0.0951   H         1 RES1   0.0000
    73 H32       0.5999    7.6573   -0.3249   H         1 RES1   0.0000
    74 H33       1.7582    5.0029   -1.8421   H         1 RES1   0.0000
    75 H34       0.4603    6.0437   -2.4299   H         1 RES1   0.0000
    76 H35       0.1502    4.3340   -2.1261   H         1 RES1   0.0000
    77 H36      -1.5784    5.8801    0.7502   H         1 RES1   0.0000
    78 H37      -1.7423    4.8035   -0.6308   H         1 RES1   0.0000
    79 H38      -1.5516    6.5365   -0.8853   H         1 RES1   0.0000
    80 N9       -1.7997   -1.6604    0.8120   N.3       1 RES1   0.0000
    81 O1       -2.7133   -2.3084    1.2018   O.2       1 RES1   0.0000
    82 O2       -1.0943   -0.9844    1.5832   O.co2     1 RES1   0.0000
    83 O3       -1.4713   -1.6505   -0.3894   O.co2     1 RES1   0.0000
    84 N10      -2.2534    1.5223   -0.8812   N.3       1 RES1   0.0000
    85 O4       -2.9990    2.3814   -1.2266   O.2       1 RES1   0.0000
    86 O5       -2.0818    1.2459    0.3242   O.co2     1 RES1   0.0000
    87 O6       -1.6063    0.8447   -1.6988   O.co2     1 RES1   0.0000
@<TRIPOS>BOND
     1     1    24    1
     2     1    37    1
     3     1    38    1
     4     1    39    1
     5     1    82    1
     6     1    83    1
     7     1    86    1
     8     1    87    1
     9     2     3    1
    10     2    42    1
    11     2    43    1
    12     2    44    1
    13     3     4    1
    14     3     5    1
    15     3    41    1
    16     4    45    1
    17     4    46    1
    18     4    47    1
    19     5     6    1
    20     5    48    1
    21     5    49    1
    22     6     7    1
    23     6    50    1
    24     6    51    1
    25     7     8    1
    26     7     9    1
    27     7    10    1
    28     8    52    1
    29     8    53    1
    30     8    54    1
    31     9    55    1
    32     9    56    1
    33     9    57    1
    34    10    11    1
    35    10    41    2
    36    11    12    2
    37    12    13    1
    38    12    39    1
    39    13    14    1
    40    13    38    2
    41    14    15    2
    42    14    58    1
    43    15    16    1
    44    15    59    1
    45    16    17    2
    46    16    60    1
    47    17    18    1
    48    17    38    1
    49    18    19    1
    50    18    37    2
    51    19    20    2
    52    19    61    1
    53    20    21    1
    54    20    62    1
    55    21    22    2
    56    21    63    1
    57    22    23    1
    58    22    37    1
    59    23    24    1
    60    23    28    2
    61    24    25    2
    62    25    26    1
    63    26    27    2
    64    26    34    1
    65    27    28    1
    66    27    29    1
    67    29    30    1
    68    29    31    1
    69    29    32    1
    70    30    64    1
    71    30    65    1
    72    30    66    1
    73    31    67    1
    74    31    68    1
    75    31    69    1
    76    32    33    1
    77    32    70    1
    78    32    71    1
    79    33    34    1
    80    33    72    1
    81    33    73    1
    82    34    35    1
    83    34    36    1
    84    35    74    1
    85    35    75    1
    86    35    76    1
    87    36    77    1
    88    36    78    1
    89    36    79    1
    90    39    40    2
    91    40    41    1
    92    80    81    2
    93    80    82    1
    94    80    83    1
    95    84    85    2
    96    84    86    1
    97    84    87    1
@<TRIPOS>SUBSTRUCTURE
     1 RES1       87 GROUP             0 ****  ****    0  
