@<TRIPOS>MOLECULE
ICIGOT_geomtry_0_nunpairedes_0_charge_1 Charge: 1 Unpaired_Electrons: 4 XTB_Unpaired_Electrons: 0 XTB_Charge: 1
   103   111     1     0     0
SMALL
NoCharges
****
Generated from Architector

@<TRIPOS>ATOM
     1 Ho1      -0.3573    0.1007   -0.1074   Ho        1 RES1   0.0000
     2 C1        4.0262    6.4165   -2.8662   C.3       1 RES1   0.0000
     3 C2        2.5433    6.3858   -3.2144   C.3       1 RES1   0.0000
     4 C3        1.6417    6.5114   -1.9882   C.3       1 RES1   0.0000
     5 C4        1.7551    5.3023   -1.0671   C.3       1 RES1   0.0000
     6 C5        0.7881    5.4303    0.1212   C.3       1 RES1   0.0000
     7 C6        0.9060    4.2269    0.9846   C.ar      1 RES1   0.0000
     8 N1        0.5467    3.0945    0.3918   N.ar      1 RES1   0.0000
     9 N2        0.6720    1.9431    1.0057   N.ar      1 RES1   0.0000
    10 C7        1.1507    1.9319    2.2581   C.ar      1 RES1   0.0000
    11 C8        1.3021    0.5962    2.8598   C.ar      1 RES1   0.0000
    12 C9        1.4745    0.3525    4.2194   C.ar      1 RES1   0.0000
    13 C10       1.6172   -0.9678    4.6168   C.ar      1 RES1   0.0000
    14 C11       1.6295   -1.9842    3.6742   C.ar      1 RES1   0.0000
    15 C12       1.4771   -1.6443    2.3325   C.ar      1 RES1   0.0000
    16 C13       1.6182   -2.5482    1.1715   C.ar      1 RES1   0.0000
    17 C14       2.1753   -3.8264    1.2084   C.ar      1 RES1   0.0000
    18 C15       2.4532   -4.4599    0.0053   C.ar      1 RES1   0.0000
    19 C16       2.2238   -3.8032   -1.1913   C.ar      1 RES1   0.0000
    20 C17       1.6265   -2.5458   -1.1410   C.ar      1 RES1   0.0000
    21 C18       1.3887   -1.7070   -2.3254   C.ar      1 RES1   0.0000
    22 N3        0.9503   -0.4545   -2.1112   N.ar      1 RES1   0.0000
    23 N4        0.5706    0.2295   -3.1655   N.ar      1 RES1   0.0000
    24 C19       0.7117   -0.2223   -4.3994   C.ar      1 RES1   0.0000
    25 C20       0.0815    0.6156   -5.4592   C.3       1 RES1   0.0000
    26 C21      -0.9084   -0.1308   -6.3638   C.3       1 RES1   0.0000
    27 C22      -2.0823   -0.7642   -5.6191   C.3       1 RES1   0.0000
    28 C23      -2.9593    0.2533   -4.8881   C.3       1 RES1   0.0000
    29 C24      -4.2046   -0.4045   -4.3046   C.3       1 RES1   0.0000
    30 C25       1.4995   -1.3994   -4.5866   C.ar      1 RES1   0.0000
    31 C26       2.1218   -1.8726   -5.8507   C.3       1 RES1   0.0000
    32 C27       3.0121   -0.8465   -6.5635   C.3       1 RES1   0.0000
    33 C28       4.0911   -0.1853   -5.7007   C.3       1 RES1   0.0000
    34 C29       5.3483   -1.0353   -5.4947   C.3       1 RES1   0.0000
    35 C30       5.1915   -2.1301   -4.4457   C.3       1 RES1   0.0000
    36 N5        1.7349   -2.1483   -3.5223   N.ar      1 RES1   0.0000
    37 N6        1.3027   -1.9609    0.0134   N.ar      1 RES1   0.0000
    38 N7        1.2986   -0.3762    1.9557   N.ar      1 RES1   0.0000
    39 N8        1.5086    3.0147    2.9231   N.ar      1 RES1   0.0000
    40 C31       1.4044    4.1902    2.3175   C.ar      1 RES1   0.0000
    41 C32       1.8587    5.3513    3.1259   C.3       1 RES1   0.0000
    42 C33       3.3880    5.3106    3.2999   C.3       1 RES1   0.0000
    43 C34       4.1375    5.3874    1.9724   C.3       1 RES1   0.0000
    44 C35       5.6509    5.4376    2.1817   C.3       1 RES1   0.0000
    45 C36       6.4028    5.4762    0.8590   C.3       1 RES1   0.0000
    46 H1        4.6229    6.4429   -3.7729   H         1 RES1   0.0000
    47 H2        4.2610    7.3021   -2.2814   H         1 RES1   0.0000
    48 H3        4.3195    5.5387   -2.2965   H         1 RES1   0.0000
    49 H4        2.3217    7.2094   -3.8950   H         1 RES1   0.0000
    50 H5        2.3062    5.4542   -3.7322   H         1 RES1   0.0000
    51 H6        1.9017    7.4167   -1.4362   H         1 RES1   0.0000
    52 H7        0.6046    6.6122   -2.3132   H         1 RES1   0.0000
    53 H8        1.5154    4.3911   -1.6189   H         1 RES1   0.0000
    54 H9        2.7758    5.2161   -0.6925   H         1 RES1   0.0000
    55 H10       1.0024    6.3458    0.6700   H         1 RES1   0.0000
    56 H11      -0.2270    5.4870   -0.2792   H         1 RES1   0.0000
    57 H12       1.4982    1.1724    4.9185   H         1 RES1   0.0000
    58 H13       1.7327   -1.2018    5.6618   H         1 RES1   0.0000
    59 H14       1.7580   -3.0061    3.9881   H         1 RES1   0.0000
    60 H15       2.4112   -4.3075    2.1430   H         1 RES1   0.0000
    61 H16       2.8723   -5.4532    0.0034   H         1 RES1   0.0000
    62 H17       2.5029   -4.2350   -2.1380   H         1 RES1   0.0000
    63 H18      -0.4238    1.4411   -4.9558   H         1 RES1   0.0000
    64 H19       0.8659    1.0317   -6.0941   H         1 RES1   0.0000
    65 H20      -1.3049    0.5926   -7.0777   H         1 RES1   0.0000
    66 H21      -0.3872   -0.9017   -6.9343   H         1 RES1   0.0000
    67 H22      -2.6991   -1.2808   -6.3590   H         1 RES1   0.0000
    68 H23      -1.7201   -1.5125   -4.9079   H         1 RES1   0.0000
    69 H24      -2.3952    0.7192   -4.0766   H         1 RES1   0.0000
    70 H25      -3.2615    1.0339   -5.5927   H         1 RES1   0.0000
    71 H26      -3.9317   -1.1735   -3.5860   H         1 RES1   0.0000
    72 H27      -4.8174    0.3338   -3.7960   H         1 RES1   0.0000
    73 H28      -4.8022   -0.8635   -5.0884   H         1 RES1   0.0000
    74 H29       2.6849   -2.7740   -5.6103   H         1 RES1   0.0000
    75 H30       1.3296   -2.1553   -6.5459   H         1 RES1   0.0000
    76 H31       3.4970   -1.3608   -7.3952   H         1 RES1   0.0000
    77 H32       2.3786   -0.0670   -6.9889   H         1 RES1   0.0000
    78 H33       4.3896    0.7323   -6.2161   H         1 RES1   0.0000
    79 H34       3.6805    0.1031   -4.7267   H         1 RES1   0.0000
    80 H35       5.6417   -1.4764   -6.4509   H         1 RES1   0.0000
    81 H36       6.1558   -0.3675   -5.1843   H         1 RES1   0.0000
    82 H37       4.5440   -2.9277   -4.7937   H         1 RES1   0.0000
    83 H38       6.1598   -2.5648   -4.2140   H         1 RES1   0.0000
    84 H39       4.7681   -1.7201   -3.5309   H         1 RES1   0.0000
    85 H40       1.5449    6.2967    2.6913   H         1 RES1   0.0000
    86 H41       1.4154    5.2467    4.1173   H         1 RES1   0.0000
    87 H42       3.6891    6.1475    3.9302   H         1 RES1   0.0000
    88 H43       3.6507    4.3846    3.8140   H         1 RES1   0.0000
    89 H44       3.8908    4.5094    1.3667   H         1 RES1   0.0000
    90 H45       3.8241    6.2766    1.4186   H         1 RES1   0.0000
    91 H46       5.8984    6.3222    2.7716   H         1 RES1   0.0000
    92 H47       5.9601    4.5610    2.7555   H         1 RES1   0.0000
    93 H48       6.1212    6.3532    0.2849   H         1 RES1   0.0000
    94 H49       7.4720    5.5124    1.0343   H         1 RES1   0.0000
    95 H50       6.1834    4.5922    0.2669   H         1 RES1   0.0000
    96 N9       -1.9806   -1.6145    0.6014   N.3       1 RES1   0.0000
    97 O1       -2.9209   -2.2644    0.9153   O.2       1 RES1   0.0000
    98 O2       -1.6411   -1.4819   -0.5945   O.co2     1 RES1   0.0000
    99 O3       -1.2513   -1.0607    1.4446   O.co2     1 RES1   0.0000
   100 N10      -2.1476    1.7496   -0.7409   N.3       1 RES1   0.0000
   101 O4       -2.8543    2.6672   -1.0073   O.2       1 RES1   0.0000
   102 O5       -1.4833    1.1547   -1.6086   O.co2     1 RES1   0.0000
   103 O6       -2.0209    1.3277    0.4292   O.co2     1 RES1   0.0000
@<TRIPOS>BOND
     1     1     9    1
     2     1    22    1
     3     1    37    1
     4     1    38    1
     5     1    98    1
     6     1    99    1
     7     1   102    1
     8     1   103    1
     9     2     3    1
    10     2    46    1
    11     2    47    1
    12     2    48    1
    13     3     4    1
    14     3    49    1
    15     3    50    1
    16     4     5    1
    17     4    51    1
    18     4    52    1
    19     5     6    1
    20     5    53    1
    21     5    54    1
    22     6     7    1
    23     6    55    1
    24     6    56    1
    25     7     8    1
    26     7    40    2
    27     8     9    2
    28     9    10    1
    29    10    11    1
    30    10    39    2
    31    11    12    1
    32    11    38    2
    33    12    13    2
    34    12    57    1
    35    13    14    1
    36    13    58    1
    37    14    15    2
    38    14    59    1
    39    15    16    1
    40    15    38    1
    41    16    17    1
    42    16    37    2
    43    17    18    2
    44    17    60    1
    45    18    19    1
    46    18    61    1
    47    19    20    2
    48    19    62    1
    49    20    21    1
    50    20    37    1
    51    21    22    1
    52    21    36    2
    53    22    23    2
    54    23    24    1
    55    24    25    1
    56    24    30    2
    57    25    26    1
    58    25    63    1
    59    25    64    1
    60    26    27    1
    61    26    65    1
    62    26    66    1
    63    27    28    1
    64    27    67    1
    65    27    68    1
    66    28    29    1
    67    28    69    1
    68    28    70    1
    69    29    71    1
    70    29    72    1
    71    29    73    1
    72    30    31    1
    73    30    36    1
    74    31    32    1
    75    31    74    1
    76    31    75    1
    77    32    33    1
    78    32    76    1
    79    32    77    1
    80    33    34    1
    81    33    78    1
    82    33    79    1
    83    34    35    1
    84    34    80    1
    85    34    81    1
    86    35    82    1
    87    35    83    1
    88    35    84    1
    89    39    40    1
    90    40    41    1
    91    41    42    1
    92    41    85    1
    93    41    86    1
    94    42    43    1
    95    42    87    1
    96    42    88    1
    97    43    44    1
    98    43    89    1
    99    43    90    1
   100    44    45    1
   101    44    91    1
   102    44    92    1
   103    45    93    1
   104    45    94    1
   105    45    95    1
   106    96    97    2
   107    96    98    1
   108    96    99    1
   109   100   101    2
   110   100   102    1
   111   100   103    1
@<TRIPOS>SUBSTRUCTURE
     1 RES1      103 GROUP             0 ****  ****    0  
