@<TRIPOS>MOLECULE
ICIGOT_geomtry_0_nunpairedes_0_charge_1 Charge: 1 Unpaired_Electrons: 2 XTB_Unpaired_Electrons: 0 XTB_Charge: 1
    87    97     1     0     0
SMALL
NoCharges
****
Generated from Architector

@<TRIPOS>ATOM
     1 Pr1      -0.3130    0.1176   -0.1046   Pr        1 RES1   0.0000
     2 C1       -0.6222    2.0196   -5.1775   C.3       1 RES1   0.0000
     3 C2        0.8478    1.5852   -5.1263   C.3       1 RES1   0.0000
     4 C3        1.6624    2.6607   -4.3833   C.3       1 RES1   0.0000
     5 C4        1.4033    1.3384   -6.5346   C.3       1 RES1   0.0000
     6 C5        2.6781    0.4978   -6.5419   C.3       1 RES1   0.0000
     7 C6        2.4583   -0.9089   -5.9677   C.3       1 RES1   0.0000
     8 C7        3.7959   -1.6394   -5.8040   C.3       1 RES1   0.0000
     9 C8        1.5487   -1.7560   -6.8712   C.3       1 RES1   0.0000
    10 C9        1.8115   -0.7599   -4.6261   C.ar      1 RES1   0.0000
    11 N1        2.0872   -1.6649   -3.7051   N.ar      1 RES1   0.0000
    12 C10       1.5685   -1.4870   -2.4986   C.ar      1 RES1   0.0000
    13 C11       2.0645   -2.2869   -1.3701   C.ar      1 RES1   0.0000
    14 C12       2.9050   -3.3855   -1.5186   C.ar      1 RES1   0.0000
    15 C13       3.3948   -3.9806   -0.3692   C.ar      1 RES1   0.0000
    16 C14       3.0591   -3.4654    0.8751   C.ar      1 RES1   0.0000
    17 C15       2.2209   -2.3501    0.9318   C.ar      1 RES1   0.0000
    18 C16       1.9473   -1.5448    2.1427   C.ar      1 RES1   0.0000
    19 C17       2.3207   -1.8687    3.4468   C.ar      1 RES1   0.0000
    20 C18       2.2565   -0.8815    4.4179   C.ar      1 RES1   0.0000
    21 C19       1.8943    0.4103    4.0724   C.ar      1 RES1   0.0000
    22 C20       1.5114    0.6455    2.7545   C.ar      1 RES1   0.0000
    23 C21       1.4308    1.9946    2.1585   C.ar      1 RES1   0.0000
    24 N2        1.0270    2.0608    0.8862   N.ar      1 RES1   0.0000
    25 N3        1.2204    3.1804    0.2279   N.ar      1 RES1   0.0000
    26 C22       1.8753    4.1859    0.7897   C.ar      1 RES1   0.0000
    27 C23       2.2925    4.0880    2.1438   C.ar      1 RES1   0.0000
    28 N4        2.0099    2.9862    2.8194   N.ar      1 RES1   0.0000
    29 C24       3.1927    5.0800    2.8121   C.3       1 RES1   0.0000
    30 C25       2.7144    5.3750    4.2366   C.3       1 RES1   0.0000
    31 C26       4.5545    4.3615    2.9053   C.3       1 RES1   0.0000
    32 C27       3.3023    6.3685    1.9906   C.3       1 RES1   0.0000
    33 C28       3.4107    6.0998    0.4916   C.3       1 RES1   0.0000
    34 C29       2.1748    5.3798   -0.0697   C.3       1 RES1   0.0000
    35 C30       0.9257    6.2752   -0.0493   C.3       1 RES1   0.0000
    36 C31       2.4291    4.9002   -1.5033   C.3       1 RES1   0.0000
    37 N5        1.4905   -0.3239    1.8421   N.ar      1 RES1   0.0000
    38 N6        1.7436   -1.7902   -0.1803   N.ar      1 RES1   0.0000
    39 N7        0.6963   -0.5249   -2.1875   N.ar      1 RES1   0.0000
    40 N8        0.4217    0.3961   -3.0865   N.ar      1 RES1   0.0000
    41 C32       0.9958    0.3538   -4.2790   C.ar      1 RES1   0.0000
    42 H1       -0.7117    2.9711   -5.6930   H         1 RES1   0.0000
    43 H2       -1.0183    2.1305   -4.1708   H         1 RES1   0.0000
    44 H3       -1.2249    1.2851   -5.7063   H         1 RES1   0.0000
    45 H4        1.6346    3.6000   -4.9269   H         1 RES1   0.0000
    46 H5        2.7013    2.3561   -4.2708   H         1 RES1   0.0000
    47 H6        1.2303    2.8093   -3.3957   H         1 RES1   0.0000
    48 H7        1.6071    2.3006   -7.0024   H         1 RES1   0.0000
    49 H8        0.6430    0.8399   -7.1357   H         1 RES1   0.0000
    50 H9        3.4618    0.9927   -5.9642   H         1 RES1   0.0000
    51 H10       3.0365    0.4056   -7.5662   H         1 RES1   0.0000
    52 H11       4.3149   -1.6728   -6.7567   H         1 RES1   0.0000
    53 H12       3.6279   -2.6551   -5.4603   H         1 RES1   0.0000
    54 H13       4.4291   -1.1320   -5.0801   H         1 RES1   0.0000
    55 H14       1.9992   -1.8335   -7.8566   H         1 RES1   0.0000
    56 H15       0.5596   -1.3197   -6.9758   H         1 RES1   0.0000
    57 H16       1.4461   -2.7557   -6.4563   H         1 RES1   0.0000
    58 H17       3.1643   -3.7323   -2.5024   H         1 RES1   0.0000
    59 H18       4.0442   -4.8376   -0.4392   H         1 RES1   0.0000
    60 H19       3.4729   -3.9052    1.7657   H         1 RES1   0.0000
    61 H20       2.6856   -2.8520    3.6955   H         1 RES1   0.0000
    62 H21       2.5504   -1.1067    5.4304   H         1 RES1   0.0000
    63 H22       1.9397    1.2180    4.7806   H         1 RES1   0.0000
    64 H23       2.6433    4.4507    4.8017   H         1 RES1   0.0000
    65 H24       1.7413    5.8594    4.2329   H         1 RES1   0.0000
    66 H25       3.4257    6.0316    4.7298   H         1 RES1   0.0000
    67 H26       4.4487    3.4722    3.5227   H         1 RES1   0.0000
    68 H27       5.2815    5.0255    3.3638   H         1 RES1   0.0000
    69 H28       4.9197    4.0664    1.9234   H         1 RES1   0.0000
    70 H29       4.1842    6.9160    2.3243   H         1 RES1   0.0000
    71 H30       2.4354    6.9998    2.1876   H         1 RES1   0.0000
    72 H31       4.2979    5.4938    0.2948   H         1 RES1   0.0000
    73 H32       3.5436    7.0456   -0.0326   H         1 RES1   0.0000
    74 H33       0.6744    6.5837    0.9629   H         1 RES1   0.0000
    75 H34       0.0823    5.7248   -0.4605   H         1 RES1   0.0000
    76 H35       1.0951    7.1633   -0.6510   H         1 RES1   0.0000
    77 H36       3.2257    4.1583   -1.5258   H         1 RES1   0.0000
    78 H37       2.7112    5.7281   -2.1453   H         1 RES1   0.0000
    79 H38       1.5231    4.4468   -1.8913   H         1 RES1   0.0000
    80 N9       -1.9198   -1.4879    0.6618   N.3       1 RES1   0.0000
    81 O1       -3.0453   -1.8562    0.6557   O.2       1 RES1   0.0000
    82 O2       -1.0719   -1.9348   -0.1238   O.co2     1 RES1   0.0000
    83 O3       -1.5089   -0.6416    1.4835   O.co2     1 RES1   0.0000
    84 N10      -2.2269    1.5920   -0.9403   N.3       1 RES1   0.0000
    85 O4       -2.9234    2.3714   -1.5083   O.2       1 RES1   0.0000
    86 O5       -2.0711    0.4245   -1.3399   O.co2     1 RES1   0.0000
    87 O6       -1.5937    1.9093    0.0840   O.co2     1 RES1   0.0000
@<TRIPOS>BOND
     1     1    24    1
     2     1    37    1
     3     1    38    1
     4     1    39    1
     5     1    82    1
     6     1    83    1
     7     1    86    1
     8     1    87    1
     9     2     3    1
    10     2    42    1
    11     2    43    1
    12     2    44    1
    13     3     4    1
    14     3     5    1
    15     3    41    1
    16     4    45    1
    17     4    46    1
    18     4    47    1
    19     5     6    1
    20     5    48    1
    21     5    49    1
    22     6     7    1
    23     6    50    1
    24     6    51    1
    25     7     8    1
    26     7     9    1
    27     7    10    1
    28     8    52    1
    29     8    53    1
    30     8    54    1
    31     9    55    1
    32     9    56    1
    33     9    57    1
    34    10    11    1
    35    10    41    2
    36    11    12    2
    37    12    13    1
    38    12    39    1
    39    13    14    1
    40    13    38    2
    41    14    15    2
    42    14    58    1
    43    15    16    1
    44    15    59    1
    45    16    17    2
    46    16    60    1
    47    17    18    1
    48    17    38    1
    49    18    19    1
    50    18    37    2
    51    19    20    2
    52    19    61    1
    53    20    21    1
    54    20    62    1
    55    21    22    2
    56    21    63    1
    57    22    23    1
    58    22    37    1
    59    23    24    1
    60    23    28    2
    61    24    25    2
    62    25    26    1
    63    26    27    2
    64    26    34    1
    65    27    28    1
    66    27    29    1
    67    29    30    1
    68    29    31    1
    69    29    32    1
    70    30    64    1
    71    30    65    1
    72    30    66    1
    73    31    67    1
    74    31    68    1
    75    31    69    1
    76    32    33    1
    77    32    70    1
    78    32    71    1
    79    33    34    1
    80    33    72    1
    81    33    73    1
    82    34    35    1
    83    34    36    1
    84    35    74    1
    85    35    75    1
    86    35    76    1
    87    36    77    1
    88    36    78    1
    89    36    79    1
    90    39    40    2
    91    40    41    1
    92    80    81    2
    93    80    82    1
    94    80    83    1
    95    84    85    2
    96    84    86    1
    97    84    87    1
@<TRIPOS>SUBSTRUCTURE
     1 RES1       87 GROUP             0 ****  ****    0  
