@<TRIPOS>MOLECULE
ICIGOT_geomtry_0_nunpairedes_0_charge_1 Charge: 1 Unpaired_Electrons: 2 XTB_Unpaired_Electrons: 0 XTB_Charge: 1
   103   111     1     0     0
SMALL
NoCharges
****
Generated from Architector

@<TRIPOS>ATOM
     1 Pr1      -0.4195    0.0480   -0.0444   Pr        1 RES1   0.0000
     2 C1       -1.7547   -6.3086   -0.8652   C.3       1 RES1   0.0000
     3 C2       -1.9943   -4.9263   -1.4626   C.3       1 RES1   0.0000
     4 C3       -3.1839   -4.9420   -2.4183   C.3       1 RES1   0.0000
     5 C4       -3.5940   -3.5609   -2.9310   C.3       1 RES1   0.0000
     6 C5       -2.7018   -3.0252   -4.0641   C.3       1 RES1   0.0000
     7 C6       -1.3509   -2.6188   -3.5976   C.ar      1 RES1   0.0000
     8 N1       -1.2748   -1.6920   -2.6621   N.ar      1 RES1   0.0000
     9 N2       -0.1501   -1.4173   -2.0442   N.ar      1 RES1   0.0000
    10 C7        0.9134   -2.1763   -2.3493   C.ar      1 RES1   0.0000
    11 C8        2.0286   -2.2374   -1.4034   C.ar      1 RES1   0.0000
    12 C9        3.2197   -2.8921   -1.7160   C.ar      1 RES1   0.0000
    13 C10       4.1592   -3.0752   -0.7152   C.ar      1 RES1   0.0000
    14 C11       3.8799   -2.5892    0.5533   C.ar      1 RES1   0.0000
    15 C12       2.6883   -1.8950    0.7607   C.ar      1 RES1   0.0000
    16 C13       2.3407   -1.2756    2.0497   C.ar      1 RES1   0.0000
    17 C14       2.8399   -1.7204    3.2736   C.ar      1 RES1   0.0000
    18 C15       2.4168   -1.0879    4.4312   C.ar      1 RES1   0.0000
    19 C16       1.5631   -0.0029    4.3270   C.ar      1 RES1   0.0000
    20 C17       1.1738    0.4186    3.0560   C.ar      1 RES1   0.0000
    21 C18       0.4728    1.6890    2.8261   C.ar      1 RES1   0.0000
    22 N3       -0.0253    1.9087    1.6011   N.ar      1 RES1   0.0000
    23 N4       -0.2991    3.1494    1.2742   N.ar      1 RES1   0.0000
    24 C19      -0.1433    4.1436    2.1290   C.ar      1 RES1   0.0000
    25 C20      -0.2734    5.5247    1.5923   C.3       1 RES1   0.0000
    26 C21       1.0605    6.2927    1.5898   C.3       1 RES1   0.0000
    27 C22       2.1298    5.6697    0.6879   C.3       1 RES1   0.0000
    28 C23       2.9897    4.6093    1.3735   C.3       1 RES1   0.0000
    29 C24       4.0415    4.0544    0.4204   C.3       1 RES1   0.0000
    30 C25       0.1011    3.8328    3.4984   C.ar      1 RES1   0.0000
    31 C26       0.0866    4.7877    4.6380   C.3       1 RES1   0.0000
    32 C27       1.4616    4.7263    5.3281   C.3       1 RES1   0.0000
    33 C28       1.6128    5.7807    6.4196   C.3       1 RES1   0.0000
    34 C29       2.8929    5.5893    7.2371   C.3       1 RES1   0.0000
    35 C30       4.1663    5.7232    6.4093   C.3       1 RES1   0.0000
    36 N5        0.4536    2.5948    3.7906   N.ar      1 RES1   0.0000
    37 N6        1.5151   -0.2310    1.9416   N.ar      1 RES1   0.0000
    38 N7        1.7767   -1.7140   -0.2007   N.ar      1 RES1   0.0000
    39 N8        0.9676   -2.9173   -3.4427   N.ar      1 RES1   0.0000
    40 C31      -0.1265   -3.0997   -4.1489   C.ar      1 RES1   0.0000
    41 C32       0.0165   -3.8715   -5.4062   C.3       1 RES1   0.0000
    42 C33       0.1267   -5.3708   -5.0582   C.3       1 RES1   0.0000
    43 C34       1.4106   -5.6944   -4.3013   C.3       1 RES1   0.0000
    44 C35       1.5919   -7.1931   -4.0767   C.3       1 RES1   0.0000
    45 C36       2.8935   -7.4889   -3.3413   C.3       1 RES1   0.0000
    46 H1       -0.9156   -6.2979   -0.1720   H         1 RES1   0.0000
    47 H2       -1.5431   -7.0342   -1.6493   H         1 RES1   0.0000
    48 H3       -2.6376   -6.6430   -0.3249   H         1 RES1   0.0000
    49 H4       -1.0888   -4.6031   -1.9818   H         1 RES1   0.0000
    50 H5       -2.1882   -4.2103   -0.6609   H         1 RES1   0.0000
    51 H6       -4.0324   -5.3727   -1.8829   H         1 RES1   0.0000
    52 H7       -2.9681   -5.6036   -3.2609   H         1 RES1   0.0000
    53 H8       -3.5940   -2.8513   -2.1033   H         1 RES1   0.0000
    54 H9       -4.6139   -3.6191   -3.3145   H         1 RES1   0.0000
    55 H10      -3.1764   -2.1317   -4.4757   H         1 RES1   0.0000
    56 H11      -2.6349   -3.7794   -4.8470   H         1 RES1   0.0000
    57 H12       3.3949   -3.2381   -2.7210   H         1 RES1   0.0000
    58 H13       5.0918   -3.5841   -0.9219   H         1 RES1   0.0000
    59 H14       4.5779   -2.7233    1.3655   H         1 RES1   0.0000
    60 H15       3.5190   -2.5568    3.3308   H         1 RES1   0.0000
    61 H16       2.7700   -1.4283    5.3946   H         1 RES1   0.0000
    62 H17       1.1981    0.5321    5.1873   H         1 RES1   0.0000
    63 H18      -1.0071    6.0815    2.1788   H         1 RES1   0.0000
    64 H19      -0.6375    5.4590    0.5681   H         1 RES1   0.0000
    65 H20       1.4601    6.3778    2.6006   H         1 RES1   0.0000
    66 H21       0.8417    7.3017    1.2370   H         1 RES1   0.0000
    67 H22       2.8008    6.4636    0.3535   H         1 RES1   0.0000
    68 H23       1.6617    5.2414   -0.2001   H         1 RES1   0.0000
    69 H24       2.3765    3.7822    1.7369   H         1 RES1   0.0000
    70 H25       3.4856    5.0556    2.2376   H         1 RES1   0.0000
    71 H26       3.5630    3.5694   -0.4281   H         1 RES1   0.0000
    72 H27       4.6757    3.3250    0.9211   H         1 RES1   0.0000
    73 H28       4.6741    4.8561    0.0453   H         1 RES1   0.0000
    74 H29      -0.6733    4.4766    5.3578   H         1 RES1   0.0000
    75 H30      -0.1303    5.8053    4.3207   H         1 RES1   0.0000
    76 H31       2.2392    4.8651    4.5767   H         1 RES1   0.0000
    77 H32       1.5899    3.7323    5.7559   H         1 RES1   0.0000
    78 H33       0.7563    5.7228    7.0942   H         1 RES1   0.0000
    79 H34       1.6167    6.7766    5.9708   H         1 RES1   0.0000
    80 H35       2.8711    4.6051    7.7098   H         1 RES1   0.0000
    81 H36       2.9086    6.3387    8.0310   H         1 RES1   0.0000
    82 H37       4.2514    4.9201    5.6805   H         1 RES1   0.0000
    83 H38       5.0385    5.6792    7.0566   H         1 RES1   0.0000
    84 H39       4.1825    6.6749    5.8824   H         1 RES1   0.0000
    85 H40       0.9357   -3.5647   -5.9044   H         1 RES1   0.0000
    86 H41      -0.8187   -3.6967   -6.0809   H         1 RES1   0.0000
    87 H42       0.1059   -5.9351   -5.9917   H         1 RES1   0.0000
    88 H43      -0.7361   -5.6659   -4.4595   H         1 RES1   0.0000
    89 H44       1.4101   -5.1942   -3.3298   H         1 RES1   0.0000
    90 H45       2.2642   -5.3109   -4.8639   H         1 RES1   0.0000
    91 H46       1.5965   -7.7071   -5.0383   H         1 RES1   0.0000
    92 H47       0.7511   -7.5796   -3.4984   H         1 RES1   0.0000
    93 H48       3.7448   -7.1170   -3.9086   H         1 RES1   0.0000
    94 H49       3.0151   -8.5605   -3.2039   H         1 RES1   0.0000
    95 H50       2.8978   -7.0125   -2.3619   H         1 RES1   0.0000
    96 N9       -2.2857   -1.2971    1.0341   N.3       1 RES1   0.0000
    97 O1       -3.1474   -1.9046    1.5796   O.2       1 RES1   0.0000
    98 O2       -2.3084   -1.0729   -0.1786   O.co2     1 RES1   0.0000
    99 O3       -1.2882   -0.8832    1.6655   O.co2     1 RES1   0.0000
   100 N10      -1.1890    1.8355   -1.5758   N.3       1 RES1   0.0000
   101 O4       -1.6449    2.4071   -2.5108   O.2       1 RES1   0.0000
   102 O5        0.0208    1.4990   -1.5438   O.co2     1 RES1   0.0000
   103 O6       -1.8679    1.5578   -0.5807   O.co2     1 RES1   0.0000
@<TRIPOS>BOND
     1     1     9    1
     2     1    22    1
     3     1    37    1
     4     1    38    1
     5     1    98    1
     6     1    99    1
     7     1   102    1
     8     1   103    1
     9     2     3    1
    10     2    46    1
    11     2    47    1
    12     2    48    1
    13     3     4    1
    14     3    49    1
    15     3    50    1
    16     4     5    1
    17     4    51    1
    18     4    52    1
    19     5     6    1
    20     5    53    1
    21     5    54    1
    22     6     7    1
    23     6    55    1
    24     6    56    1
    25     7     8    1
    26     7    40    2
    27     8     9    2
    28     9    10    1
    29    10    11    1
    30    10    39    2
    31    11    12    1
    32    11    38    2
    33    12    13    2
    34    12    57    1
    35    13    14    1
    36    13    58    1
    37    14    15    2
    38    14    59    1
    39    15    16    1
    40    15    38    1
    41    16    17    1
    42    16    37    2
    43    17    18    2
    44    17    60    1
    45    18    19    1
    46    18    61    1
    47    19    20    2
    48    19    62    1
    49    20    21    1
    50    20    37    1
    51    21    22    1
    52    21    36    2
    53    22    23    2
    54    23    24    1
    55    24    25    1
    56    24    30    2
    57    25    26    1
    58    25    63    1
    59    25    64    1
    60    26    27    1
    61    26    65    1
    62    26    66    1
    63    27    28    1
    64    27    67    1
    65    27    68    1
    66    28    29    1
    67    28    69    1
    68    28    70    1
    69    29    71    1
    70    29    72    1
    71    29    73    1
    72    30    31    1
    73    30    36    1
    74    31    32    1
    75    31    74    1
    76    31    75    1
    77    32    33    1
    78    32    76    1
    79    32    77    1
    80    33    34    1
    81    33    78    1
    82    33    79    1
    83    34    35    1
    84    34    80    1
    85    34    81    1
    86    35    82    1
    87    35    83    1
    88    35    84    1
    89    39    40    1
    90    40    41    1
    91    41    42    1
    92    41    85    1
    93    41    86    1
    94    42    43    1
    95    42    87    1
    96    42    88    1
    97    43    44    1
    98    43    89    1
    99    43    90    1
   100    44    45    1
   101    44    91    1
   102    44    92    1
   103    45    93    1
   104    45    94    1
   105    45    95    1
   106    96    97    2
   107    96    98    1
   108    96    99    1
   109   100   101    2
   110   100   102    1
   111   100   103    1
@<TRIPOS>SUBSTRUCTURE
     1 RES1      103 GROUP             0 ****  ****    0  
