@<TRIPOS>MOLECULE
cn9_YICLED_0_nunpairedes_0_charge_3 Charge: 3 Unpaired_Electrons: 7 XTB_Unpaired_Electrons: 0 XTB_Charge: 3
   260   263     1     0     0
SMALL
NoCharges
****
Generated from Architector

@<TRIPOS>ATOM
     1 Gd1      -0.1066   -0.0211   -0.0641   Gd        1 RES1   0.0000
     2 C1       -8.4764   -0.1254    2.6875   C.3       1 RES1   0.0000
     3 C2       -7.0590   -0.1174    3.2534   C.3       1 RES1   0.0000
     4 C3       -6.2647    1.0940    2.7562   C.3       1 RES1   0.0000
     5 C4       -4.9555    1.3642    3.5094   C.3       1 RES1   0.0000
     6 N1       -3.8605    0.4546    3.1963   N.am      1 RES1   0.0000
     7 C5       -3.8107   -0.8143    3.9274   C.3       1 RES1   0.0000
     8 C6       -4.1504   -0.8632    5.4172   C.3       1 RES1   0.0000
     9 C7       -3.0964   -0.2652    6.3464   C.3       1 RES1   0.0000
    10 C8       -3.1800    1.2531    6.4605   C.3       1 RES1   0.0000
    11 C9       -3.0405    0.6383    2.1594   C.2       1 RES1   0.0000
    12 O1       -2.0956   -0.1216    1.8528   O.2       1 RES1   0.0000
    13 C10      -3.1701    1.8787    1.3012   C.3       1 RES1   0.0000
    14 C11      -2.1232    2.8835    1.8088   C.3       1 RES1   0.0000
    15 C12      -1.5786    3.6662    0.6296   C.2       1 RES1   0.0000
    16 O2       -0.7795    3.0502   -0.0969   O.2       1 RES1   0.0000
    17 N2       -1.9842    4.9229    0.4053   N.am      1 RES1   0.0000
    18 C13      -1.5586    5.6399   -0.7909   C.3       1 RES1   0.0000
    19 C14      -0.6297    6.8376   -0.6005   C.3       1 RES1   0.0000
    20 C15      -0.5000    7.6010   -1.9186   C.3       1 RES1   0.0000
    21 C16       0.6154    8.6354   -1.8659   C.3       1 RES1   0.0000
    22 C17      -3.0629    5.5708    1.1394   C.3       1 RES1   0.0000
    23 C18      -2.6712    6.6951    2.1089   C.3       1 RES1   0.0000
    24 C19      -1.6442    6.3273    3.1808   C.3       1 RES1   0.0000
    25 C20      -0.1987    6.3423    2.6910   C.3       1 RES1   0.0000
    26 H1       -9.0039   -1.0262    2.9927   H         1 RES1   0.0000
    27 H2       -8.4663   -0.0938    1.6001   H         1 RES1   0.0000
    28 H3       -9.0364    0.7319    3.0511   H         1 RES1   0.0000
    29 H4       -6.5726   -1.0509    2.9673   H         1 RES1   0.0000
    30 H5       -7.1264   -0.0957    4.3425   H         1 RES1   0.0000
    31 H6       -6.8931    1.9748    2.8982   H         1 RES1   0.0000
    32 H7       -6.0719    0.9862    1.6870   H         1 RES1   0.0000
    33 H8       -5.1563    1.2839    4.5752   H         1 RES1   0.0000
    34 H9       -4.6385    2.3908    3.3271   H         1 RES1   0.0000
    35 H10      -2.8052   -1.2002    3.7902   H         1 RES1   0.0000
    36 H11      -4.4964   -1.5041    3.4342   H         1 RES1   0.0000
    37 H12      -4.2466   -1.9272    5.6486   H         1 RES1   0.0000
    38 H13      -5.1228   -0.4255    5.6366   H         1 RES1   0.0000
    39 H14      -2.1035   -0.5593    5.9975   H         1 RES1   0.0000
    40 H15      -3.2368   -0.6923    7.3400   H         1 RES1   0.0000
    41 H16      -2.8744    1.7375    5.5337   H         1 RES1   0.0000
    42 H17      -2.5372    1.6045    7.2635   H         1 RES1   0.0000
    43 H18      -4.1949    1.5640    6.7006   H         1 RES1   0.0000
    44 H19      -4.1684    2.2976    1.2406   H         1 RES1   0.0000
    45 H20      -2.8788    1.5540    0.2915   H         1 RES1   0.0000
    46 H21      -1.2580    2.3075    2.1527   H         1 RES1   0.0000
    47 H22      -2.5076    3.4801    2.6292   H         1 RES1   0.0000
    48 H23      -2.4571    5.9771   -1.3161   H         1 RES1   0.0000
    49 H24      -1.0457    4.9241   -1.4256   H         1 RES1   0.0000
    50 H25       0.3524    6.5028   -0.2651   H         1 RES1   0.0000
    51 H26      -1.0143    7.5174    0.1500   H         1 RES1   0.0000
    52 H27      -1.4441    8.1013   -2.1420   H         1 RES1   0.0000
    53 H28      -0.2968    6.8987   -2.7283   H         1 RES1   0.0000
    54 H29       0.4523    9.3433   -1.0588   H         1 RES1   0.0000
    55 H30       0.6575    9.1939   -2.7955   H         1 RES1   0.0000
    56 H31       1.5803    8.1580   -1.7136   H         1 RES1   0.0000
    57 H32      -3.6201    4.8088    1.6812   H         1 RES1   0.0000
    58 H33      -3.7320    6.0112    0.3932   H         1 RES1   0.0000
    59 H34      -3.5990    6.9943    2.5991   H         1 RES1   0.0000
    60 H35      -2.3145    7.5719    1.5699   H         1 RES1   0.0000
    61 H36      -1.8799    5.3461    3.6003   H         1 RES1   0.0000
    62 H37      -1.7330    7.0568    3.9872   H         1 RES1   0.0000
    63 H38      -0.0113    5.5661    1.9511   H         1 RES1   0.0000
    64 H39       0.4827    6.1950    3.5252   H         1 RES1   0.0000
    65 H40       0.0382    7.3028    2.2421   H         1 RES1   0.0000
    66 C21      -5.8076   -1.1703   -0.3902   C.3       1 RES1   0.0000
    67 C22      -4.7003   -1.6257    0.5622   C.3       1 RES1   0.0000
    68 C23      -4.7889   -3.1252    0.8665   C.3       1 RES1   0.0000
    69 C24      -3.6946   -3.7175    1.7745   C.3       1 RES1   0.0000
    70 N3       -2.3447   -3.1714    1.6548   N.am      1 RES1   0.0000
    71 C25      -1.5387   -3.4179    2.8668   C.3       1 RES1   0.0000
    72 C26      -0.4760   -2.4206    3.3306   C.3       1 RES1   0.0000
    73 C27      -0.0391   -2.8180    4.7533   C.3       1 RES1   0.0000
    74 C28       0.7271   -1.7169    5.4756   C.3       1 RES1   0.0000
    75 C29      -1.8099   -2.8565    0.4662   C.2       1 RES1   0.0000
    76 O3       -0.8113   -2.1118    0.3703   O.2       1 RES1   0.0000
    77 C30      -2.2755   -3.6347   -0.7607   C.3       1 RES1   0.0000
    78 C31      -3.0509   -2.9934   -1.9236   C.3       1 RES1   0.0000
    79 C32      -2.3273   -1.8694   -2.6281   C.2       1 RES1   0.0000
    80 O4       -2.0302   -0.8514   -1.9705   O.2       1 RES1   0.0000
    81 N4       -2.0585   -2.0012   -3.9440   N.am      1 RES1   0.0000
    82 C33      -1.5756   -0.8690   -4.7453   C.3       1 RES1   0.0000
    83 C34      -0.3262   -1.1342   -5.5952   C.3       1 RES1   0.0000
    84 C35      -0.0077    0.0545   -6.5061   C.3       1 RES1   0.0000
    85 C36      -0.8689    0.0684   -7.7611   C.3       1 RES1   0.0000
    86 C37      -2.3836   -3.1677   -4.7634   C.3       1 RES1   0.0000
    87 C38      -1.2798   -4.2369   -4.8788   C.3       1 RES1   0.0000
    88 C39      -0.9359   -4.9914   -3.5975   C.3       1 RES1   0.0000
    89 C40       0.1262   -6.0660   -3.8078   C.3       1 RES1   0.0000
    90 H41      -5.7277   -0.0994   -0.5722   H         1 RES1   0.0000
    91 H42      -6.7846   -1.3831    0.0380   H         1 RES1   0.0000
    92 H43      -5.7558   -1.6695   -1.3558   H         1 RES1   0.0000
    93 H44      -4.8174   -1.0640    1.4830   H         1 RES1   0.0000
    94 H45      -3.7208   -1.3550    0.1540   H         1 RES1   0.0000
    95 H46      -4.8330   -3.6829   -0.0663   H         1 RES1   0.0000
    96 H47      -5.7437   -3.3072    1.3682   H         1 RES1   0.0000
    97 H48      -3.6890   -4.8053    1.6380   H         1 RES1   0.0000
    98 H49      -3.9947   -3.5484    2.8091   H         1 RES1   0.0000
    99 H50      -1.0552   -4.3935    2.7252   H         1 RES1   0.0000
   100 H51      -2.2527   -3.5320    3.6860   H         1 RES1   0.0000
   101 H52      -0.8866   -1.4084    3.3483   H         1 RES1   0.0000
   102 H53       0.3732   -2.4288    2.6424   H         1 RES1   0.0000
   103 H54       0.5721   -3.7210    4.7173   H         1 RES1   0.0000
   104 H55      -0.9234   -3.0519    5.3510   H         1 RES1   0.0000
   105 H56       0.1479   -0.7957    5.4986   H         1 RES1   0.0000
   106 H57       0.9286   -2.0087    6.5023   H         1 RES1   0.0000
   107 H58       1.6766   -1.5221    4.9923   H         1 RES1   0.0000
   108 H59      -2.8306   -4.5183   -0.4544   H         1 RES1   0.0000
   109 H60      -1.3153   -3.9899   -1.1412   H         1 RES1   0.0000
   110 H61      -3.9737   -2.5402   -1.5704   H         1 RES1   0.0000
   111 H62      -3.3187   -3.7972   -2.6007   H         1 RES1   0.0000
   112 H63      -1.4182   -0.0254   -4.0748   H         1 RES1   0.0000
   113 H64      -2.3882   -0.5843   -5.4145   H         1 RES1   0.0000
   114 H65      -0.4888   -1.9965   -6.2360   H         1 RES1   0.0000
   115 H66       0.5395   -1.3482   -4.9704   H         1 RES1   0.0000
   116 H67       1.0374   -0.0163   -6.8104   H         1 RES1   0.0000
   117 H68      -0.1368    0.9914   -5.9597   H         1 RES1   0.0000
   118 H69      -0.7919   -0.8807   -8.2847   H         1 RES1   0.0000
   119 H70      -0.5349    0.8482   -8.4373   H         1 RES1   0.0000
   120 H71      -1.9136    0.2511   -7.5267   H         1 RES1   0.0000
   121 H72      -2.5753   -2.7864   -5.7672   H         1 RES1   0.0000
   122 H73      -3.3129   -3.6304   -4.4324   H         1 RES1   0.0000
   123 H74      -0.3584   -3.8023   -5.2661   H         1 RES1   0.0000
   124 H75      -1.6319   -4.9550   -5.6207   H         1 RES1   0.0000
   125 H76      -1.8277   -5.4714   -3.1968   H         1 RES1   0.0000
   126 H77      -0.5523   -4.2931   -2.8518   H         1 RES1   0.0000
   127 H78      -0.1900   -6.7967   -4.5441   H         1 RES1   0.0000
   128 H79       0.2999   -6.5926   -2.8717   H         1 RES1   0.0000
   129 H80       1.0649   -5.6328   -4.1451   H         1 RES1   0.0000
   130 C41       4.3250    6.1072    2.6713   C.3       1 RES1   0.0000
   131 C42       3.3063    5.1620    3.3019   C.3       1 RES1   0.0000
   132 C43       3.9344    3.7963    3.5681   C.3       1 RES1   0.0000
   133 C44       3.0233    2.8125    4.3082   C.3       1 RES1   0.0000
   134 N5        1.7914    2.4565    3.6197   N.am      1 RES1   0.0000
   135 C45       0.5026    2.9945    4.0679   C.3       1 RES1   0.0000
   136 C46       0.3957    3.6726    5.4347   C.3       1 RES1   0.0000
   137 C47       0.2185    2.7337    6.6324   C.3       1 RES1   0.0000
   138 C48       1.4653    1.9941    7.0985   C.3       1 RES1   0.0000
   139 C49       1.7688    1.6623    2.5571   C.2       1 RES1   0.0000
   140 O5        0.7146    1.3949    1.9238   O.2       1 RES1   0.0000
   141 C50       3.0043    0.8881    2.1893   C.3       1 RES1   0.0000
   142 C51       2.8253   -0.4704    2.9002   C.3       1 RES1   0.0000
   143 C52       3.3438   -1.4896    1.9040   C.2       1 RES1   0.0000
   144 O6        2.5805   -1.7087    0.9609   O.2       1 RES1   0.0000
   145 N6        4.5961   -1.9519    2.0058   N.am      1 RES1   0.0000
   146 C53       5.3943   -2.3825    0.8530   C.3       1 RES1   0.0000
   147 C54       5.2385   -3.8162    0.3387   C.3       1 RES1   0.0000
   148 C55       6.1916   -4.0889   -0.8319   C.3       1 RES1   0.0000
   149 C56       5.8381   -5.3553   -1.6105   C.3       1 RES1   0.0000
   150 C57       5.3380   -1.9682    3.2547   C.3       1 RES1   0.0000
   151 C58       5.5877   -3.3940    3.7518   C.3       1 RES1   0.0000
   152 C59       4.3565   -4.0517    4.3776   C.3       1 RES1   0.0000
   153 C60       3.2649   -4.4661    3.3917   C.3       1 RES1   0.0000
   154 H81       3.8856    7.0814    2.4697   H         1 RES1   0.0000
   155 H82       4.6950    5.6999    1.7326   H         1 RES1   0.0000
   156 H83       5.1722    6.2442    3.3389   H         1 RES1   0.0000
   157 H84       2.4471    5.0572    2.6362   H         1 RES1   0.0000
   158 H85       2.9583    5.5944    4.2412   H         1 RES1   0.0000
   159 H86       4.8111    3.9451    4.2018   H         1 RES1   0.0000
   160 H87       4.2783    3.3852    2.6182   H         1 RES1   0.0000
   161 H88       2.7463    3.2731    5.2492   H         1 RES1   0.0000
   162 H89       3.5931    1.9125    4.5467   H         1 RES1   0.0000
   163 H90      -0.1898    2.1460    4.0579   H         1 RES1   0.0000
   164 H91       0.1744    3.7064    3.3073   H         1 RES1   0.0000
   165 H92      -0.5059    4.2858    5.3781   H         1 RES1   0.0000
   166 H93       1.2131    4.3672    5.6183   H         1 RES1   0.0000
   167 H94      -0.5497    1.9988    6.3923   H         1 RES1   0.0000
   168 H95      -0.1504    3.3332    7.4659   H         1 RES1   0.0000
   169 H96       1.8200    1.2966    6.3443   H         1 RES1   0.0000
   170 H97       1.2352    1.4253    7.9953   H         1 RES1   0.0000
   171 H98       2.2622    2.6870    7.3536   H         1 RES1   0.0000
   172 H99       3.9460    1.3510    2.4557   H         1 RES1   0.0000
   173 H100      2.9718    0.7290    1.1058   H         1 RES1   0.0000
   174 H101      1.7566   -0.6763    2.9883   H         1 RES1   0.0000
   175 H102      3.2744   -0.4633    3.8858   H         1 RES1   0.0000
   176 H103      6.4377   -2.2428    1.1371   H         1 RES1   0.0000
   177 H104      5.1863   -1.6801    0.0404   H         1 RES1   0.0000
   178 H105      4.2169   -3.9642    0.0227   H         1 RES1   0.0000
   179 H106      5.4403   -4.5394    1.1256   H         1 RES1   0.0000
   180 H107      7.2063   -4.1916   -0.4496   H         1 RES1   0.0000
   181 H108      6.1880   -3.2379   -1.5180   H         1 RES1   0.0000
   182 H109      5.7768   -6.2214   -0.9541   H         1 RES1   0.0000
   183 H110      6.5967   -5.5521   -2.3635   H         1 RES1   0.0000
   184 H111      4.8880   -5.2515   -2.1300   H         1 RES1   0.0000
   185 H112      4.8129   -1.4152    4.0319   H         1 RES1   0.0000
   186 H113      6.2989   -1.4776    3.0808   H         1 RES1   0.0000
   187 H114      6.3740   -3.3453    4.5041   H         1 RES1   0.0000
   188 H115      5.9767   -4.0167    2.9484   H         1 RES1   0.0000
   189 H116      3.9267   -3.3695    5.1157   H         1 RES1   0.0000
   190 H117      4.6933   -4.9424    4.9105   H         1 RES1   0.0000
   191 H118      2.7643   -3.6085    2.9464   H         1 RES1   0.0000
   192 H119      2.5167   -5.0593    3.9130   H         1 RES1   0.0000
   193 H120      3.6712   -5.0790    2.5914   H         1 RES1   0.0000
   194 C61       3.0157    4.8709   -1.4036   C.3       1 RES1   0.0000
   195 C62       1.6688    4.3372   -1.8861   C.3       1 RES1   0.0000
   196 C63       1.4115    4.6309   -3.3656   C.3       1 RES1   0.0000
   197 C64       0.0801    4.0960   -3.9467   C.3       1 RES1   0.0000
   198 N7       -0.4278    2.8555   -3.3825   N.am      1 RES1   0.0000
   199 C65      -1.8258    2.8139   -2.9464   C.3       1 RES1   0.0000
   200 C66      -2.8443    3.2538   -3.9993   C.3       1 RES1   0.0000
   201 C67      -3.3524    2.1121   -4.8799   C.3       1 RES1   0.0000
   202 C68      -4.1822    1.0814   -4.1161   C.3       1 RES1   0.0000
   203 C69       0.3597    1.8678   -2.9592   C.2       1 RES1   0.0000
   204 O7       -0.0622    1.0749   -2.0854   O.2       1 RES1   0.0000
   205 C70       1.6510    1.5442   -3.7008   C.3       1 RES1   0.0000
   206 C71       2.8240    1.1062   -2.8012   C.3       1 RES1   0.0000
   207 C72       2.6233   -0.2450   -2.1209   C.2       1 RES1   0.0000
   208 O8        2.0123   -0.2329   -1.0272   O.2       1 RES1   0.0000
   209 N8        3.1636   -1.3531   -2.6248   N.am      1 RES1   0.0000
   210 C73       3.2113   -2.5347   -1.7555   C.3       1 RES1   0.0000
   211 C74       1.9017   -3.3134   -1.6039   C.3       1 RES1   0.0000
   212 C75       1.8108   -4.3129   -0.4409   C.3       1 RES1   0.0000
   213 C76       2.3551   -5.7109   -0.7193   C.3       1 RES1   0.0000
   214 C77       4.0019   -1.3064   -3.8253   C.3       1 RES1   0.0000
   215 C78       4.1593   -2.5991   -4.6231   C.3       1 RES1   0.0000
   216 C79       2.8606   -3.0259   -5.2982   C.3       1 RES1   0.0000
   217 C80       3.0766   -4.2604   -6.1649   C.3       1 RES1   0.0000
   218 H121      3.1695    4.5834   -0.3641   H         1 RES1   0.0000
   219 H122      3.0515    5.9563   -1.4698   H         1 RES1   0.0000
   220 H123      3.8348    4.4691   -1.9950   H         1 RES1   0.0000
   221 H124      0.8932    4.7791   -1.2711   H         1 RES1   0.0000
   222 H125      1.6229    3.2631   -1.6952   H         1 RES1   0.0000
   223 H126      2.2553    4.2593   -3.9473   H         1 RES1   0.0000
   224 H127      1.4074    5.7132   -3.5153   H         1 RES1   0.0000
   225 H128      0.1854    3.9970   -5.0312   H         1 RES1   0.0000
   226 H129     -0.7010    4.8298   -3.7526   H         1 RES1   0.0000
   227 H130     -1.9395    3.4211   -2.0534   H         1 RES1   0.0000
   228 H131     -2.0222    1.7824   -2.6430   H         1 RES1   0.0000
   229 H132     -2.4293    4.0250   -4.6470   H         1 RES1   0.0000
   230 H133     -3.6925    3.6895   -3.4706   H         1 RES1   0.0000
   231 H134     -2.5004    1.6402   -5.3705   H         1 RES1   0.0000
   232 H135     -3.9783    2.5354   -5.6656   H         1 RES1   0.0000
   233 H136     -3.6217    0.6151   -3.3075   H         1 RES1   0.0000
   234 H137     -4.5277    0.2988   -4.7889   H         1 RES1   0.0000
   235 H138     -5.0606    1.5539   -3.6841   H         1 RES1   0.0000
   236 H139      1.9801    2.3542   -4.3440   H         1 RES1   0.0000
   237 H140      1.4107    0.7070   -4.3613   H         1 RES1   0.0000
   238 H141      2.9346    1.8017   -1.9653   H         1 RES1   0.0000
   239 H142      3.7494    1.1319   -3.3742   H         1 RES1   0.0000
   240 H143      3.4177   -2.1379   -0.7675   H         1 RES1   0.0000
   241 H144      4.0220   -3.1598   -2.1043   H         1 RES1   0.0000
   242 H145      1.6523   -3.8214   -2.5353   H         1 RES1   0.0000
   243 H146      1.1537   -2.5670   -1.3516   H         1 RES1   0.0000
   244 H147      0.7452   -4.4104   -0.2079   H         1 RES1   0.0000
   245 H148      2.2774   -3.8826    0.4458   H         1 RES1   0.0000
   246 H149      2.1023   -6.0290   -1.7283   H         1 RES1   0.0000
   247 H150      1.9241   -6.4205   -0.0156   H         1 RES1   0.0000
   248 H151      3.4323   -5.7595   -0.6150   H         1 RES1   0.0000
   249 H152      5.0035   -0.9660   -3.5449   H         1 RES1   0.0000
   250 H153      3.5890   -0.5711   -4.5165   H         1 RES1   0.0000
   251 H154      4.5524   -3.4180   -4.0220   H         1 RES1   0.0000
   252 H155      4.9055   -2.4003   -5.3977   H         1 RES1   0.0000
   253 H156      2.5029   -2.2053   -5.9262   H         1 RES1   0.0000
   254 H157      2.1054   -3.2265   -4.5340   H         1 RES1   0.0000
   255 H158      3.8116   -4.0466   -6.9377   H         1 RES1   0.0000
   256 H159      2.1512   -4.5663   -6.6480   H         1 RES1   0.0000
   257 H160      3.4437   -5.0909   -5.5653   H         1 RES1   0.0000
   258 O9        0.3989   -1.3895   -2.7423   O.3       1 RES1   0.0000
   259 H161     -0.0699   -0.6021   -3.0429   H         1 RES1   0.0000
   260 H162     -0.0077   -2.1575   -3.1585   H         1 RES1   0.0000
@<TRIPOS>BOND
     1     1    12    1
     2     1    16    1
     3     1    76    1
     4     1    80    1
     5     1   140    1
     6     1   144    1
     7     1   204    1
     8     1   208    1
     9     1   258    1
    10     2     3    1
    11     2    26    1
    12     2    27    1
    13     2    28    1
    14     3     4    1
    15     3    29    1
    16     3    30    1
    17     4     5    1
    18     4    31    1
    19     4    32    1
    20     5     6    1
    21     5    33    1
    22     5    34    1
    23     6     7    1
    24     6    11    1
    25     7     8    1
    26     7    35    1
    27     7    36    1
    28     8     9    1
    29     8    37    1
    30     8    38    1
    31     9    10    1
    32     9    39    1
    33     9    40    1
    34    10    41    1
    35    10    42    1
    36    10    43    1
    37    11    12    2
    38    11    13    1
    39    13    14    1
    40    13    44    1
    41    13    45    1
    42    14    15    1
    43    14    46    1
    44    14    47    1
    45    15    16    2
    46    15    17    1
    47    17    18    1
    48    17    22    1
    49    18    19    1
    50    18    48    1
    51    18    49    1
    52    19    20    1
    53    19    50    1
    54    19    51    1
    55    20    21    1
    56    20    52    1
    57    20    53    1
    58    21    54    1
    59    21    55    1
    60    21    56    1
    61    22    23    1
    62    22    57    1
    63    22    58    1
    64    23    24    1
    65    23    59    1
    66    23    60    1
    67    24    25    1
    68    24    61    1
    69    24    62    1
    70    25    63    1
    71    25    64    1
    72    25    65    1
    73    66    67    1
    74    66    90    1
    75    66    91    1
    76    66    92    1
    77    67    68    1
    78    67    93    1
    79    67    94    1
    80    68    69    1
    81    68    95    1
    82    68    96    1
    83    69    70    1
    84    69    97    1
    85    69    98    1
    86    70    71    1
    87    70    75    1
    88    71    72    1
    89    71    99    1
    90    71   100    1
    91    72    73    1
    92    72   101    1
    93    72   102    1
    94    73    74    1
    95    73   103    1
    96    73   104    1
    97    74   105    1
    98    74   106    1
    99    74   107    1
   100    75    76    2
   101    75    77    1
   102    77    78    1
   103    77   108    1
   104    77   109    1
   105    78    79    1
   106    78   110    1
   107    78   111    1
   108    79    80    2
   109    79    81    1
   110    81    82    1
   111    81    86    1
   112    82    83    1
   113    82   112    1
   114    82   113    1
   115    83    84    1
   116    83   114    1
   117    83   115    1
   118    84    85    1
   119    84   116    1
   120    84   117    1
   121    85   118    1
   122    85   119    1
   123    85   120    1
   124    86    87    1
   125    86   121    1
   126    86   122    1
   127    87    88    1
   128    87   123    1
   129    87   124    1
   130    88    89    1
   131    88   125    1
   132    88   126    1
   133    89   127    1
   134    89   128    1
   135    89   129    1
   136   130   131    1
   137   130   154    1
   138   130   155    1
   139   130   156    1
   140   131   132    1
   141   131   157    1
   142   131   158    1
   143   132   133    1
   144   132   159    1
   145   132   160    1
   146   133   134    1
   147   133   161    1
   148   133   162    1
   149   134   135    1
   150   134   139    1
   151   135   136    1
   152   135   163    1
   153   135   164    1
   154   136   137    1
   155   136   165    1
   156   136   166    1
   157   137   138    1
   158   137   167    1
   159   137   168    1
   160   138   169    1
   161   138   170    1
   162   138   171    1
   163   139   140    2
   164   139   141    1
   165   141   142    1
   166   141   172    1
   167   141   173    1
   168   142   143    1
   169   142   174    1
   170   142   175    1
   171   143   144    2
   172   143   145    1
   173   145   146    1
   174   145   150    1
   175   146   147    1
   176   146   176    1
   177   146   177    1
   178   147   148    1
   179   147   178    1
   180   147   179    1
   181   148   149    1
   182   148   180    1
   183   148   181    1
   184   149   182    1
   185   149   183    1
   186   149   184    1
   187   150   151    1
   188   150   185    1
   189   150   186    1
   190   151   152    1
   191   151   187    1
   192   151   188    1
   193   152   153    1
   194   152   189    1
   195   152   190    1
   196   153   191    1
   197   153   192    1
   198   153   193    1
   199   194   195    1
   200   194   218    1
   201   194   219    1
   202   194   220    1
   203   195   196    1
   204   195   221    1
   205   195   222    1
   206   196   197    1
   207   196   223    1
   208   196   224    1
   209   197   198    1
   210   197   225    1
   211   197   226    1
   212   198   199    1
   213   198   203    1
   214   199   200    1
   215   199   227    1
   216   199   228    1
   217   200   201    1
   218   200   229    1
   219   200   230    1
   220   201   202    1
   221   201   231    1
   222   201   232    1
   223   202   233    1
   224   202   234    1
   225   202   235    1
   226   203   204    2
   227   203   205    1
   228   205   206    1
   229   205   236    1
   230   205   237    1
   231   206   207    1
   232   206   238    1
   233   206   239    1
   234   207   208    2
   235   207   209    1
   236   209   210    1
   237   209   214    1
   238   210   211    1
   239   210   240    1
   240   210   241    1
   241   211   212    1
   242   211   242    1
   243   211   243    1
   244   212   213    1
   245   212   244    1
   246   212   245    1
   247   213   246    1
   248   213   247    1
   249   213   248    1
   250   214   215    1
   251   214   249    1
   252   214   250    1
   253   215   216    1
   254   215   251    1
   255   215   252    1
   256   216   217    1
   257   216   253    1
   258   216   254    1
   259   217   255    1
   260   217   256    1
   261   217   257    1
   262   258   259    1
   263   258   260    1
@<TRIPOS>SUBSTRUCTURE
     1 RES1      260 GROUP             0 ****  ****    0  
