@<TRIPOS>MOLECULE
YEMSEP_geometry_0_nunpairedes_0_charge_3 Charge: 3 Unpaired_Electrons: 6 XTB_Unpaired_Electrons: 0 XTB_Charge: 3
   341   344     1     0     0
SMALL
NoCharges
****
Generated from Architector

@<TRIPOS>ATOM
     1 Tb1      -0.1447   -0.0545    0.1531   Tb        1 RES1   0.0000
     2 C1       -4.1677   -6.5369   -6.8924   C.3       1 RES1   0.0000
     3 C2       -2.8753   -5.7548   -7.0865   C.3       1 RES1   0.0000
     4 C3       -1.9346   -5.8408   -5.8826   C.3       1 RES1   0.0000
     5 C4       -2.5110   -5.1260   -4.6628   C.3       1 RES1   0.0000
     6 C5       -1.6970   -5.3100   -3.3848   C.3       1 RES1   0.0000
     7 C6       -0.2946   -4.6969   -3.4474   C.3       1 RES1   0.0000
     8 N1       -0.2357   -3.2794   -3.1286   N.am      1 RES1   0.0000
     9 C7       -0.2744   -2.3283   -4.2375   C.3       1 RES1   0.0000
    10 C8        0.6665   -2.5829   -5.4147   C.3       1 RES1   0.0000
    11 C9        2.1696   -2.4652   -5.1343   C.3       1 RES1   0.0000
    12 C10       2.8409   -3.7731   -4.7042   C.3       1 RES1   0.0000
    13 C11       4.3676   -3.6653   -4.6631   C.3       1 RES1   0.0000
    14 C12       5.0393   -5.0229   -4.4980   C.3       1 RES1   0.0000
    15 C13      -0.2817   -2.7940   -1.8818   C.2       1 RES1   0.0000
    16 O1       -0.2351   -1.5695   -1.6638   O.2       1 RES1   0.0000
    17 C14      -0.3500   -3.8268   -0.7502   C.3       1 RES1   0.0000
    18 C15      -0.9031   -3.3169    0.5903   C.2       1 RES1   0.0000
    19 O2       -0.9492   -2.1036    0.8507   O.2       1 RES1   0.0000
    20 N2       -1.3040   -4.2255    1.4864   N.am      1 RES1   0.0000
    21 C16      -1.4968   -5.6558    1.2491   C.3       1 RES1   0.0000
    22 C17      -0.9528   -6.6128    2.3147   C.3       1 RES1   0.0000
    23 C18       0.5682   -6.7492    2.2730   C.3       1 RES1   0.0000
    24 C19       1.1534   -7.2745    3.5847   C.3       1 RES1   0.0000
    25 C20       2.6835   -7.2838    3.5588   C.3       1 RES1   0.0000
    26 C21       3.2855   -7.5086    4.9396   C.3       1 RES1   0.0000
    27 C22      -1.8055   -3.7214    2.7619   C.3       1 RES1   0.0000
    28 C23      -3.3201   -3.4917    2.7753   C.3       1 RES1   0.0000
    29 C24      -3.9684   -3.7909    4.1307   C.3       1 RES1   0.0000
    30 C25      -3.3614   -3.0602    5.3286   C.3       1 RES1   0.0000
    31 C26      -3.3628   -1.5379    5.2187   C.3       1 RES1   0.0000
    32 C27      -2.8478   -0.9168    6.5114   C.3       1 RES1   0.0000
    33 H1       -4.7429   -6.5382   -7.8127   H         1 RES1   0.0000
    34 H2       -4.7882   -6.1004   -6.1141   H         1 RES1   0.0000
    35 H3       -3.9508   -7.5680   -6.6261   H         1 RES1   0.0000
    36 H4       -3.1051   -4.7050   -7.2845   H         1 RES1   0.0000
    37 H5       -2.3549   -6.1479   -7.9616   H         1 RES1   0.0000
    38 H6       -0.9752   -5.4005   -6.1684   H         1 RES1   0.0000
    39 H7       -1.7556   -6.8898   -5.6412   H         1 RES1   0.0000
    40 H8       -3.5073   -5.5272   -4.4756   H         1 RES1   0.0000
    41 H9       -2.6180   -4.0647   -4.8910   H         1 RES1   0.0000
    42 H10      -1.5984   -6.3790   -3.1930   H         1 RES1   0.0000
    43 H11      -2.2612   -4.8774   -2.5583   H         1 RES1   0.0000
    44 H12       0.0817   -4.8364   -4.4551   H         1 RES1   0.0000
    45 H13       0.3845   -5.2372   -2.7926   H         1 RES1   0.0000
    46 H14      -0.0580   -1.3462   -3.8093   H         1 RES1   0.0000
    47 H15      -1.2970   -2.3167   -4.6233   H         1 RES1   0.0000
    48 H16       0.4101   -1.8293   -6.1602   H         1 RES1   0.0000
    49 H17       0.4633   -3.5432   -5.8872   H         1 RES1   0.0000
    50 H18       2.3423   -1.6776   -4.3949   H         1 RES1   0.0000
    51 H19       2.6541   -2.1459   -6.0605   H         1 RES1   0.0000
    52 H20       2.5751   -4.5466   -5.4278   H         1 RES1   0.0000
    53 H21       2.4764   -4.0950   -3.7242   H         1 RES1   0.0000
    54 H22       4.6686   -3.0142   -3.8382   H         1 RES1   0.0000
    55 H23       4.7160   -3.2059   -5.5904   H         1 RES1   0.0000
    56 H24       4.6790   -5.5369   -3.6108   H         1 RES1   0.0000
    57 H25       6.1147   -4.8986   -4.4107   H         1 RES1   0.0000
    58 H26       4.8387   -5.6546   -5.3576   H         1 RES1   0.0000
    59 H27       0.6595   -4.2143   -0.5600   H         1 RES1   0.0000
    60 H28      -0.9619   -4.6568   -1.0948   H         1 RES1   0.0000
    61 H29      -1.0295   -5.9304    0.3102   H         1 RES1   0.0000
    62 H30      -2.5708   -5.8241    1.1568   H         1 RES1   0.0000
    63 H31      -1.4002   -7.5909    2.1349   H         1 RES1   0.0000
    64 H32      -1.2650   -6.3101    3.3122   H         1 RES1   0.0000
    65 H33       1.0084   -5.7710    2.0843   H         1 RES1   0.0000
    66 H34       0.8625   -7.4065    1.4532   H         1 RES1   0.0000
    67 H35       0.7886   -8.2835    3.7838   H         1 RES1   0.0000
    68 H36       0.8188   -6.6299    4.4027   H         1 RES1   0.0000
    69 H37       3.0347   -6.3258    3.1638   H         1 RES1   0.0000
    70 H38       3.0318   -8.0621    2.8788   H         1 RES1   0.0000
    71 H39       2.9725   -6.7196    5.6196   H         1 RES1   0.0000
    72 H40       4.3711   -7.5088    4.8842   H         1 RES1   0.0000
    73 H41       2.9653   -8.4594    5.3556   H         1 RES1   0.0000
    74 H42      -1.2876   -2.7856    2.9696   H         1 RES1   0.0000
    75 H43      -1.5449   -4.4389    3.5347   H         1 RES1   0.0000
    76 H44      -3.7826   -4.1509    2.0398   H         1 RES1   0.0000
    77 H45      -3.5344   -2.4647    2.4808   H         1 RES1   0.0000
    78 H46      -3.8966   -4.8646    4.3180   H         1 RES1   0.0000
    79 H47      -5.0295   -3.5413    4.0662   H         1 RES1   0.0000
    80 H48      -2.3358   -3.3985    5.4857   H         1 RES1   0.0000
    81 H49      -3.9298   -3.3375    6.2191   H         1 RES1   0.0000
    82 H50      -4.3802   -1.1922    5.0246   H         1 RES1   0.0000
    83 H51      -2.7322   -1.2255    4.3816   H         1 RES1   0.0000
    84 H52      -1.8543   -1.2963    6.7363   H         1 RES1   0.0000
    85 H53      -3.5032   -1.1747    7.3385   H         1 RES1   0.0000
    86 H54      -2.7971    0.1670    6.4456   H         1 RES1   0.0000
    87 C28       6.7278   -0.9678    0.8201   C.3       1 RES1   0.0000
    88 C29       7.4909    0.3066    0.4753   C.3       1 RES1   0.0000
    89 C30       6.9857    1.0270   -0.7782   C.3       1 RES1   0.0000
    90 C31       7.2362    0.2937   -2.0987   C.3       1 RES1   0.0000
    91 C32       6.1134   -0.6747   -2.4771   C.3       1 RES1   0.0000
    92 C33       4.9266   -0.0699   -3.2476   C.3       1 RES1   0.0000
    93 N3        3.8740    0.6214   -2.5027   N.am      1 RES1   0.0000
    94 C34       3.8636    2.0936   -2.5245   C.3       1 RES1   0.0000
    95 C35       4.0676    2.7984   -3.8652   C.3       1 RES1   0.0000
    96 C36       2.8932    2.7431   -4.8466   C.3       1 RES1   0.0000
    97 C37       1.9544    3.9454   -4.7046   C.3       1 RES1   0.0000
    98 C38       0.9191    3.9743   -5.8295   C.3       1 RES1   0.0000
    99 C39      -0.0316    5.1649   -5.7732   C.3       1 RES1   0.0000
   100 C40       2.9318   -0.0028   -1.7854   C.2       1 RES1   0.0000
   101 O3        1.9506    0.6061   -1.3140   O.2       1 RES1   0.0000
   102 C41       3.0491   -1.5236   -1.5580   C.3       1 RES1   0.0000
   103 C42       2.7481   -1.8306   -0.0843   C.2       1 RES1   0.0000
   104 O4        1.8170   -1.2210    0.4648   O.2       1 RES1   0.0000
   105 N4        3.4673   -2.7287    0.5998   N.am      1 RES1   0.0000
   106 C43       4.5084   -3.5635    0.0094   C.3       1 RES1   0.0000
   107 C44       4.0007   -4.7347   -0.8358   C.3       1 RES1   0.0000
   108 C45       3.3858   -5.8726   -0.0218   C.3       1 RES1   0.0000
   109 C46       3.4285   -7.2238   -0.7440   C.3       1 RES1   0.0000
   110 C47       2.4880   -7.3487   -1.9457   C.3       1 RES1   0.0000
   111 C48       1.0289   -7.5370   -1.5452   C.3       1 RES1   0.0000
   112 C49       3.2411   -2.8253    2.0536   C.3       1 RES1   0.0000
   113 C50       1.8097   -3.1868    2.4595   C.3       1 RES1   0.0000
   114 C51       1.6804   -3.6777    3.9091   C.3       1 RES1   0.0000
   115 C52       1.4713   -2.5576    4.9294   C.3       1 RES1   0.0000
   116 C53       0.8174   -3.0314    6.2326   C.3       1 RES1   0.0000
   117 C54       1.7234   -3.8897    7.1053   C.3       1 RES1   0.0000
   118 H55       6.9762   -1.2943    1.8264   H         1 RES1   0.0000
   119 H56       6.9943   -1.7738    0.1421   H         1 RES1   0.0000
   120 H57       5.6518   -0.7954    0.7774   H         1 RES1   0.0000
   121 H58       8.5489    0.0716    0.3603   H         1 RES1   0.0000
   122 H59       7.4055    0.9985    1.3161   H         1 RES1   0.0000
   123 H60       7.4782    2.0005   -0.8150   H         1 RES1   0.0000
   124 H61       5.9160    1.1981   -0.6633   H         1 RES1   0.0000
   125 H62       8.1670   -0.2680   -2.0118   H         1 RES1   0.0000
   126 H63       7.3779    1.0176   -2.9023   H         1 RES1   0.0000
   127 H64       5.7725   -1.1524   -1.5657   H         1 RES1   0.0000
   128 H65       6.5336   -1.4479   -3.1252   H         1 RES1   0.0000
   129 H66       4.4560   -0.8635   -3.8312   H         1 RES1   0.0000
   130 H67       5.3344    0.6295   -3.9734   H         1 RES1   0.0000
   131 H68       4.6765    2.4226   -1.8742   H         1 RES1   0.0000
   132 H69       2.9140    2.4100   -2.0878   H         1 RES1   0.0000
   133 H70       4.9701    2.4302   -4.3482   H         1 RES1   0.0000
   134 H71       4.2653    3.8484   -3.6398   H         1 RES1   0.0000
   135 H72       2.3384    1.8096   -4.7177   H         1 RES1   0.0000
   136 H73       3.2825    2.7550   -5.8662   H         1 RES1   0.0000
   137 H74       2.5456    4.8630   -4.7518   H         1 RES1   0.0000
   138 H75       1.4662    3.9184   -3.7267   H         1 RES1   0.0000
   139 H76       0.3452    3.0466   -5.8069   H         1 RES1   0.0000
   140 H77       1.4567    4.0012   -6.7795   H         1 RES1   0.0000
   141 H78      -0.6649    5.1401   -4.8888   H         1 RES1   0.0000
   142 H79      -0.6806    5.1601   -6.6449   H         1 RES1   0.0000
   143 H80       0.5229    6.0992   -5.7724   H         1 RES1   0.0000
   144 H81       4.0000   -1.9305   -1.8775   H         1 RES1   0.0000
   145 H82       2.2649   -2.0000   -2.1541   H         1 RES1   0.0000
   146 H83       5.1322   -3.9563    0.8110   H         1 RES1   0.0000
   147 H84       5.1604   -2.9545   -0.6151   H         1 RES1   0.0000
   148 H85       4.8587   -5.1339   -1.3789   H         1 RES1   0.0000
   149 H86       3.2916   -4.3653   -1.5758   H         1 RES1   0.0000
   150 H87       2.3570   -5.6321    0.2457   H         1 RES1   0.0000
   151 H88       3.9464   -5.9863    0.9065   H         1 RES1   0.0000
   152 H89       3.1828   -8.0130   -0.0294   H         1 RES1   0.0000
   153 H90       4.4534   -7.4014   -1.0764   H         1 RES1   0.0000
   154 H91       2.7916   -8.2163   -2.5326   H         1 RES1   0.0000
   155 H92       2.5928   -6.4732   -2.5917   H         1 RES1   0.0000
   156 H93       0.9178   -8.4263   -0.9304   H         1 RES1   0.0000
   157 H94       0.4053   -7.6625   -2.4273   H         1 RES1   0.0000
   158 H95       0.6615   -6.6859   -0.9749   H         1 RES1   0.0000
   159 H96       3.5200   -1.8694    2.5053   H         1 RES1   0.0000
   160 H97       3.9076   -3.5986    2.4360   H         1 RES1   0.0000
   161 H98       1.4893   -3.9872    1.7925   H         1 RES1   0.0000
   162 H99       1.1344   -2.3397    2.3108   H         1 RES1   0.0000
   163 H100      2.5531   -4.2702    4.1831   H         1 RES1   0.0000
   164 H101      0.8141   -4.3371    3.9668   H         1 RES1   0.0000
   165 H102      0.8247   -1.7963    4.4798   H         1 RES1   0.0000
   166 H103      2.4309   -2.0976    5.1686   H         1 RES1   0.0000
   167 H104     -0.0942   -3.5859    5.9937   H         1 RES1   0.0000
   168 H105      0.5206   -2.1524    6.8113   H         1 RES1   0.0000
   169 H106      1.9782   -4.8256    6.6169   H         1 RES1   0.0000
   170 H107      1.2239   -4.1244    8.0412   H         1 RES1   0.0000
   171 H108      2.6438   -3.3624    7.3437   H         1 RES1   0.0000
   172 C55      -5.3659    5.7152   -3.5607   C.3       1 RES1   0.0000
   173 C56      -3.8726    5.9992   -3.6897   C.3       1 RES1   0.0000
   174 C57      -3.4476    7.1492   -2.7722   C.3       1 RES1   0.0000
   175 C58      -1.9327    7.3852   -2.6788   C.3       1 RES1   0.0000
   176 C59      -1.2330    6.5870   -1.5666   C.3       1 RES1   0.0000
   177 C60      -0.6554    5.2571   -2.0536   C.3       1 RES1   0.0000
   178 N5       -0.2230    4.3548   -0.9875   N.am      1 RES1   0.0000
   179 C61       0.4809    4.9463    0.1607   C.3       1 RES1   0.0000
   180 C62      -0.4459    5.5963    1.2001   C.3       1 RES1   0.0000
   181 C63      -0.0296    5.5728    2.6761   C.3       1 RES1   0.0000
   182 C64       1.0751    6.5428    3.1065   C.3       1 RES1   0.0000
   183 C65       2.4701    5.9384    2.9826   C.3       1 RES1   0.0000
   184 C66       3.5227    6.7219    3.7553   C.3       1 RES1   0.0000
   185 C67      -0.2806    3.0213   -1.0804   C.2       1 RES1   0.0000
   186 O5       -0.0468    2.3047   -0.0877   O.2       1 RES1   0.0000
   187 C68      -0.5290    2.3451   -2.4397   C.3       1 RES1   0.0000
   188 C69      -1.7578    1.4280   -2.3581   C.2       1 RES1   0.0000
   189 O6       -1.8473    0.6864   -1.3629   O.2       1 RES1   0.0000
   190 N6       -2.7194    1.4709   -3.2905   N.am      1 RES1   0.0000
   191 C70      -4.0504    0.9962   -2.8953   C.3       1 RES1   0.0000
   192 C71      -4.7478   -0.0877   -3.7187   C.3       1 RES1   0.0000
   193 C72      -4.0255   -1.4419   -3.7466   C.3       1 RES1   0.0000
   194 C73      -4.8188   -2.5415   -3.0342   C.3       1 RES1   0.0000
   195 C74      -5.0224   -2.2815   -1.5444   C.3       1 RES1   0.0000
   196 C75      -3.7261   -2.3144   -0.7426   C.3       1 RES1   0.0000
   197 C76      -2.6390    2.1763   -4.5623   C.3       1 RES1   0.0000
   198 C77      -2.9210    1.2926   -5.7917   C.3       1 RES1   0.0000
   199 C78      -1.9848    1.5762   -6.9715   C.3       1 RES1   0.0000
   200 C79      -0.7217    0.7190   -6.9183   C.3       1 RES1   0.0000
   201 C80       0.2010    0.9918   -8.1049   C.3       1 RES1   0.0000
   202 C81       1.4132    0.0686   -8.1213   C.3       1 RES1   0.0000
   203 H109     -5.6678    4.9071   -4.2230   H         1 RES1   0.0000
   204 H110     -5.9424    6.5990   -3.8161   H         1 RES1   0.0000
   205 H111     -5.6160    5.4351   -2.5397   H         1 RES1   0.0000
   206 H112     -3.6371    6.2670   -4.7210   H         1 RES1   0.0000
   207 H113     -3.3115    5.0879   -3.4579   H         1 RES1   0.0000
   208 H114     -3.8461    6.9900   -1.7668   H         1 RES1   0.0000
   209 H115     -3.9233    8.0526   -3.1566   H         1 RES1   0.0000
   210 H116     -1.7769    8.4449   -2.4728   H         1 RES1   0.0000
   211 H117     -1.4690    7.1806   -3.6433   H         1 RES1   0.0000
   212 H118     -1.9586    6.4113   -0.7785   H         1 RES1   0.0000
   213 H119     -0.4315    7.1995   -1.1591   H         1 RES1   0.0000
   214 H120      0.1892    5.4784   -2.7154   H         1 RES1   0.0000
   215 H121     -1.4329    4.7508   -2.6209   H         1 RES1   0.0000
   216 H122      1.1840    5.6734   -0.2540   H         1 RES1   0.0000
   217 H123      1.0500    4.1403    0.6301   H         1 RES1   0.0000
   218 H124     -1.3973    5.0693    1.1365   H         1 RES1   0.0000
   219 H125     -0.6160    6.6403    0.9482   H         1 RES1   0.0000
   220 H126      0.2631    4.5661    2.9746   H         1 RES1   0.0000
   221 H127     -0.9307    5.8396    3.2357   H         1 RES1   0.0000
   222 H128      0.9145    6.8057    4.1550   H         1 RES1   0.0000
   223 H129      1.0079    7.4671    2.5324   H         1 RES1   0.0000
   224 H130      2.7507    5.8840    1.9326   H         1 RES1   0.0000
   225 H131      2.4422    4.9189    3.3754   H         1 RES1   0.0000
   226 H132      3.5850    7.7474    3.4044   H         1 RES1   0.0000
   227 H133      4.5017    6.2633    3.6344   H         1 RES1   0.0000
   228 H134      3.2802    6.7392    4.8152   H         1 RES1   0.0000
   229 H135      0.3474    1.6951   -2.5745   H         1 RES1   0.0000
   230 H136     -0.5543    3.0682   -3.2464   H         1 RES1   0.0000
   231 H137     -4.6974    1.8804   -2.8894   H         1 RES1   0.0000
   232 H138     -3.9374    0.6273   -1.8756   H         1 RES1   0.0000
   233 H139     -4.9587    0.2559   -4.7273   H         1 RES1   0.0000
   234 H140     -5.7180   -0.2277   -3.2401   H         1 RES1   0.0000
   235 H141     -3.0406   -1.3412   -3.2863   H         1 RES1   0.0000
   236 H142     -3.8875   -1.7602   -4.7820   H         1 RES1   0.0000
   237 H143     -4.3112   -3.4993   -3.1610   H         1 RES1   0.0000
   238 H144     -5.7946   -2.6352   -3.5151   H         1 RES1   0.0000
   239 H145     -5.7001   -3.0405   -1.1476   H         1 RES1   0.0000
   240 H146     -5.5102   -1.3159   -1.4106   H         1 RES1   0.0000
   241 H147     -3.2604   -3.2962   -0.8160   H         1 RES1   0.0000
   242 H148     -3.9305   -2.1207    0.3059   H         1 RES1   0.0000
   243 H149     -3.0104   -1.5618   -1.0756   H         1 RES1   0.0000
   244 H150     -1.6428    2.5878   -4.6817   H         1 RES1   0.0000
   245 H151     -3.3518    3.0057   -4.5528   H         1 RES1   0.0000
   246 H152     -3.9441    1.4476   -6.1261   H         1 RES1   0.0000
   247 H153     -2.8049    0.2452   -5.5225   H         1 RES1   0.0000
   248 H154     -1.7214    2.6333   -7.0086   H         1 RES1   0.0000
   249 H155     -2.4970    1.3469   -7.9075   H         1 RES1   0.0000
   250 H156     -1.0258   -0.3312   -6.9364   H         1 RES1   0.0000
   251 H157     -0.1781    0.8857   -5.9816   H         1 RES1   0.0000
   252 H158      0.5310    2.0316   -8.0739   H         1 RES1   0.0000
   253 H159     -0.3694    0.8552   -9.0245   H         1 RES1   0.0000
   254 H160      1.9834    0.1613   -7.1976   H         1 RES1   0.0000
   255 H161      2.0626    0.3205   -8.9543   H         1 RES1   0.0000
   256 H162      1.1012   -0.9672   -8.2384   H         1 RES1   0.0000
   257 C82       0.9503    0.0189   10.0652   C.3       1 RES1   0.0000
   258 C83       2.0612    0.3474    9.0755   C.3       1 RES1   0.0000
   259 C84       1.6698    1.4246    8.0608   C.3       1 RES1   0.0000
   260 C85       0.5478    0.9620    7.1355   C.3       1 RES1   0.0000
   261 C86       0.0637    2.0238    6.1511   C.3       1 RES1   0.0000
   262 C87       1.1038    2.5005    5.1326   C.3       1 RES1   0.0000
   263 N7        1.3098    1.5599    4.0460   N.am      1 RES1   0.0000
   264 C88       2.4399    0.6433    4.1915   C.3       1 RES1   0.0000
   265 C89       3.8456    1.2432    4.2019   C.3       1 RES1   0.0000
   266 C90       4.4444    1.5485    2.8295   C.3       1 RES1   0.0000
   267 C91       4.0484    2.9126    2.2701   C.3       1 RES1   0.0000
   268 C92       4.7477    3.1643    0.9361   C.3       1 RES1   0.0000
   269 C93       4.5214    4.5539    0.3535   C.3       1 RES1   0.0000
   270 C94       0.4210    1.3048    3.0864   C.2       1 RES1   0.0000
   271 O7        0.6115    0.3841    2.2708   O.2       1 RES1   0.0000
   272 C95      -0.8364    2.1662    2.9359   C.3       1 RES1   0.0000
   273 C96      -2.0201    1.3114    2.4852   C.2       1 RES1   0.0000
   274 O8       -1.8721    0.5742    1.4901   O.2       1 RES1   0.0000
   275 N8       -3.2212    1.4103    3.0599   N.am      1 RES1   0.0000
   276 C97      -3.5029    2.0912    4.3157   C.3       1 RES1   0.0000
   277 C98      -4.2484    3.4445    4.3192   C.3       1 RES1   0.0000
   278 C99      -3.8980    4.4771    3.2485   C.3       1 RES1   0.0000
   279 C100     -4.1259    3.9370    1.8414   C.3       1 RES1   0.0000
   280 C101     -4.0840    4.9475    0.6993   C.3       1 RES1   0.0000
   281 C102     -3.8458    4.1725   -0.5931   C.3       1 RES1   0.0000
   282 C103     -4.2780    0.6934    2.3238   C.3       1 RES1   0.0000
   283 C104     -5.6764    0.8197    2.9107   C.3       1 RES1   0.0000
   284 C105     -6.7989    0.4914    1.9192   C.3       1 RES1   0.0000
   285 C106     -6.8466   -0.9441    1.4010   C.3       1 RES1   0.0000
   286 C107     -7.1012   -1.9839    2.4883   C.3       1 RES1   0.0000
   287 C108     -7.1653   -3.3879    1.9005   C.3       1 RES1   0.0000
   288 H163      1.3198   -0.6570   10.8303   H         1 RES1   0.0000
   289 H164      0.1074   -0.4626    9.5757   H         1 RES1   0.0000
   290 H165      0.5973    0.9224   10.5553   H         1 RES1   0.0000
   291 H166      2.3567   -0.5591    8.5406   H         1 RES1   0.0000
   292 H167      2.9328    0.6987    9.6308   H         1 RES1   0.0000
   293 H168      2.5590    1.6859    7.4807   H         1 RES1   0.0000
   294 H169      1.3477    2.3194    8.5957   H         1 RES1   0.0000
   295 H170     -0.3104    0.6834    7.7477   H         1 RES1   0.0000
   296 H171      0.8667    0.0678    6.5982   H         1 RES1   0.0000
   297 H172     -0.2783    2.8884    6.7200   H         1 RES1   0.0000
   298 H173     -0.7919    1.6061    5.6205   H         1 RES1   0.0000
   299 H174      2.0584    2.6371    5.6358   H         1 RES1   0.0000
   300 H175      0.8149    3.4700    4.7282   H         1 RES1   0.0000
   301 H176      2.3628   -0.0712    3.3716   H         1 RES1   0.0000
   302 H177      2.2962    0.1182    5.1359   H         1 RES1   0.0000
   303 H178      4.4854    0.5038    4.6890   H         1 RES1   0.0000
   304 H179      3.8870    2.1427    4.8143   H         1 RES1   0.0000
   305 H180      4.1665    0.7660    2.1182   H         1 RES1   0.0000
   306 H181      5.5323    1.5320    2.9262   H         1 RES1   0.0000
   307 H182      4.3462    3.6810    2.9847   H         1 RES1   0.0000
   308 H183      2.9640    2.9637    2.1312   H         1 RES1   0.0000
   309 H184      4.3859    2.4107    0.2328   H         1 RES1   0.0000
   310 H185      5.8209    3.0144    1.0706   H         1 RES1   0.0000
   311 H186      3.4699    4.7193    0.1294   H         1 RES1   0.0000
   312 H187      5.0836    4.6688   -0.5706   H         1 RES1   0.0000
   313 H188      4.8574    5.3207    1.0467   H         1 RES1   0.0000
   314 H189     -0.6402    2.8106    2.0695   H         1 RES1   0.0000
   315 H190     -1.0470    2.8014    3.7872   H         1 RES1   0.0000
   316 H191     -2.5579    2.2335    4.8317   H         1 RES1   0.0000
   317 H192     -4.0952    1.4037    4.9225   H         1 RES1   0.0000
   318 H193     -4.0506    3.8911    5.2951   H         1 RES1   0.0000
   319 H194     -5.3218    3.2701    4.2791   H         1 RES1   0.0000
   320 H195     -2.8630    4.8074    3.3578   H         1 RES1   0.0000
   321 H196     -4.5351    5.3474    3.4151   H         1 RES1   0.0000
   322 H197     -5.0888    3.4281    1.7962   H         1 RES1   0.0000
   323 H198     -3.3493    3.2034    1.6318   H         1 RES1   0.0000
   324 H199     -3.2890    5.6774    0.8583   H         1 RES1   0.0000
   325 H200     -5.0170    5.5083    0.6347   H         1 RES1   0.0000
   326 H201     -2.9463    3.5583   -0.5080   H         1 RES1   0.0000
   327 H202     -3.7253    4.8395   -1.4327   H         1 RES1   0.0000
   328 H203     -4.6926    3.5192   -0.7918   H         1 RES1   0.0000
   329 H204     -3.9814   -0.3578    2.2646   H         1 RES1   0.0000
   330 H205     -4.2602    1.0905    1.3005   H         1 RES1   0.0000
   331 H206     -5.8405    1.8493    3.2070   H         1 RES1   0.0000
   332 H207     -5.7765    0.2010    3.8017   H         1 RES1   0.0000
   333 H208     -6.7141    1.1638    1.0618   H         1 RES1   0.0000
   334 H209     -7.7453    0.7152    2.4158   H         1 RES1   0.0000
   335 H210     -5.9118   -1.1752    0.8883   H         1 RES1   0.0000
   336 H211     -7.6511   -1.0165    0.6643   H         1 RES1   0.0000
   337 H212     -8.0422   -1.7633    2.9948   H         1 RES1   0.0000
   338 H213     -6.3024   -1.9354    3.2313   H         1 RES1   0.0000
   339 H214     -7.3096   -4.1288    2.6817   H         1 RES1   0.0000
   340 H215     -6.2433   -3.6211    1.3712   H         1 RES1   0.0000
   341 H216     -7.9920   -3.4713    1.1998   H         1 RES1   0.0000
@<TRIPOS>BOND
     1     1    16    1
     2     1    19    1
     3     1   101    1
     4     1   104    1
     5     1   186    1
     6     1   189    1
     7     1   271    1
     8     1   274    1
     9     2     3    1
    10     2    33    1
    11     2    34    1
    12     2    35    1
    13     3     4    1
    14     3    36    1
    15     3    37    1
    16     4     5    1
    17     4    38    1
    18     4    39    1
    19     5     6    1
    20     5    40    1
    21     5    41    1
    22     6     7    1
    23     6    42    1
    24     6    43    1
    25     7     8    1
    26     7    44    1
    27     7    45    1
    28     8     9    1
    29     8    15    1
    30     9    10    1
    31     9    46    1
    32     9    47    1
    33    10    11    1
    34    10    48    1
    35    10    49    1
    36    11    12    1
    37    11    50    1
    38    11    51    1
    39    12    13    1
    40    12    52    1
    41    12    53    1
    42    13    14    1
    43    13    54    1
    44    13    55    1
    45    14    56    1
    46    14    57    1
    47    14    58    1
    48    15    16    2
    49    15    17    1
    50    17    18    1
    51    17    59    1
    52    17    60    1
    53    18    19    2
    54    18    20    1
    55    20    21    1
    56    20    27    1
    57    21    22    1
    58    21    61    1
    59    21    62    1
    60    22    23    1
    61    22    63    1
    62    22    64    1
    63    23    24    1
    64    23    65    1
    65    23    66    1
    66    24    25    1
    67    24    67    1
    68    24    68    1
    69    25    26    1
    70    25    69    1
    71    25    70    1
    72    26    71    1
    73    26    72    1
    74    26    73    1
    75    27    28    1
    76    27    74    1
    77    27    75    1
    78    28    29    1
    79    28    76    1
    80    28    77    1
    81    29    30    1
    82    29    78    1
    83    29    79    1
    84    30    31    1
    85    30    80    1
    86    30    81    1
    87    31    32    1
    88    31    82    1
    89    31    83    1
    90    32    84    1
    91    32    85    1
    92    32    86    1
    93    87    88    1
    94    87   118    1
    95    87   119    1
    96    87   120    1
    97    88    89    1
    98    88   121    1
    99    88   122    1
   100    89    90    1
   101    89   123    1
   102    89   124    1
   103    90    91    1
   104    90   125    1
   105    90   126    1
   106    91    92    1
   107    91   127    1
   108    91   128    1
   109    92    93    1
   110    92   129    1
   111    92   130    1
   112    93    94    1
   113    93   100    1
   114    94    95    1
   115    94   131    1
   116    94   132    1
   117    95    96    1
   118    95   133    1
   119    95   134    1
   120    96    97    1
   121    96   135    1
   122    96   136    1
   123    97    98    1
   124    97   137    1
   125    97   138    1
   126    98    99    1
   127    98   139    1
   128    98   140    1
   129    99   141    1
   130    99   142    1
   131    99   143    1
   132   100   101    2
   133   100   102    1
   134   102   103    1
   135   102   144    1
   136   102   145    1
   137   103   104    2
   138   103   105    1
   139   105   106    1
   140   105   112    1
   141   106   107    1
   142   106   146    1
   143   106   147    1
   144   107   108    1
   145   107   148    1
   146   107   149    1
   147   108   109    1
   148   108   150    1
   149   108   151    1
   150   109   110    1
   151   109   152    1
   152   109   153    1
   153   110   111    1
   154   110   154    1
   155   110   155    1
   156   111   156    1
   157   111   157    1
   158   111   158    1
   159   112   113    1
   160   112   159    1
   161   112   160    1
   162   113   114    1
   163   113   161    1
   164   113   162    1
   165   114   115    1
   166   114   163    1
   167   114   164    1
   168   115   116    1
   169   115   165    1
   170   115   166    1
   171   116   117    1
   172   116   167    1
   173   116   168    1
   174   117   169    1
   175   117   170    1
   176   117   171    1
   177   172   173    1
   178   172   203    1
   179   172   204    1
   180   172   205    1
   181   173   174    1
   182   173   206    1
   183   173   207    1
   184   174   175    1
   185   174   208    1
   186   174   209    1
   187   175   176    1
   188   175   210    1
   189   175   211    1
   190   176   177    1
   191   176   212    1
   192   176   213    1
   193   177   178    1
   194   177   214    1
   195   177   215    1
   196   178   179    1
   197   178   185    1
   198   179   180    1
   199   179   216    1
   200   179   217    1
   201   180   181    1
   202   180   218    1
   203   180   219    1
   204   181   182    1
   205   181   220    1
   206   181   221    1
   207   182   183    1
   208   182   222    1
   209   182   223    1
   210   183   184    1
   211   183   224    1
   212   183   225    1
   213   184   226    1
   214   184   227    1
   215   184   228    1
   216   185   186    2
   217   185   187    1
   218   187   188    1
   219   187   229    1
   220   187   230    1
   221   188   189    2
   222   188   190    1
   223   190   191    1
   224   190   197    1
   225   191   192    1
   226   191   231    1
   227   191   232    1
   228   192   193    1
   229   192   233    1
   230   192   234    1
   231   193   194    1
   232   193   235    1
   233   193   236    1
   234   194   195    1
   235   194   237    1
   236   194   238    1
   237   195   196    1
   238   195   239    1
   239   195   240    1
   240   196   241    1
   241   196   242    1
   242   196   243    1
   243   197   198    1
   244   197   244    1
   245   197   245    1
   246   198   199    1
   247   198   246    1
   248   198   247    1
   249   199   200    1
   250   199   248    1
   251   199   249    1
   252   200   201    1
   253   200   250    1
   254   200   251    1
   255   201   202    1
   256   201   252    1
   257   201   253    1
   258   202   254    1
   259   202   255    1
   260   202   256    1
   261   257   258    1
   262   257   288    1
   263   257   289    1
   264   257   290    1
   265   258   259    1
   266   258   291    1
   267   258   292    1
   268   259   260    1
   269   259   293    1
   270   259   294    1
   271   260   261    1
   272   260   295    1
   273   260   296    1
   274   261   262    1
   275   261   297    1
   276   261   298    1
   277   262   263    1
   278   262   299    1
   279   262   300    1
   280   263   264    1
   281   263   270    1
   282   264   265    1
   283   264   301    1
   284   264   302    1
   285   265   266    1
   286   265   303    1
   287   265   304    1
   288   266   267    1
   289   266   305    1
   290   266   306    1
   291   267   268    1
   292   267   307    1
   293   267   308    1
   294   268   269    1
   295   268   309    1
   296   268   310    1
   297   269   311    1
   298   269   312    1
   299   269   313    1
   300   270   271    2
   301   270   272    1
   302   272   273    1
   303   272   314    1
   304   272   315    1
   305   273   274    2
   306   273   275    1
   307   275   276    1
   308   275   282    1
   309   276   277    1
   310   276   316    1
   311   276   317    1
   312   277   278    1
   313   277   318    1
   314   277   319    1
   315   278   279    1
   316   278   320    1
   317   278   321    1
   318   279   280    1
   319   279   322    1
   320   279   323    1
   321   280   281    1
   322   280   324    1
   323   280   325    1
   324   281   326    1
   325   281   327    1
   326   281   328    1
   327   282   283    1
   328   282   329    1
   329   282   330    1
   330   283   284    1
   331   283   331    1
   332   283   332    1
   333   284   285    1
   334   284   333    1
   335   284   334    1
   336   285   286    1
   337   285   335    1
   338   285   336    1
   339   286   287    1
   340   286   337    1
   341   286   338    1
   342   287   339    1
   343   287   340    1
   344   287   341    1
@<TRIPOS>SUBSTRUCTURE
     1 RES1      341 GROUP             0 ****  ****    0  
