@<TRIPOS>MOLECULE
ICIGOT_geomtry_0_nunpairedes_0_charge_3 Charge: 3 Unpaired_Electrons: 6 XTB_Unpaired_Electrons: 0 XTB_Charge: 3
   341   344     1     0     0
SMALL
NoCharges
****
Generated from Architector

@<TRIPOS>ATOM
     1 Tb1       0.0714   -0.2875   -0.1000   Tb        1 RES1   0.0000
     2 C1       -3.3208    6.5161    4.2489   C.3       1 RES1   0.0000
     3 C2       -3.8603    5.7530    5.4552   C.3       1 RES1   0.0000
     4 C3       -4.5408    4.4399    5.0619   C.3       1 RES1   0.0000
     5 C4       -4.9401    3.6245    6.2893   C.3       1 RES1   0.0000
     6 C5       -5.7343    2.3521    5.9844   C.3       1 RES1   0.0000
     7 C6       -4.9529    1.1247    5.4879   C.3       1 RES1   0.0000
     8 C7       -4.6871    1.1005    3.9770   C.3       1 RES1   0.0000
     9 C8       -4.5449   -0.3211    3.3818   C.3       1 RES1   0.0000
    10 N1       -3.1907   -0.6004    2.9324   N.am      1 RES1   0.0000
    11 C9       -2.2233   -0.8289    3.9902   C.3       1 RES1   0.0000
    12 C10      -2.7491   -0.6589    1.6791   C.2       1 RES1   0.0000
    13 O1       -1.5199   -0.7322    1.4547   O.2       1 RES1   0.0000
    14 C11      -3.7375   -0.7468    0.5280   C.3       1 RES1   0.0000
    15 C12      -3.8561    0.5699   -0.2814   C.3       1 RES1   0.0000
    16 C13      -4.6652    0.3716   -1.5735   C.3       1 RES1   0.0000
    17 C14      -5.2637    1.6597   -2.1401   C.3       1 RES1   0.0000
    18 C15      -5.9845    1.4566   -3.4821   C.3       1 RES1   0.0000
    19 C16      -5.1557    1.5683   -4.7653   C.3       1 RES1   0.0000
    20 C17      -4.2320    0.4060   -5.1046   C.3       1 RES1   0.0000
    21 C18      -3.2386   -1.7500   -0.5226   C.2       1 RES1   0.0000
    22 O2       -2.0558   -1.6973   -0.8913   O.2       1 RES1   0.0000
    23 N2       -4.1573   -2.5284   -1.1091   N.am      1 RES1   0.0000
    24 C19      -3.9077   -3.0102   -2.4544   C.3       1 RES1   0.0000
    25 C20      -5.4945   -2.8087   -0.5912   C.3       1 RES1   0.0000
    26 C21      -5.4756   -3.7961    0.5786   C.3       1 RES1   0.0000
    27 C22      -5.3741   -5.2562    0.1196   C.3       1 RES1   0.0000
    28 C23      -4.6581   -6.1379    1.1418   C.3       1 RES1   0.0000
    29 C24      -4.4560   -7.5556    0.6133   C.3       1 RES1   0.0000
    30 C25      -3.6154   -8.4074    1.5614   C.3       1 RES1   0.0000
    31 C26      -3.1703   -9.7299    0.9356   C.3       1 RES1   0.0000
    32 C27      -1.9668   -9.5811    0.0127   C.3       1 RES1   0.0000
    33 H1       -2.8852    7.4610    4.5631   H         1 RES1   0.0000
    34 H2       -4.1201    6.7228    3.5401   H         1 RES1   0.0000
    35 H3       -2.5409    5.9465    3.7424   H         1 RES1   0.0000
    36 H4       -4.5820    6.3787    5.9836   H         1 RES1   0.0000
    37 H5       -3.0337    5.5533    6.1433   H         1 RES1   0.0000
    38 H6       -3.8692    3.8566    4.4295   H         1 RES1   0.0000
    39 H7       -5.4403    4.6667    4.4815   H         1 RES1   0.0000
    40 H8       -5.5703    4.2587    6.9164   H         1 RES1   0.0000
    41 H9       -4.0553    3.3743    6.8774   H         1 RES1   0.0000
    42 H10      -6.5268    2.5966    5.2736   H         1 RES1   0.0000
    43 H11      -6.2209    2.0568    6.9153   H         1 RES1   0.0000
    44 H12      -4.0151    1.0395    6.0420   H         1 RES1   0.0000
    45 H13      -5.5512    0.2469    5.7423   H         1 RES1   0.0000
    46 H14      -3.7926    1.6707    3.7226   H         1 RES1   0.0000
    47 H15      -5.5237    1.5986    3.4859   H         1 RES1   0.0000
    48 H16      -4.8327   -1.0836    4.1098   H         1 RES1   0.0000
    49 H17      -5.2304   -0.4064    2.5451   H         1 RES1   0.0000
    50 H18      -2.4522   -0.2069    4.8488   H         1 RES1   0.0000
    51 H19      -1.2294   -0.5899    3.6125   H         1 RES1   0.0000
    52 H20      -2.2610   -1.8757    4.2943   H         1 RES1   0.0000
    53 H21      -4.7131   -1.0261    0.9067   H         1 RES1   0.0000
    54 H22      -2.8393    0.8960   -0.5276   H         1 RES1   0.0000
    55 H23      -4.3378    1.3226    0.3426   H         1 RES1   0.0000
    56 H24      -5.5150   -0.2811   -1.3798   H         1 RES1   0.0000
    57 H25      -4.0362   -0.1166   -2.3158   H         1 RES1   0.0000
    58 H26      -4.5154    2.4441   -2.2333   H         1 RES1   0.0000
    59 H27      -6.0048    2.0088   -1.4176   H         1 RES1   0.0000
    60 H28      -6.7496    2.2331   -3.5419   H         1 RES1   0.0000
    61 H29      -6.5039    0.4974   -3.4602   H         1 RES1   0.0000
    62 H30      -4.5886    2.4977   -4.7360   H         1 RES1   0.0000
    63 H31      -5.8690    1.6617   -5.5835   H         1 RES1   0.0000
    64 H32      -3.4461    0.2546   -4.3707   H         1 RES1   0.0000
    65 H33      -3.7591    0.6013   -6.0628   H         1 RES1   0.0000
    66 H34      -4.7984   -0.5139   -5.2021   H         1 RES1   0.0000
    67 H35      -2.8989   -2.7294   -2.7390   H         1 RES1   0.0000
    68 H36      -4.6322   -2.5405   -3.1229   H         1 RES1   0.0000
    69 H37      -4.0266   -4.0884   -2.5312   H         1 RES1   0.0000
    70 H38      -6.0769   -3.2353   -1.4061   H         1 RES1   0.0000
    71 H39      -6.0096   -1.8925   -0.2977   H         1 RES1   0.0000
    72 H40      -6.3894   -3.6635    1.1592   H         1 RES1   0.0000
    73 H41      -4.6310   -3.5550    1.2274   H         1 RES1   0.0000
    74 H42      -4.8315   -5.3170   -0.8258   H         1 RES1   0.0000
    75 H43      -6.3750   -5.6518   -0.0603   H         1 RES1   0.0000
    76 H44      -5.2333   -6.1698    2.0689   H         1 RES1   0.0000
    77 H45      -3.6815   -5.7005    1.3709   H         1 RES1   0.0000
    78 H46      -3.9696   -7.5120   -0.3623   H         1 RES1   0.0000
    79 H47      -5.4281   -8.0303    0.4795   H         1 RES1   0.0000
    80 H48      -4.1995   -8.6160    2.4570   H         1 RES1   0.0000
    81 H49      -2.7320   -7.8504    1.8824   H         1 RES1   0.0000
    82 H50      -4.0033  -10.1556    0.3766   H         1 RES1   0.0000
    83 H51      -2.9150  -10.4327    1.7301   H         1 RES1   0.0000
    84 H52      -2.1651   -8.8685   -0.7846   H         1 RES1   0.0000
    85 H53      -1.7273  -10.5378   -0.4411   H         1 RES1   0.0000
    86 H54      -1.0957   -9.2454    0.5718   H         1 RES1   0.0000
    87 C28       1.8201    9.0162   -0.3287   C.3       1 RES1   0.0000
    88 C29       0.6597    9.0859   -1.3185   C.3       1 RES1   0.0000
    89 C30       0.5885    7.8148   -2.1618   C.3       1 RES1   0.0000
    90 C31      -0.4564    7.8516   -3.2743   C.3       1 RES1   0.0000
    91 C32      -0.1992    6.7808   -4.3392   C.3       1 RES1   0.0000
    92 C33      -0.5355    5.3429   -3.9163   C.3       1 RES1   0.0000
    93 C34      -0.5718    4.4384   -5.1591   C.3       1 RES1   0.0000
    94 C35      -0.3253    2.9180   -5.0155   C.3       1 RES1   0.0000
    95 N3       -0.8668    2.2727   -3.8280   N.am      1 RES1   0.0000
    96 C36      -2.1568    2.7351   -3.3587   C.3       1 RES1   0.0000
    97 C37      -0.3076    1.3020   -3.1089   C.2       1 RES1   0.0000
    98 O3       -0.8639    0.8910   -2.0720   O.2       1 RES1   0.0000
    99 C38       1.0176    0.6549   -3.5022   C.3       1 RES1   0.0000
   100 C39       2.0468    1.0113   -2.4016   C.3       1 RES1   0.0000
   101 C40       3.2414    0.0738   -2.3146   C.3       1 RES1   0.0000
   102 C41       4.2041    0.4482   -1.1730   C.3       1 RES1   0.0000
   103 C42       5.5377    0.9835   -1.7031   C.3       1 RES1   0.0000
   104 C43       6.6498    1.0168   -0.6600   C.3       1 RES1   0.0000
   105 C44       7.2596   -0.3423   -0.3258   C.3       1 RES1   0.0000
   106 C45       0.8421   -0.8633   -3.4349   C.2       1 RES1   0.0000
   107 O4        0.4784   -1.3544   -2.3494   O.2       1 RES1   0.0000
   108 N4        1.1984   -1.6191   -4.4694   N.am      1 RES1   0.0000
   109 C46       1.2599   -3.0549   -4.2735   C.3       1 RES1   0.0000
   110 C47       1.5569   -1.1694   -5.8053   C.3       1 RES1   0.0000
   111 C48       0.3692   -1.1201   -6.7743   C.3       1 RES1   0.0000
   112 C49      -0.1650   -2.4979   -7.2049   C.3       1 RES1   0.0000
   113 C50      -1.5073   -2.8413   -6.5517   C.3       1 RES1   0.0000
   114 C51      -1.8947   -4.3213   -6.6541   C.3       1 RES1   0.0000
   115 C52      -3.3555   -4.5169   -6.2378   C.3       1 RES1   0.0000
   116 C53      -3.8275   -5.9741   -6.2061   C.3       1 RES1   0.0000
   117 C54      -3.4831   -6.7098   -4.9156   C.3       1 RES1   0.0000
   118 H55       1.8842    9.9342    0.2468   H         1 RES1   0.0000
   119 H56       2.7613    8.8813   -0.8591   H         1 RES1   0.0000
   120 H57       1.6994    8.1847    0.3658   H         1 RES1   0.0000
   121 H58       0.8180    9.9370   -1.9824   H         1 RES1   0.0000
   122 H59      -0.2810    9.2501   -0.7853   H         1 RES1   0.0000
   123 H60       0.4008    6.9592   -1.5052   H         1 RES1   0.0000
   124 H61       1.5669    7.6778   -2.6309   H         1 RES1   0.0000
   125 H62      -0.4050    8.8234   -3.7667   H         1 RES1   0.0000
   126 H63      -1.4657    7.7561   -2.8674   H         1 RES1   0.0000
   127 H64       0.8522    6.8288   -4.6282   H         1 RES1   0.0000
   128 H65      -0.7882    7.0277   -5.2213   H         1 RES1   0.0000
   129 H66      -1.5129    5.3545   -3.4308   H         1 RES1   0.0000
   130 H67       0.1974    4.9951   -3.1874   H         1 RES1   0.0000
   131 H68       0.2107    4.7789   -5.8398   H         1 RES1   0.0000
   132 H69      -1.5189    4.6033   -5.6725   H         1 RES1   0.0000
   133 H70       0.7486    2.7466   -5.0446   H         1 RES1   0.0000
   134 H71      -0.7566    2.4408   -5.9056   H         1 RES1   0.0000
   135 H72      -2.6932    3.2153   -4.1678   H         1 RES1   0.0000
   136 H73      -2.0174    3.4377   -2.5405   H         1 RES1   0.0000
   137 H74      -2.7219    1.8820   -2.9936   H         1 RES1   0.0000
   138 H75       1.3689    0.9772   -4.4735   H         1 RES1   0.0000
   139 H76       1.5278    0.9592   -1.4147   H         1 RES1   0.0000
   140 H77       2.4073    2.0191   -2.5935   H         1 RES1   0.0000
   141 H78       3.7818    0.0871   -3.2609   H         1 RES1   0.0000
   142 H79       2.8736   -0.9327   -2.1398   H         1 RES1   0.0000
   143 H80       4.3943   -0.4338   -0.5609   H         1 RES1   0.0000
   144 H81       3.7366    1.1792   -0.5057   H         1 RES1   0.0000
   145 H82       5.3891    1.9973   -2.0781   H         1 RES1   0.0000
   146 H83       5.8554    0.3764   -2.5497   H         1 RES1   0.0000
   147 H84       6.2519    1.4817    0.2407   H         1 RES1   0.0000
   148 H85       7.4483    1.6536   -1.0375   H         1 RES1   0.0000
   149 H86       6.5047   -1.1118   -0.1709   H         1 RES1   0.0000
   150 H87       7.8488   -0.2637    0.5834   H         1 RES1   0.0000
   151 H88       7.9291   -0.6710   -1.1198   H         1 RES1   0.0000
   152 H89       1.2258   -3.2501   -3.2046   H         1 RES1   0.0000
   153 H90       2.1971   -3.4251   -4.6875   H         1 RES1   0.0000
   154 H91       0.4324   -3.5589   -4.7662   H         1 RES1   0.0000
   155 H92       2.3138   -1.8534   -6.1912   H         1 RES1   0.0000
   156 H93       2.0277   -0.1887   -5.7639   H         1 RES1   0.0000
   157 H94       0.7019   -0.5680   -7.6525   H         1 RES1   0.0000
   158 H95      -0.4329   -0.5387   -6.3153   H         1 RES1   0.0000
   159 H96       0.5745   -3.2675   -6.9840   H         1 RES1   0.0000
   160 H97      -0.3043   -2.5053   -8.2848   H         1 RES1   0.0000
   161 H98      -2.2818   -2.2434   -7.0387   H         1 RES1   0.0000
   162 H99      -1.4922   -2.5549   -5.4945   H         1 RES1   0.0000
   163 H100     -1.2355   -4.9185   -6.0190   H         1 RES1   0.0000
   164 H101     -1.7721   -4.6733   -7.6795   H         1 RES1   0.0000
   165 H102     -3.9795   -3.9680   -6.9455   H         1 RES1   0.0000
   166 H103     -3.5118   -4.0696   -5.2522   H         1 RES1   0.0000
   167 H104     -3.4006   -6.5139   -7.0511   H         1 RES1   0.0000
   168 H105     -4.9123   -5.9873   -6.3251   H         1 RES1   0.0000
   169 H106     -2.4085   -6.7552   -4.7568   H         1 RES1   0.0000
   170 H107     -3.8607   -7.7284   -4.9558   H         1 RES1   0.0000
   171 H108     -3.9425   -6.2187   -4.0581   H         1 RES1   0.0000
   172 C55       5.8876   -1.7541    2.7890   C.3       1 RES1   0.0000
   173 C56       5.5469   -1.0816    4.1122   C.3       1 RES1   0.0000
   174 C57       6.6112   -0.0788    4.5578   C.3       1 RES1   0.0000
   175 C58       6.9482    0.9993    3.5294   C.3       1 RES1   0.0000
   176 C59       5.7682    1.8612    3.0874   C.3       1 RES1   0.0000
   177 C60       5.1068    2.5928    4.2493   C.3       1 RES1   0.0000
   178 C61       4.0577    3.5898    3.7709   C.3       1 RES1   0.0000
   179 C62       2.7359    2.9087    3.4180   C.3       1 RES1   0.0000
   180 N5        1.9688    3.6905    2.4591   N.am      1 RES1   0.0000
   181 C63       1.7951    5.1029    2.7726   C.3       1 RES1   0.0000
   182 C64       1.4195    3.0978    1.3986   C.2       1 RES1   0.0000
   183 O5        1.4482    1.8715    1.1963   O.2       1 RES1   0.0000
   184 C65       0.7761    4.0152    0.3595   C.3       1 RES1   0.0000
   185 C66       1.6137    3.8176   -0.9308   C.3       1 RES1   0.0000
   186 C67       2.5777    4.9563   -1.2979   C.3       1 RES1   0.0000
   187 C68       3.6223    4.5075   -2.3284   C.3       1 RES1   0.0000
   188 C69       3.0742    4.3260   -3.7506   C.3       1 RES1   0.0000
   189 C70       4.0535    3.5173   -4.6048   C.3       1 RES1   0.0000
   190 C71       3.5741    3.2560   -6.0276   C.3       1 RES1   0.0000
   191 C72      -0.6619    3.5320    0.1932   C.2       1 RES1   0.0000
   192 O6       -0.8847    2.3249   -0.0035   O.2       1 RES1   0.0000
   193 N6       -1.6468    4.4385    0.2897   N.am      1 RES1   0.0000
   194 C73      -1.4414    5.8402    0.6159   C.3       1 RES1   0.0000
   195 C74      -3.0131    4.1146   -0.1258   C.3       1 RES1   0.0000
   196 C75      -4.0753    4.1995    0.9762   C.3       1 RES1   0.0000
   197 C76      -5.4791    4.4735    0.4169   C.3       1 RES1   0.0000
   198 C77      -6.5878    4.1095    1.4183   C.3       1 RES1   0.0000
   199 C78      -7.0127    2.6440    1.3250   C.3       1 RES1   0.0000
   200 C79      -8.2366    2.2922    2.1728   C.3       1 RES1   0.0000
   201 C80      -8.4517    0.7707    2.2693   C.3       1 RES1   0.0000
   202 C81      -8.5570    0.2735    3.7086   C.3       1 RES1   0.0000
   203 H109      5.1945   -2.5644    2.5708   H         1 RES1   0.0000
   204 H110      6.8943   -2.1608    2.8198   H         1 RES1   0.0000
   205 H111      5.8272   -1.0387    1.9753   H         1 RES1   0.0000
   206 H112      5.4631   -1.8415    4.8921   H         1 RES1   0.0000
   207 H113      4.5783   -0.5866    4.0178   H         1 RES1   0.0000
   208 H114      7.5259   -0.6278    4.7852   H         1 RES1   0.0000
   209 H115      6.2846    0.3886    5.4879   H         1 RES1   0.0000
   210 H116      7.3871    0.5278    2.6508   H         1 RES1   0.0000
   211 H117      7.7095    1.6481    3.9612   H         1 RES1   0.0000
   212 H118      5.0340    1.2512    2.5585   H         1 RES1   0.0000
   213 H119      6.1383    2.6076    2.3799   H         1 RES1   0.0000
   214 H120      5.8770    3.1354    4.7954   H         1 RES1   0.0000
   215 H121      4.6328    1.8872    4.9309   H         1 RES1   0.0000
   216 H122      4.4349    4.1024    2.8866   H         1 RES1   0.0000
   217 H123      3.8958    4.3286    4.5566   H         1 RES1   0.0000
   218 H124      2.1410    2.7751    4.3259   H         1 RES1   0.0000
   219 H125      2.8946    1.9332    2.9553   H         1 RES1   0.0000
   220 H126      2.3359    5.7397    2.0714   H         1 RES1   0.0000
   221 H127      2.1704    5.2973    3.7733   H         1 RES1   0.0000
   222 H128      0.7451    5.3979    2.7803   H         1 RES1   0.0000
   223 H129      0.8047    5.0541    0.6504   H         1 RES1   0.0000
   224 H130      2.2249    2.9335   -0.7623   H         1 RES1   0.0000
   225 H131      0.9451    3.6108   -1.7668   H         1 RES1   0.0000
   226 H132      3.1045    5.2953   -0.4038   H         1 RES1   0.0000
   227 H133      2.0519    5.8087   -1.7157   H         1 RES1   0.0000
   228 H134      4.0816    3.5779   -1.9826   H         1 RES1   0.0000
   229 H135      4.4150    5.2574   -2.3618   H         1 RES1   0.0000
   230 H136      2.9196    5.3070   -4.2077   H         1 RES1   0.0000
   231 H137      2.1041    3.8239   -3.7250   H         1 RES1   0.0000
   232 H138      4.2470    2.5561   -4.1198   H         1 RES1   0.0000
   233 H139      4.9964    4.0618   -4.6518   H         1 RES1   0.0000
   234 H140      2.7352    2.5607   -6.0533   H         1 RES1   0.0000
   235 H141      4.3811    2.8211   -6.6088   H         1 RES1   0.0000
   236 H142      3.2728    4.1765   -6.5185   H         1 RES1   0.0000
   237 H143     -0.7680    5.9661    1.4611   H         1 RES1   0.0000
   238 H144     -2.3935    6.2826    0.9014   H         1 RES1   0.0000
   239 H145     -1.0684    6.3898   -0.2482   H         1 RES1   0.0000
   240 H146     -2.9839    3.1039   -0.5222   H         1 RES1   0.0000
   241 H147     -3.2772    4.8103   -0.9293   H         1 RES1   0.0000
   242 H148     -3.8270    4.9942    1.6777   H         1 RES1   0.0000
   243 H149     -4.0805    3.2701    1.5430   H         1 RES1   0.0000
   244 H150     -5.6308    3.9159   -0.5088   H         1 RES1   0.0000
   245 H151     -5.5636    5.5313    0.1670   H         1 RES1   0.0000
   246 H152     -7.4535    4.7504    1.2468   H         1 RES1   0.0000
   247 H153     -6.2327    4.3099    2.4313   H         1 RES1   0.0000
   248 H154     -6.1734    2.0148    1.6330   H         1 RES1   0.0000
   249 H155     -7.2313    2.3955    0.2869   H         1 RES1   0.0000
   250 H156     -9.1164    2.7626    1.7368   H         1 RES1   0.0000
   251 H157     -8.1202    2.7091    3.1732   H         1 RES1   0.0000
   252 H158     -7.6185    0.2527    1.7847   H         1 RES1   0.0000
   253 H159     -9.3555    0.4801    1.7357   H         1 RES1   0.0000
   254 H160     -7.7111    0.6169    4.2996   H         1 RES1   0.0000
   255 H161     -8.5704   -0.8148    3.7414   H         1 RES1   0.0000
   256 H162     -9.4659    0.6365    4.1792   H         1 RES1   0.0000
   257 C82      -1.1845    3.1097    3.4719   C.3       1 RES1   0.0000
   258 C83      -1.1428    2.2815    4.7486   C.3       1 RES1   0.0000
   259 C84      -0.7642    3.0507    6.0107   C.3       1 RES1   0.0000
   260 C85      -0.7845    2.1545    7.2566   C.3       1 RES1   0.0000
   261 C86      -0.0181    0.8340    7.1216   C.3       1 RES1   0.0000
   262 C87       1.4440    1.0127    6.7031   C.3       1 RES1   0.0000
   263 C88       2.0695   -0.2615    6.1355   C.3       1 RES1   0.0000
   264 C89       1.5114   -0.5634    4.7484   C.3       1 RES1   0.0000
   265 N7        2.1218   -1.6956    4.0455   N.am      1 RES1   0.0000
   266 C90       2.6470   -2.7611    4.8777   C.3       1 RES1   0.0000
   267 C91       1.8641   -1.7926    2.7312   C.2       1 RES1   0.0000
   268 O7        1.2958   -0.8799    2.1065   O.2       1 RES1   0.0000
   269 C92       2.1859   -3.1285    2.0784   C.3       1 RES1   0.0000
   270 C93       0.9440   -3.9933    2.4324   C.3       1 RES1   0.0000
   271 C94       0.5949   -5.1653    1.5131   C.3       1 RES1   0.0000
   272 C95      -0.3237   -4.7459    0.3677   C.3       1 RES1   0.0000
   273 C96      -0.8223   -5.9536   -0.4236   C.3       1 RES1   0.0000
   274 C97      -1.7848   -5.5331   -1.5295   C.3       1 RES1   0.0000
   275 C98      -1.0818   -4.7503   -2.6321   C.3       1 RES1   0.0000
   276 C99       2.4334   -3.0796    0.5782   C.2       1 RES1   0.0000
   277 O8        1.8778   -2.2425   -0.1577   O.2       1 RES1   0.0000
   278 N8        3.2408   -4.0307    0.0817   N.am      1 RES1   0.0000
   279 C100      4.1403   -4.8991    0.8312   C.3       1 RES1   0.0000
   280 C101      3.3220   -4.2283   -1.3661   C.3       1 RES1   0.0000
   281 C102      4.2011   -3.2108   -2.1040   C.3       1 RES1   0.0000
   282 C103      5.1491   -3.8199   -3.1345   C.3       1 RES1   0.0000
   283 C104      5.9971   -2.7313   -3.8121   C.3       1 RES1   0.0000
   284 C105      5.3064   -2.1096   -5.0287   C.3       1 RES1   0.0000
   285 C106      6.2218   -1.2721   -5.9284   C.3       1 RES1   0.0000
   286 C107      6.5916    0.1189   -5.4000   C.3       1 RES1   0.0000
   287 C108      7.9571    0.1759   -4.7254   C.3       1 RES1   0.0000
   288 H163     -0.2746    3.6889    3.3872   H         1 RES1   0.0000
   289 H164     -2.0282    3.7922    3.4661   H         1 RES1   0.0000
   290 H165     -1.2656    2.4537    2.6017   H         1 RES1   0.0000
   291 H166     -0.4226    1.4824    4.5899   H         1 RES1   0.0000
   292 H167     -2.1234    1.8416    4.9130   H         1 RES1   0.0000
   293 H168     -1.4774    3.8580    6.1662   H         1 RES1   0.0000
   294 H169      0.2163    3.5161    5.8956   H         1 RES1   0.0000
   295 H170     -1.8234    1.9138    7.5018   H         1 RES1   0.0000
   296 H171     -0.3773    2.7244    8.0914   H         1 RES1   0.0000
   297 H172     -0.5484    0.1963    6.4135   H         1 RES1   0.0000
   298 H173     -0.0585    0.3155    8.0813   H         1 RES1   0.0000
   299 H174      2.0208    1.3233    7.5713   H         1 RES1   0.0000
   300 H175      1.5323    1.7998    5.9557   H         1 RES1   0.0000
   301 H176      1.8444   -1.0853    6.8123   H         1 RES1   0.0000
   302 H177      3.1504   -0.1251    6.0840   H         1 RES1   0.0000
   303 H178      1.6142    0.3023    4.0889   H         1 RES1   0.0000
   304 H179      0.4469   -0.7956    4.8463   H         1 RES1   0.0000
   305 H180      1.8404   -3.3738    5.2890   H         1 RES1   0.0000
   306 H181      3.2240   -2.3422    5.6979   H         1 RES1   0.0000
   307 H182      3.3261   -3.4072    4.3349   H         1 RES1   0.0000
   308 H183      3.0680   -3.5351    2.5542   H         1 RES1   0.0000
   309 H184      0.0765   -3.3278    2.4422   H         1 RES1   0.0000
   310 H185      1.0803   -4.3712    3.4450   H         1 RES1   0.0000
   311 H186      0.0546   -5.9087    2.1048   H         1 RES1   0.0000
   312 H187      1.4854   -5.6489    1.1124   H         1 RES1   0.0000
   313 H188      0.1917   -4.0497   -0.2965   H         1 RES1   0.0000
   314 H189     -1.1932   -4.2158    0.7733   H         1 RES1   0.0000
   315 H190     -1.3344   -6.6377    0.2566   H         1 RES1   0.0000
   316 H191      0.0238   -6.4874   -0.8610   H         1 RES1   0.0000
   317 H192     -2.5612   -4.9173   -1.0742   H         1 RES1   0.0000
   318 H193     -2.2465   -6.4215   -1.9636   H         1 RES1   0.0000
   319 H194     -0.7870   -3.7676   -2.2649   H         1 RES1   0.0000
   320 H195     -1.7360   -4.6163   -3.4904   H         1 RES1   0.0000
   321 H196     -0.2045   -5.3037   -2.9661   H         1 RES1   0.0000
   322 H197      3.8948   -4.9949    1.8828   H         1 RES1   0.0000
   323 H198      5.1683   -4.5399    0.7323   H         1 RES1   0.0000
   324 H199      4.0974   -5.9082    0.4236   H         1 RES1   0.0000
   325 H200      2.3006   -4.2113   -1.7492   H         1 RES1   0.0000
   326 H201      3.7199   -5.2288   -1.5267   H         1 RES1   0.0000
   327 H202      4.7888   -2.6512   -1.3753   H         1 RES1   0.0000
   328 H203      3.5608   -2.5087   -2.6249   H         1 RES1   0.0000
   329 H204      4.5672   -4.3447   -3.8958   H         1 RES1   0.0000
   330 H205      5.8035   -4.5492   -2.6532   H         1 RES1   0.0000
   331 H206      6.9301   -3.1812   -4.1505   H         1 RES1   0.0000
   332 H207      6.2427   -1.9570   -3.0810   H         1 RES1   0.0000
   333 H208      4.9142   -2.9255   -5.6416   H         1 RES1   0.0000
   334 H209      4.4574   -1.5010   -4.7061   H         1 RES1   0.0000
   335 H210      5.7125   -1.1552   -6.8861   H         1 RES1   0.0000
   336 H211      7.1310   -1.8406   -6.1163   H         1 RES1   0.0000
   337 H212      6.6025    0.8222   -6.2333   H         1 RES1   0.0000
   338 H213      5.8228    0.4642   -4.7051   H         1 RES1   0.0000
   339 H214      8.0601   -0.6020   -3.9736   H         1 RES1   0.0000
   340 H215      8.1005    1.1431   -4.2481   H         1 RES1   0.0000
   341 H216      8.7469    0.0444   -5.4604   H         1 RES1   0.0000
@<TRIPOS>BOND
     1     1    13    1
     2     1    22    1
     3     1    98    1
     4     1   107    1
     5     1   183    1
     6     1   192    1
     7     1   268    1
     8     1   277    1
     9     2     3    1
    10     2    33    1
    11     2    34    1
    12     2    35    1
    13     3     4    1
    14     3    36    1
    15     3    37    1
    16     4     5    1
    17     4    38    1
    18     4    39    1
    19     5     6    1
    20     5    40    1
    21     5    41    1
    22     6     7    1
    23     6    42    1
    24     6    43    1
    25     7     8    1
    26     7    44    1
    27     7    45    1
    28     8     9    1
    29     8    46    1
    30     8    47    1
    31     9    10    1
    32     9    48    1
    33     9    49    1
    34    10    11    1
    35    10    12    1
    36    11    50    1
    37    11    51    1
    38    11    52    1
    39    12    13    2
    40    12    14    1
    41    14    15    1
    42    14    21    1
    43    14    53    1
    44    15    16    1
    45    15    54    1
    46    15    55    1
    47    16    17    1
    48    16    56    1
    49    16    57    1
    50    17    18    1
    51    17    58    1
    52    17    59    1
    53    18    19    1
    54    18    60    1
    55    18    61    1
    56    19    20    1
    57    19    62    1
    58    19    63    1
    59    20    64    1
    60    20    65    1
    61    20    66    1
    62    21    22    2
    63    21    23    1
    64    23    24    1
    65    23    25    1
    66    24    67    1
    67    24    68    1
    68    24    69    1
    69    25    26    1
    70    25    70    1
    71    25    71    1
    72    26    27    1
    73    26    72    1
    74    26    73    1
    75    27    28    1
    76    27    74    1
    77    27    75    1
    78    28    29    1
    79    28    76    1
    80    28    77    1
    81    29    30    1
    82    29    78    1
    83    29    79    1
    84    30    31    1
    85    30    80    1
    86    30    81    1
    87    31    32    1
    88    31    82    1
    89    31    83    1
    90    32    84    1
    91    32    85    1
    92    32    86    1
    93    87    88    1
    94    87   118    1
    95    87   119    1
    96    87   120    1
    97    88    89    1
    98    88   121    1
    99    88   122    1
   100    89    90    1
   101    89   123    1
   102    89   124    1
   103    90    91    1
   104    90   125    1
   105    90   126    1
   106    91    92    1
   107    91   127    1
   108    91   128    1
   109    92    93    1
   110    92   129    1
   111    92   130    1
   112    93    94    1
   113    93   131    1
   114    93   132    1
   115    94    95    1
   116    94   133    1
   117    94   134    1
   118    95    96    1
   119    95    97    1
   120    96   135    1
   121    96   136    1
   122    96   137    1
   123    97    98    2
   124    97    99    1
   125    99   100    1
   126    99   106    1
   127    99   138    1
   128   100   101    1
   129   100   139    1
   130   100   140    1
   131   101   102    1
   132   101   141    1
   133   101   142    1
   134   102   103    1
   135   102   143    1
   136   102   144    1
   137   103   104    1
   138   103   145    1
   139   103   146    1
   140   104   105    1
   141   104   147    1
   142   104   148    1
   143   105   149    1
   144   105   150    1
   145   105   151    1
   146   106   107    2
   147   106   108    1
   148   108   109    1
   149   108   110    1
   150   109   152    1
   151   109   153    1
   152   109   154    1
   153   110   111    1
   154   110   155    1
   155   110   156    1
   156   111   112    1
   157   111   157    1
   158   111   158    1
   159   112   113    1
   160   112   159    1
   161   112   160    1
   162   113   114    1
   163   113   161    1
   164   113   162    1
   165   114   115    1
   166   114   163    1
   167   114   164    1
   168   115   116    1
   169   115   165    1
   170   115   166    1
   171   116   117    1
   172   116   167    1
   173   116   168    1
   174   117   169    1
   175   117   170    1
   176   117   171    1
   177   172   173    1
   178   172   203    1
   179   172   204    1
   180   172   205    1
   181   173   174    1
   182   173   206    1
   183   173   207    1
   184   174   175    1
   185   174   208    1
   186   174   209    1
   187   175   176    1
   188   175   210    1
   189   175   211    1
   190   176   177    1
   191   176   212    1
   192   176   213    1
   193   177   178    1
   194   177   214    1
   195   177   215    1
   196   178   179    1
   197   178   216    1
   198   178   217    1
   199   179   180    1
   200   179   218    1
   201   179   219    1
   202   180   181    1
   203   180   182    1
   204   181   220    1
   205   181   221    1
   206   181   222    1
   207   182   183    2
   208   182   184    1
   209   184   185    1
   210   184   191    1
   211   184   223    1
   212   185   186    1
   213   185   224    1
   214   185   225    1
   215   186   187    1
   216   186   226    1
   217   186   227    1
   218   187   188    1
   219   187   228    1
   220   187   229    1
   221   188   189    1
   222   188   230    1
   223   188   231    1
   224   189   190    1
   225   189   232    1
   226   189   233    1
   227   190   234    1
   228   190   235    1
   229   190   236    1
   230   191   192    2
   231   191   193    1
   232   193   194    1
   233   193   195    1
   234   194   237    1
   235   194   238    1
   236   194   239    1
   237   195   196    1
   238   195   240    1
   239   195   241    1
   240   196   197    1
   241   196   242    1
   242   196   243    1
   243   197   198    1
   244   197   244    1
   245   197   245    1
   246   198   199    1
   247   198   246    1
   248   198   247    1
   249   199   200    1
   250   199   248    1
   251   199   249    1
   252   200   201    1
   253   200   250    1
   254   200   251    1
   255   201   202    1
   256   201   252    1
   257   201   253    1
   258   202   254    1
   259   202   255    1
   260   202   256    1
   261   257   258    1
   262   257   288    1
   263   257   289    1
   264   257   290    1
   265   258   259    1
   266   258   291    1
   267   258   292    1
   268   259   260    1
   269   259   293    1
   270   259   294    1
   271   260   261    1
   272   260   295    1
   273   260   296    1
   274   261   262    1
   275   261   297    1
   276   261   298    1
   277   262   263    1
   278   262   299    1
   279   262   300    1
   280   263   264    1
   281   263   301    1
   282   263   302    1
   283   264   265    1
   284   264   303    1
   285   264   304    1
   286   265   266    1
   287   265   267    1
   288   266   305    1
   289   266   306    1
   290   266   307    1
   291   267   268    2
   292   267   269    1
   293   269   270    1
   294   269   276    1
   295   269   308    1
   296   270   271    1
   297   270   309    1
   298   270   310    1
   299   271   272    1
   300   271   311    1
   301   271   312    1
   302   272   273    1
   303   272   313    1
   304   272   314    1
   305   273   274    1
   306   273   315    1
   307   273   316    1
   308   274   275    1
   309   274   317    1
   310   274   318    1
   311   275   319    1
   312   275   320    1
   313   275   321    1
   314   276   277    2
   315   276   278    1
   316   278   279    1
   317   278   280    1
   318   279   322    1
   319   279   323    1
   320   279   324    1
   321   280   281    1
   322   280   325    1
   323   280   326    1
   324   281   282    1
   325   281   327    1
   326   281   328    1
   327   282   283    1
   328   282   329    1
   329   282   330    1
   330   283   284    1
   331   283   331    1
   332   283   332    1
   333   284   285    1
   334   284   333    1
   335   284   334    1
   336   285   286    1
   337   285   335    1
   338   285   336    1
   339   286   287    1
   340   286   337    1
   341   286   338    1
   342   287   339    1
   343   287   340    1
   344   287   341    1
@<TRIPOS>SUBSTRUCTURE
     1 RES1      341 GROUP             0 ****  ****    0  
