@<TRIPOS>MOLECULE
YEMSEP_geometry_0_nunpairedes_0_charge_3 Charge: 3 Unpaired_Electrons: 5 XTB_Unpaired_Electrons: 0 XTB_Charge: 3
   257   260     1     0     0
SMALL
NoCharges
****
Generated from Architector

@<TRIPOS>ATOM
     1 Dy1      -0.0402    0.0772    0.0003   Dy        1 RES1   0.0000
     2 C1        0.6687    3.1580    3.1039   C.3       1 RES1   0.0000
     3 C2        1.8626    2.7512    3.9573   C.3       1 RES1   0.0000
     4 C3        3.0255    2.2281    3.1083   C.3       1 RES1   0.0000
     5 C4        2.7105    0.8288    2.5774   C.3       1 RES1   0.0000
     6 N1        3.7025    0.2345    1.6827   N.am      1 RES1   0.0000
     7 C5        5.0866    0.2215    2.1529   C.3       1 RES1   0.0000
     8 C6        6.1039    1.0342    1.3409   C.3       1 RES1   0.0000
     9 C7        5.6175    2.4255    0.9458   C.3       1 RES1   0.0000
    10 C8        6.5984    3.1085    0.0026   C.3       1 RES1   0.0000
    11 C9        3.2569   -0.5069    0.6651   C.2       1 RES1   0.0000
    12 O1        2.0390   -0.7046    0.4539   O.2       1 RES1   0.0000
    13 C10       4.2305   -1.1413   -0.2926   C.3       1 RES1   0.0000
    14 C11       4.3695   -0.2384   -1.5298   C.3       1 RES1   0.0000
    15 C12       3.0617    0.1671   -2.2016   C.2       1 RES1   0.0000
    16 O2        2.1964    0.8162   -1.5863   O.2       1 RES1   0.0000
    17 N2        2.9573   -0.0799   -3.5159   N.am      1 RES1   0.0000
    18 C13       3.6604   -1.1450   -4.2221   C.3       1 RES1   0.0000
    19 C14       3.3543   -2.5237   -3.6281   C.3       1 RES1   0.0000
    20 C15       4.0946   -3.6542   -4.3459   C.3       1 RES1   0.0000
    21 C16       5.5823   -3.6790   -4.0122   C.3       1 RES1   0.0000
    22 C17       2.0345    0.7215   -4.2994   C.3       1 RES1   0.0000
    23 C18       2.7759    1.5997   -5.3110   C.3       1 RES1   0.0000
    24 C19       1.8122    2.2565   -6.2976   C.3       1 RES1   0.0000
    25 C20       0.8806    3.2468   -5.6105   C.3       1 RES1   0.0000
    26 H1        0.3286    2.3453    2.4665   H         1 RES1   0.0000
    27 H2        0.9440    3.9663    2.4442   H         1 RES1   0.0000
    28 H3       -0.1591    3.4994    3.7184   H         1 RES1   0.0000
    29 H4        1.5803    1.9892    4.6896   H         1 RES1   0.0000
    30 H5        2.2022    3.6243    4.5139   H         1 RES1   0.0000
    31 H6        3.9274    2.2208    3.7229   H         1 RES1   0.0000
    32 H7        3.1815    2.9133    2.2764   H         1 RES1   0.0000
    33 H8        1.7729    0.8805    2.0042   H         1 RES1   0.0000
    34 H9        2.5721    0.1546    3.4344   H         1 RES1   0.0000
    35 H10       5.4246   -0.8161    2.2178   H         1 RES1   0.0000
    36 H11       5.0660    0.6068    3.1707   H         1 RES1   0.0000
    37 H12       6.4051    0.4958    0.4435   H         1 RES1   0.0000
    38 H13       6.9988    1.1295    1.9576   H         1 RES1   0.0000
    39 H14       5.5045    3.0342    1.8419   H         1 RES1   0.0000
    40 H15       4.6395    2.3465    0.4638   H         1 RES1   0.0000
    41 H16       7.5787    3.1718    0.4632   H         1 RES1   0.0000
    42 H17       6.2659    4.1172   -0.2226   H         1 RES1   0.0000
    43 H18       6.7010    2.5598   -0.9309   H         1 RES1   0.0000
    44 H19       3.8188   -2.1085   -0.5901   H         1 RES1   0.0000
    45 H20       5.2164   -1.3075    0.1350   H         1 RES1   0.0000
    46 H21       5.0465   -0.7142   -2.2347   H         1 RES1   0.0000
    47 H22       4.8290    0.7028   -1.2193   H         1 RES1   0.0000
    48 H23       4.7381   -0.9706   -4.2477   H         1 RES1   0.0000
    49 H24       3.3235   -1.1270   -5.2605   H         1 RES1   0.0000
    50 H25       2.2796   -2.6982   -3.6732   H         1 RES1   0.0000
    51 H26       3.6364   -2.5445   -2.5778   H         1 RES1   0.0000
    52 H27       3.9645   -3.5651   -5.4255   H         1 RES1   0.0000
    53 H28       3.6549   -4.6046   -4.0362   H         1 RES1   0.0000
    54 H29       6.0885   -2.7924   -4.3848   H         1 RES1   0.0000
    55 H30       6.0541   -4.5462   -4.4650   H         1 RES1   0.0000
    56 H31       5.7340   -3.7439   -2.9363   H         1 RES1   0.0000
    57 H32       1.4776    1.3405   -3.5993   H         1 RES1   0.0000
    58 H33       1.3300    0.0808   -4.8286   H         1 RES1   0.0000
    59 H34       3.4857    0.9910   -5.8707   H         1 RES1   0.0000
    60 H35       3.3453    2.3694   -4.7861   H         1 RES1   0.0000
    61 H36       1.2297    1.4798   -6.7960   H         1 RES1   0.0000
    62 H37       2.3881    2.7764   -7.0632   H         1 RES1   0.0000
    63 H38       0.1891    2.7301   -4.9467   H         1 RES1   0.0000
    64 H39       0.2990    3.7992   -6.3439   H         1 RES1   0.0000
    65 H40       1.4655    3.9602   -5.0320   H         1 RES1   0.0000
    66 C21      -0.7333   -0.7036   -7.7047   C.3       1 RES1   0.0000
    67 C22      -1.7708   -1.3142   -6.7739   C.3       1 RES1   0.0000
    68 C23      -1.3316   -1.3435   -5.3092   C.3       1 RES1   0.0000
    69 C24      -0.1602   -2.2996   -5.0629   C.3       1 RES1   0.0000
    70 N3       -0.2789   -3.0117   -3.7909   N.am      1 RES1   0.0000
    71 C25      -0.2752   -4.4681   -3.9274   C.3       1 RES1   0.0000
    72 C26      -1.4057   -5.0982   -4.7570   C.3       1 RES1   0.0000
    73 C27      -2.7548   -5.2777   -4.0570   C.3       1 RES1   0.0000
    74 C28      -3.6232   -4.0314   -4.1120   C.3       1 RES1   0.0000
    75 C29      -0.1386   -2.3556   -2.6345   C.2       1 RES1   0.0000
    76 O3        0.0790   -1.1327   -2.5488   O.2       1 RES1   0.0000
    77 C30      -0.3575   -3.1052   -1.3348   C.3       1 RES1   0.0000
    78 C31      -1.8722   -3.2973   -1.1337   C.3       1 RES1   0.0000
    79 C32      -2.2671   -2.8553    0.2604   C.2       1 RES1   0.0000
    80 O4       -1.7765   -1.7941    0.6928   O.2       1 RES1   0.0000
    81 N4       -3.0878   -3.6270    0.9757   N.am      1 RES1   0.0000
    82 C33      -3.9825   -4.6445    0.4379   C.3       1 RES1   0.0000
    83 C34      -3.7400   -6.0697    0.9446   C.3       1 RES1   0.0000
    84 C35      -2.5025   -6.7681    0.3819   C.3       1 RES1   0.0000
    85 C36      -1.1989   -6.2840    0.9983   C.3       1 RES1   0.0000
    86 C37      -3.1797   -3.3888    2.4102   C.3       1 RES1   0.0000
    87 C38      -4.5817   -3.1134    2.9454   C.3       1 RES1   0.0000
    88 C39      -5.2260   -1.8940    2.2906   C.3       1 RES1   0.0000
    89 C40      -6.6362   -1.6717    2.8237   C.3       1 RES1   0.0000
    90 H41      -1.1004   -0.7198   -8.7275   H         1 RES1   0.0000
    91 H42       0.2012   -1.2593   -7.6737   H         1 RES1   0.0000
    92 H43      -0.5419    0.3321   -7.4300   H         1 RES1   0.0000
    93 H44      -1.9910   -2.3345   -7.0944   H         1 RES1   0.0000
    94 H45      -2.6950   -0.7375   -6.8544   H         1 RES1   0.0000
    95 H46      -2.1742   -1.6907   -4.7158   H         1 RES1   0.0000
    96 H47      -1.0739   -0.3398   -4.9642   H         1 RES1   0.0000
    97 H48       0.7859   -1.7591   -5.0869   H         1 RES1   0.0000
    98 H49      -0.1334   -3.0518   -5.8504   H         1 RES1   0.0000
    99 H50      -0.2837   -4.9356   -2.9479   H         1 RES1   0.0000
   100 H51       0.6767   -4.7269   -4.4098   H         1 RES1   0.0000
   101 H52      -1.0367   -6.0871   -5.0324   H         1 RES1   0.0000
   102 H53      -1.5661   -4.5399   -5.6782   H         1 RES1   0.0000
   103 H54      -2.6070   -5.5986   -3.0240   H         1 RES1   0.0000
   104 H55      -3.2928   -6.0837   -4.5562   H         1 RES1   0.0000
   105 H56      -3.1274   -3.1886   -3.6424   H         1 RES1   0.0000
   106 H57      -4.5722   -4.1971   -3.6119   H         1 RES1   0.0000
   107 H58      -3.8333   -3.7732   -5.1448   H         1 RES1   0.0000
   108 H59       0.0439   -2.4440   -0.5438   H         1 RES1   0.0000
   109 H60       0.1738   -4.0524   -1.2792   H         1 RES1   0.0000
   110 H61      -2.1503   -4.3238   -1.3427   H         1 RES1   0.0000
   111 H62      -2.4168   -2.6356   -1.8149   H         1 RES1   0.0000
   112 H63      -3.9578   -4.6326   -0.6503   H         1 RES1   0.0000
   113 H64      -4.9931   -4.3452    0.7312   H         1 RES1   0.0000
   114 H65      -4.6172   -6.6512    0.6593   H         1 RES1   0.0000
   115 H66      -3.6927   -6.0678    2.0336   H         1 RES1   0.0000
   116 H67      -2.4705   -6.6577   -0.7043   H         1 RES1   0.0000
   117 H68      -2.5962   -7.8347    0.5837   H         1 RES1   0.0000
   118 H69      -1.0166   -5.2353    0.7858   H         1 RES1   0.0000
   119 H70      -0.3684   -6.8690    0.6151   H         1 RES1   0.0000
   120 H71      -1.2272   -6.4167    2.0756   H         1 RES1   0.0000
   121 H72      -2.5440   -2.5253    2.6071   H         1 RES1   0.0000
   122 H73      -2.7692   -4.2647    2.9232   H         1 RES1   0.0000
   123 H74      -4.4950   -2.9452    4.0226   H         1 RES1   0.0000
   124 H75      -5.2180   -3.9895    2.8134   H         1 RES1   0.0000
   125 H76      -5.2648   -2.0338    1.2077   H         1 RES1   0.0000
   126 H77      -4.6008   -1.0184    2.4823   H         1 RES1   0.0000
   127 H78      -7.2877   -2.4922    2.5332   H         1 RES1   0.0000
   128 H79      -7.0601   -0.7505    2.4312   H         1 RES1   0.0000
   129 H80      -6.6337   -1.6157    3.9100   H         1 RES1   0.0000
   130 C41      -1.5329   -5.3761    6.0099   C.3       1 RES1   0.0000
   131 C42      -1.0010   -4.0088    5.6041   C.3       1 RES1   0.0000
   132 C43       0.5114   -3.9150    5.7817   C.3       1 RES1   0.0000
   133 C44       1.0667   -2.5334    5.4212   C.3       1 RES1   0.0000
   134 N5        0.9042   -2.1637    4.0255   N.am      1 RES1   0.0000
   135 C45       1.8267   -2.8047    3.0950   C.3       1 RES1   0.0000
   136 C46       1.1345   -3.8813    2.2585   C.3       1 RES1   0.0000
   137 C47       2.0968   -4.4992    1.2465   C.3       1 RES1   0.0000
   138 C48       3.1040   -5.4375    1.9019   C.3       1 RES1   0.0000
   139 C49       0.0447   -1.2815    3.4900   C.2       1 RES1   0.0000
   140 O5        0.1442   -0.9695    2.2913   O.2       1 RES1   0.0000
   141 C50      -1.0606   -0.6930    4.3434   C.3       1 RES1   0.0000
   142 C51      -1.3315    0.7982    4.0712   C.3       1 RES1   0.0000
   143 C52      -2.0548    1.1424    2.7791   C.2       1 RES1   0.0000
   144 O6       -1.4964    1.0493    1.6629   O.2       1 RES1   0.0000
   145 N6       -3.3087    1.5968    2.8694   N.am      1 RES1   0.0000
   146 C53      -3.9926    1.9849    4.0954   C.3       1 RES1   0.0000
   147 C54      -4.6159    0.8235    4.8711   C.3       1 RES1   0.0000
   148 C55      -5.1872    1.3265    6.1972   C.3       1 RES1   0.0000
   149 C56      -5.7756    0.2054    7.0419   C.3       1 RES1   0.0000
   150 C57      -4.0739    1.7808    1.6463   C.3       1 RES1   0.0000
   151 C58      -4.1338    3.2295    1.1401   C.3       1 RES1   0.0000
   152 C59      -5.1453    4.1441    1.8383   C.3       1 RES1   0.0000
   153 C60      -5.3805    5.4162    1.0312   C.3       1 RES1   0.0000
   154 H81      -2.6090   -5.4241    5.8730   H         1 RES1   0.0000
   155 H82      -1.3150   -5.5739    7.0547   H         1 RES1   0.0000
   156 H83      -1.0802   -6.1647    5.4158   H         1 RES1   0.0000
   157 H84      -1.4862   -3.2450    6.2147   H         1 RES1   0.0000
   158 H85      -1.2470   -3.8089    4.5593   H         1 RES1   0.0000
   159 H86       1.0042   -4.6863    5.1877   H         1 RES1   0.0000
   160 H87       0.7657   -4.1028    6.8254   H         1 RES1   0.0000
   161 H88       2.1409   -2.5169    5.6380   H         1 RES1   0.0000
   162 H89       0.5998   -1.7915    6.0676   H         1 RES1   0.0000
   163 H90       2.6617   -3.2204    3.6566   H         1 RES1   0.0000
   164 H91       2.1963   -2.0443    2.4041   H         1 RES1   0.0000
   165 H92       0.3056   -3.4000    1.7348   H         1 RES1   0.0000
   166 H93       0.7260   -4.6638    2.8982   H         1 RES1   0.0000
   167 H94       2.6164   -3.6958    0.7181   H         1 RES1   0.0000
   168 H95       1.5238   -5.0662    0.5112   H         1 RES1   0.0000
   169 H96       3.7961   -4.8989    2.5462   H         1 RES1   0.0000
   170 H97       3.6824   -5.9606    1.1441   H         1 RES1   0.0000
   171 H98       2.5830   -6.1810    2.5020   H         1 RES1   0.0000
   172 H99      -0.8195   -0.7756    5.3990   H         1 RES1   0.0000
   173 H100     -1.9546   -1.2905    4.1561   H         1 RES1   0.0000
   174 H101     -0.3614    1.2923    4.0558   H         1 RES1   0.0000
   175 H102     -1.8938    1.1788    4.9146   H         1 RES1   0.0000
   176 H103     -4.7898    2.6680    3.8135   H         1 RES1   0.0000
   177 H104     -3.3132    2.5457    4.7413   H         1 RES1   0.0000
   178 H105     -3.8672    0.0530    5.0611   H         1 RES1   0.0000
   179 H106     -5.4154    0.3761    4.2799   H         1 RES1   0.0000
   180 H107     -5.9584    2.0714    5.9968   H         1 RES1   0.0000
   181 H108     -4.3940    1.8211    6.7604   H         1 RES1   0.0000
   182 H109     -6.5905   -0.2877    6.5184   H         1 RES1   0.0000
   183 H110     -6.1618    0.6140    7.9705   H         1 RES1   0.0000
   184 H111     -5.0191   -0.5364    7.2871   H         1 RES1   0.0000
   185 H112     -5.0875    1.4152    1.8242   H         1 RES1   0.0000
   186 H113     -3.5973    1.1554    0.8857   H         1 RES1   0.0000
   187 H114     -4.4105    3.1808    0.0836   H         1 RES1   0.0000
   188 H115     -3.1410    3.6803    1.2117   H         1 RES1   0.0000
   189 H116     -4.7802    4.4414    2.8218   H         1 RES1   0.0000
   190 H117     -6.0936    3.6152    1.9605   H         1 RES1   0.0000
   191 H118     -4.4421    5.9403    0.8658   H         1 RES1   0.0000
   192 H119     -6.0480    6.0783    1.5734   H         1 RES1   0.0000
   193 H120     -5.8292    5.1921    0.0666   H         1 RES1   0.0000
   194 C61       3.3472    7.6429    0.9474   C.3       1 RES1   0.0000
   195 C62       1.8638    7.3122    1.0235   C.3       1 RES1   0.0000
   196 C63       1.5824    5.8012    1.0247   C.3       1 RES1   0.0000
   197 C64       2.0701    4.9241   -0.1539   C.3       1 RES1   0.0000
   198 N7        1.0607    4.5369   -1.1480   N.am      1 RES1   0.0000
   199 C65       1.0886    5.3320   -2.3731   C.3       1 RES1   0.0000
   200 C66       0.5566    6.7615   -2.2714   C.3       1 RES1   0.0000
   201 C67      -0.9569    6.8977   -2.1093   C.3       1 RES1   0.0000
   202 C68      -1.4853    6.5149   -0.7337   C.3       1 RES1   0.0000
   203 C69       0.4210    3.3747   -1.0215   C.2       1 RES1   0.0000
   204 O7        0.5931    2.5914   -0.0607   O.2       1 RES1   0.0000
   205 C70      -0.6138    2.9260   -2.0517   C.3       1 RES1   0.0000
   206 C71      -1.9860    2.7430   -1.3639   C.3       1 RES1   0.0000
   207 C72      -2.5697    1.4067   -1.7848   C.2       1 RES1   0.0000
   208 O8       -1.9592    0.3921   -1.3688   O.2       1 RES1   0.0000
   209 N8       -3.6238    1.3041   -2.5905   N.am      1 RES1   0.0000
   210 C73      -4.4838    2.3876   -3.0457   C.3       1 RES1   0.0000
   211 C74      -4.4485    2.6172   -4.5598   C.3       1 RES1   0.0000
   212 C75      -3.0539    2.9307   -5.0927   C.3       1 RES1   0.0000
   213 C76      -3.0794    3.1191   -6.6036   C.3       1 RES1   0.0000
   214 C77      -3.9049    0.0025   -3.1997   C.3       1 RES1   0.0000
   215 C78      -5.3364   -0.5305   -3.1172   C.3       1 RES1   0.0000
   216 C79      -5.7656   -0.9992   -1.7241   C.3       1 RES1   0.0000
   217 C80      -6.3402    0.1214   -0.8668   C.3       1 RES1   0.0000
   218 H121      3.4970    8.7150    1.0381   H         1 RES1   0.0000
   219 H122      3.7817    7.3234    0.0034   H         1 RES1   0.0000
   220 H123      3.8788    7.1544    1.7601   H         1 RES1   0.0000
   221 H124      1.3255    7.8445    0.2427   H         1 RES1   0.0000
   222 H125      1.4780    7.6926    1.9733   H         1 RES1   0.0000
   223 H126      0.5104    5.6455    1.1578   H         1 RES1   0.0000
   224 H127      2.0968    5.4425    1.9186   H         1 RES1   0.0000
   225 H128      2.4570    3.9878    0.2594   H         1 RES1   0.0000
   226 H129      2.8813    5.4284   -0.6788   H         1 RES1   0.0000
   227 H130      0.5435    4.8337   -3.1704   H         1 RES1   0.0000
   228 H131      2.1382    5.3728   -2.6843   H         1 RES1   0.0000
   229 H132      0.8391    7.2461   -3.2060   H         1 RES1   0.0000
   230 H133      1.0673    7.2944   -1.4753   H         1 RES1   0.0000
   231 H134     -1.4598    6.3081   -2.8790   H         1 RES1   0.0000
   232 H135     -1.2162    7.9412   -2.2901   H         1 RES1   0.0000
   233 H136     -1.2837    5.4728   -0.4989   H         1 RES1   0.0000
   234 H137     -2.5584    6.6805   -0.6977   H         1 RES1   0.0000
   235 H138     -1.0329    7.1416    0.0286   H         1 RES1   0.0000
   236 H139     -0.2520    1.9486   -2.4024   H         1 RES1   0.0000
   237 H140     -0.7240    3.5924   -2.8985   H         1 RES1   0.0000
   238 H141     -2.6169    3.6000   -1.5725   H         1 RES1   0.0000
   239 H142     -1.8192    2.6757   -0.2814   H         1 RES1   0.0000
   240 H143     -4.2177    3.3155   -2.5448   H         1 RES1   0.0000
   241 H144     -5.5065    2.1348   -2.7534   H         1 RES1   0.0000
   242 H145     -5.1072    3.4599   -4.7714   H         1 RES1   0.0000
   243 H146     -4.8585    1.7556   -5.0875   H         1 RES1   0.0000
   244 H147     -2.3705    2.1174   -4.8344   H         1 RES1   0.0000
   245 H148     -2.6829    3.8447   -4.6238   H         1 RES1   0.0000
   246 H149     -3.4208    2.2154   -7.1010   H         1 RES1   0.0000
   247 H150     -2.0904    3.3599   -6.9807   H         1 RES1   0.0000
   248 H151     -3.7523    3.9275   -6.8750   H         1 RES1   0.0000
   249 H152     -3.2289   -0.7122   -2.7287   H         1 RES1   0.0000
   250 H153     -3.6348    0.0874   -4.2563   H         1 RES1   0.0000
   251 H154     -5.3748   -1.3823   -3.8012   H         1 RES1   0.0000
   252 H155     -6.0468    0.2054   -3.4945   H         1 RES1   0.0000
   253 H156     -4.9094   -1.4450   -1.2097   H         1 RES1   0.0000
   254 H157     -6.5251   -1.7738   -1.8387   H         1 RES1   0.0000
   255 H158     -5.5872    0.8795   -0.6633   H         1 RES1   0.0000
   256 H159     -6.6936   -0.2787    0.0798   H         1 RES1   0.0000
   257 H160     -7.1885    0.5871   -1.3636   H         1 RES1   0.0000
@<TRIPOS>BOND
     1     1    12    1
     2     1    16    1
     3     1    76    1
     4     1    80    1
     5     1   140    1
     6     1   144    1
     7     1   204    1
     8     1   208    1
     9     2     3    1
    10     2    26    1
    11     2    27    1
    12     2    28    1
    13     3     4    1
    14     3    29    1
    15     3    30    1
    16     4     5    1
    17     4    31    1
    18     4    32    1
    19     5     6    1
    20     5    33    1
    21     5    34    1
    22     6     7    1
    23     6    11    1
    24     7     8    1
    25     7    35    1
    26     7    36    1
    27     8     9    1
    28     8    37    1
    29     8    38    1
    30     9    10    1
    31     9    39    1
    32     9    40    1
    33    10    41    1
    34    10    42    1
    35    10    43    1
    36    11    12    2
    37    11    13    1
    38    13    14    1
    39    13    44    1
    40    13    45    1
    41    14    15    1
    42    14    46    1
    43    14    47    1
    44    15    16    2
    45    15    17    1
    46    17    18    1
    47    17    22    1
    48    18    19    1
    49    18    48    1
    50    18    49    1
    51    19    20    1
    52    19    50    1
    53    19    51    1
    54    20    21    1
    55    20    52    1
    56    20    53    1
    57    21    54    1
    58    21    55    1
    59    21    56    1
    60    22    23    1
    61    22    57    1
    62    22    58    1
    63    23    24    1
    64    23    59    1
    65    23    60    1
    66    24    25    1
    67    24    61    1
    68    24    62    1
    69    25    63    1
    70    25    64    1
    71    25    65    1
    72    66    67    1
    73    66    90    1
    74    66    91    1
    75    66    92    1
    76    67    68    1
    77    67    93    1
    78    67    94    1
    79    68    69    1
    80    68    95    1
    81    68    96    1
    82    69    70    1
    83    69    97    1
    84    69    98    1
    85    70    71    1
    86    70    75    1
    87    71    72    1
    88    71    99    1
    89    71   100    1
    90    72    73    1
    91    72   101    1
    92    72   102    1
    93    73    74    1
    94    73   103    1
    95    73   104    1
    96    74   105    1
    97    74   106    1
    98    74   107    1
    99    75    76    2
   100    75    77    1
   101    77    78    1
   102    77   108    1
   103    77   109    1
   104    78    79    1
   105    78   110    1
   106    78   111    1
   107    79    80    2
   108    79    81    1
   109    81    82    1
   110    81    86    1
   111    82    83    1
   112    82   112    1
   113    82   113    1
   114    83    84    1
   115    83   114    1
   116    83   115    1
   117    84    85    1
   118    84   116    1
   119    84   117    1
   120    85   118    1
   121    85   119    1
   122    85   120    1
   123    86    87    1
   124    86   121    1
   125    86   122    1
   126    87    88    1
   127    87   123    1
   128    87   124    1
   129    88    89    1
   130    88   125    1
   131    88   126    1
   132    89   127    1
   133    89   128    1
   134    89   129    1
   135   130   131    1
   136   130   154    1
   137   130   155    1
   138   130   156    1
   139   131   132    1
   140   131   157    1
   141   131   158    1
   142   132   133    1
   143   132   159    1
   144   132   160    1
   145   133   134    1
   146   133   161    1
   147   133   162    1
   148   134   135    1
   149   134   139    1
   150   135   136    1
   151   135   163    1
   152   135   164    1
   153   136   137    1
   154   136   165    1
   155   136   166    1
   156   137   138    1
   157   137   167    1
   158   137   168    1
   159   138   169    1
   160   138   170    1
   161   138   171    1
   162   139   140    2
   163   139   141    1
   164   141   142    1
   165   141   172    1
   166   141   173    1
   167   142   143    1
   168   142   174    1
   169   142   175    1
   170   143   144    2
   171   143   145    1
   172   145   146    1
   173   145   150    1
   174   146   147    1
   175   146   176    1
   176   146   177    1
   177   147   148    1
   178   147   178    1
   179   147   179    1
   180   148   149    1
   181   148   180    1
   182   148   181    1
   183   149   182    1
   184   149   183    1
   185   149   184    1
   186   150   151    1
   187   150   185    1
   188   150   186    1
   189   151   152    1
   190   151   187    1
   191   151   188    1
   192   152   153    1
   193   152   189    1
   194   152   190    1
   195   153   191    1
   196   153   192    1
   197   153   193    1
   198   194   195    1
   199   194   218    1
   200   194   219    1
   201   194   220    1
   202   195   196    1
   203   195   221    1
   204   195   222    1
   205   196   197    1
   206   196   223    1
   207   196   224    1
   208   197   198    1
   209   197   225    1
   210   197   226    1
   211   198   199    1
   212   198   203    1
   213   199   200    1
   214   199   227    1
   215   199   228    1
   216   200   201    1
   217   200   229    1
   218   200   230    1
   219   201   202    1
   220   201   231    1
   221   201   232    1
   222   202   233    1
   223   202   234    1
   224   202   235    1
   225   203   204    2
   226   203   205    1
   227   205   206    1
   228   205   236    1
   229   205   237    1
   230   206   207    1
   231   206   238    1
   232   206   239    1
   233   207   208    2
   234   207   209    1
   235   209   210    1
   236   209   214    1
   237   210   211    1
   238   210   240    1
   239   210   241    1
   240   211   212    1
   241   211   242    1
   242   211   243    1
   243   212   213    1
   244   212   244    1
   245   212   245    1
   246   213   246    1
   247   213   247    1
   248   213   248    1
   249   214   215    1
   250   214   249    1
   251   214   250    1
   252   215   216    1
   253   215   251    1
   254   215   252    1
   255   216   217    1
   256   216   253    1
   257   216   254    1
   258   217   255    1
   259   217   256    1
   260   217   257    1
@<TRIPOS>SUBSTRUCTURE
     1 RES1      257 GROUP             0 ****  ****    0  
