@<TRIPOS>MOLECULE
am_c3_9H2O_c0_0_nunpairedes_0_charge_1 Charge: 1 Unpaired_Electrons: 3 XTB_Unpaired_Electrons: 0 XTB_Charge: 1
   122   135     1     0     0
SMALL
NoCharges
****
Generated from Architector

@<TRIPOS>ATOM
     1 Nd1      -0.3412   -0.1129   -0.1735   Nd        1 RES1   0.0000
     2 C1       -0.3214   -8.2929    2.6643   C.3       1 RES1   0.0000
     3 C2       -0.7144   -8.2521    1.1951   C.3       1 RES1   0.0000
     4 C3       -0.0883   -7.1100    0.3951   C.3       1 RES1   0.0000
     5 C4       -0.5971   -5.7086    0.7478   C.3       1 RES1   0.0000
     6 C5        0.1895   -4.9466    1.8184   C.3       1 RES1   0.0000
     7 C6        1.6343   -4.6499    1.3900   C.3       1 RES1   0.0000
     8 N1        2.1469   -3.4293    2.0157   N.ar      1 RES1   0.0000
     9 C7        3.0969   -3.4269    3.0165   C.ar      1 RES1   0.0000
    10 C8        3.5571   -4.7500    3.4927   C.ar      1 RES1   0.0000
    11 C9        4.8019   -5.2190    3.0867   C.ar      1 RES1   0.0000
    12 C10       5.2321   -6.4681    3.4951   C.ar      1 RES1   0.0000
    13 C11       4.4344   -7.2465    4.3179   C.ar      1 RES1   0.0000
    14 C12       3.1972   -6.7757    4.7284   C.ar      1 RES1   0.0000
    15 C13       2.7534   -5.5314    4.3172   C.ar      1 RES1   0.0000
    16 C14       3.6454   -2.2768    3.5269   C.ar      1 RES1   0.0000
    17 C15       4.6779   -2.3667    4.5950   C.ar      1 RES1   0.0000
    18 C16       4.3415   -2.8605    5.8529   C.ar      1 RES1   0.0000
    19 C17       5.2939   -2.9469    6.8532   C.ar      1 RES1   0.0000
    20 C18       6.5986   -2.5523    6.6108   C.ar      1 RES1   0.0000
    21 C19       6.9454   -2.0797    5.3561   C.ar      1 RES1   0.0000
    22 C20       5.9948   -1.9797    4.3532   C.ar      1 RES1   0.0000
    23 C21       3.2115   -1.0030    3.0229   C.ar      1 RES1   0.0000
    24 C22       3.6564    0.2610    3.4507   C.ar      1 RES1   0.0000
    25 C23       3.1557    1.4093    2.8386   C.ar      1 RES1   0.0000
    26 C24       3.5359    2.7462    3.1912   C.ar      1 RES1   0.0000
    27 C25       3.0066    3.8333    2.5814   C.ar      1 RES1   0.0000
    28 C26       2.0571    3.7110    1.5124   C.ar      1 RES1   0.0000
    29 C27       1.4757    4.7800    0.8297   C.ar      1 RES1   0.0000
    30 C28       0.5558    4.5264   -0.2043   C.ar      1 RES1   0.0000
    31 C29      -0.1522    5.5068   -0.9737   C.ar      1 RES1   0.0000
    32 C30       0.1026    6.9604   -0.8049   C.ar      1 RES1   0.0000
    33 C31      -0.8826    7.7941   -0.2850   C.ar      1 RES1   0.0000
    34 C32      -0.6553    9.1538   -0.1604   C.ar      1 RES1   0.0000
    35 C33       0.5537    9.6994   -0.5590   C.ar      1 RES1   0.0000
    36 C34       1.5337    8.8748   -1.0871   C.ar      1 RES1   0.0000
    37 C35       1.3160    7.5122   -1.2064   C.ar      1 RES1   0.0000
    38 C36      -1.0810    5.0994   -1.8983   C.ar      1 RES1   0.0000
    39 C37      -1.7710    6.0922   -2.7567   C.ar      1 RES1   0.0000
    40 C38      -1.1073    6.5633   -3.8853   C.ar      1 RES1   0.0000
    41 C39      -1.7398    7.4501   -4.7375   C.ar      1 RES1   0.0000
    42 C40      -3.0265    7.8828   -4.4628   C.ar      1 RES1   0.0000
    43 C41      -3.6855    7.4167   -3.3367   C.ar      1 RES1   0.0000
    44 C42      -3.0642    6.5235   -2.4812   C.ar      1 RES1   0.0000
    45 N2       -1.3675    3.7741   -2.1417   N.ar      1 RES1   0.0000
    46 C43      -2.3862    3.3353   -3.0957   C.3       1 RES1   0.0000
    47 C44      -3.6807    2.9247   -2.3875   C.3       1 RES1   0.0000
    48 C45      -4.7734    2.4985   -3.3735   C.3       1 RES1   0.0000
    49 C46      -4.8410    1.0004   -3.6750   C.3       1 RES1   0.0000
    50 C47      -3.6639    0.3871   -4.4299   C.3       1 RES1   0.0000
    51 C48      -3.4549    0.9865   -5.8130   C.3       1 RES1   0.0000
    52 C49      -0.7176    2.7741   -1.4946   C.ar      1 RES1   0.0000
    53 O1       -0.9666    1.5740   -1.7193   O.2       1 RES1   0.0000
    54 C50       0.2768    3.1689   -0.5045   C.ar      1 RES1   0.0000
    55 N3        0.8382    2.1482    0.1291   N.ar      1 RES1   0.0000
    56 C51       1.6802    2.3992    1.1184   C.ar      1 RES1   0.0000
    57 C52       2.1913    1.2466    1.8100   C.ar      1 RES1   0.0000
    58 N4        1.7044    0.0651    1.4494   N.ar      1 RES1   0.0000
    59 C53       2.2109   -1.0267    2.0177   C.ar      1 RES1   0.0000
    60 C54       1.6773   -2.2722    1.4783   C.ar      1 RES1   0.0000
    61 O2        0.8329   -2.2725    0.5628   O.2       1 RES1   0.0000
    62 H1       -0.7009   -9.1980    3.1310   H         1 RES1   0.0000
    63 H2       -0.7315   -7.4489    3.2093   H         1 RES1   0.0000
    64 H3        0.7601   -8.2883    2.7731   H         1 RES1   0.0000
    65 H4       -1.7995   -8.1927    1.1124   H         1 RES1   0.0000
    66 H5       -0.4096   -9.1936    0.7371   H         1 RES1   0.0000
    67 H6       -0.3268   -7.2930   -0.6527   H         1 RES1   0.0000
    68 H7        0.9951   -7.1484    0.4927   H         1 RES1   0.0000
    69 H8       -1.6361   -5.7869    1.0696   H         1 RES1   0.0000
    70 H9       -0.5824   -5.0883   -0.1503   H         1 RES1   0.0000
    71 H10       0.2025   -5.4800    2.7673   H         1 RES1   0.0000
    72 H11      -0.3199   -3.9911    1.9722   H         1 RES1   0.0000
    73 H12       1.6580   -4.4686    0.3111   H         1 RES1   0.0000
    74 H13       2.3027   -5.4728    1.6351   H         1 RES1   0.0000
    75 H14       5.4237   -4.6141    2.4421   H         1 RES1   0.0000
    76 H15       6.1889   -6.8334    3.1575   H         1 RES1   0.0000
    77 H16       4.7627   -8.2270    4.6304   H         1 RES1   0.0000
    78 H17       2.5766   -7.3899    5.3622   H         1 RES1   0.0000
    79 H18       1.7932   -5.1500    4.6386   H         1 RES1   0.0000
    80 H19       3.3283   -3.1732    6.0605   H         1 RES1   0.0000
    81 H20       5.0131   -3.3343    7.8202   H         1 RES1   0.0000
    82 H21       7.3482   -2.6190    7.3860   H         1 RES1   0.0000
    83 H22       7.9695   -1.7999    5.1622   H         1 RES1   0.0000
    84 H23       6.2776   -1.6188    3.3729   H         1 RES1   0.0000
    85 H24       4.3832    0.3378    4.2505   H         1 RES1   0.0000
    86 H25       4.2653    2.8570    3.9761   H         1 RES1   0.0000
    87 H26       3.2998    4.8288    2.8761   H         1 RES1   0.0000
    88 H27       1.7144    5.8018    1.1009   H         1 RES1   0.0000
    89 H28      -1.8285    7.3781    0.0297   H         1 RES1   0.0000
    90 H29      -1.4322    9.7899    0.2352   H         1 RES1   0.0000
    91 H30       0.7369   10.7612   -0.4693   H         1 RES1   0.0000
    92 H31       2.4639    9.3095   -1.4198   H         1 RES1   0.0000
    93 H32       2.0748    6.8684   -1.6312   H         1 RES1   0.0000
    94 H33      -0.1065    6.2178   -4.1032   H         1 RES1   0.0000
    95 H34      -1.2299    7.7828   -5.6274   H         1 RES1   0.0000
    96 H35      -3.5289    8.5637   -5.1338   H         1 RES1   0.0000
    97 H36      -4.6967    7.7381   -3.1431   H         1 RES1   0.0000
    98 H37      -3.5715    6.1507   -1.6016   H         1 RES1   0.0000
    99 H38      -1.9613    2.4775   -3.6201   H         1 RES1   0.0000
   100 H39      -2.5780    4.1359   -3.8086   H         1 RES1   0.0000
   101 H40      -4.0341    3.7765   -1.8034   H         1 RES1   0.0000
   102 H41      -3.4696    2.1096   -1.6947   H         1 RES1   0.0000
   103 H42      -4.6596    3.0674   -4.2954   H         1 RES1   0.0000
   104 H43      -5.7384    2.7769   -2.9481   H         1 RES1   0.0000
   105 H44      -5.7431    0.8313   -4.2651   H         1 RES1   0.0000
   106 H45      -4.9622    0.4638   -2.7339   H         1 RES1   0.0000
   107 H46      -3.8665   -0.6777   -4.5515   H         1 RES1   0.0000
   108 H47      -2.7497    0.4619   -3.8403   H         1 RES1   0.0000
   109 H48      -4.3507    0.8703   -6.4167   H         1 RES1   0.0000
   110 H49      -2.6382    0.4867   -6.3258   H         1 RES1   0.0000
   111 H50      -3.2208    2.0456   -5.7621   H         1 RES1   0.0000
   112 N5       -2.5222    0.7965    0.6980   N.3       1 RES1   0.0000
   113 O3       -3.5463    1.2808    1.0687   O.2       1 RES1   0.0000
   114 O4       -2.5071   -0.1659   -0.0774   O.co2     1 RES1   0.0000
   115 O5       -1.4326    1.2462    1.1004   O.co2     1 RES1   0.0000
   116 N6        0.4407   -1.0002   -2.3111   N.3       1 RES1   0.0000
   117 O6        0.7122   -1.2764   -3.4357   O.2       1 RES1   0.0000
   118 O7        1.1673   -0.2350   -1.6480   O.co2     1 RES1   0.0000
   119 O8       -0.5629   -1.4694   -1.7581   O.co2     1 RES1   0.0000
   120 O9       -1.2044   -1.3171    1.9643   O.3       1 RES1   0.0000
   121 H51      -1.6405   -2.1129    1.6177   H         1 RES1   0.0000
   122 H52      -0.8400   -1.5421    2.8310   H         1 RES1   0.0000
@<TRIPOS>BOND
     1     1    53    1
     2     1    55    1
     3     1    58    1
     4     1    61    1
     5     1   114    1
     6     1   115    1
     7     1   118    1
     8     1   119    1
     9     1   120    1
    10     2     3    1
    11     2    62    1
    12     2    63    1
    13     2    64    1
    14     3     4    1
    15     3    65    1
    16     3    66    1
    17     4     5    1
    18     4    67    1
    19     4    68    1
    20     5     6    1
    21     5    69    1
    22     5    70    1
    23     6     7    1
    24     6    71    1
    25     6    72    1
    26     7     8    1
    27     7    73    1
    28     7    74    1
    29     8     9    1
    30     8    60    1
    31     9    10    1
    32     9    16    2
    33    10    11    1
    34    10    15    2
    35    11    12    2
    36    11    75    1
    37    12    13    1
    38    12    76    1
    39    13    14    2
    40    13    77    1
    41    14    15    1
    42    14    78    1
    43    15    79    1
    44    16    17    1
    45    16    23    1
    46    17    18    1
    47    17    22    2
    48    18    19    2
    49    18    80    1
    50    19    20    1
    51    19    81    1
    52    20    21    2
    53    20    82    1
    54    21    22    1
    55    21    83    1
    56    22    84    1
    57    23    24    1
    58    23    59    2
    59    24    25    2
    60    24    85    1
    61    25    26    1
    62    25    57    1
    63    26    27    2
    64    26    86    1
    65    27    28    1
    66    27    87    1
    67    28    29    1
    68    28    56    2
    69    29    30    2
    70    29    88    1
    71    30    31    1
    72    30    54    1
    73    31    32    1
    74    31    38    2
    75    32    33    1
    76    32    37    2
    77    33    34    2
    78    33    89    1
    79    34    35    1
    80    34    90    1
    81    35    36    2
    82    35    91    1
    83    36    37    1
    84    36    92    1
    85    37    93    1
    86    38    39    1
    87    38    45    1
    88    39    40    1
    89    39    44    2
    90    40    41    2
    91    40    94    1
    92    41    42    1
    93    41    95    1
    94    42    43    2
    95    42    96    1
    96    43    44    1
    97    43    97    1
    98    44    98    1
    99    45    46    1
   100    45    52    1
   101    46    47    1
   102    46    99    1
   103    46   100    1
   104    47    48    1
   105    47   101    1
   106    47   102    1
   107    48    49    1
   108    48   103    1
   109    48   104    1
   110    49    50    1
   111    49   105    1
   112    49   106    1
   113    50    51    1
   114    50   107    1
   115    50   108    1
   116    51   109    1
   117    51   110    1
   118    51   111    1
   119    52    53    2
   120    52    54    1
   121    54    55    2
   122    55    56    1
   123    56    57    1
   124    57    58    2
   125    58    59    1
   126    59    60    1
   127    60    61    2
   128   112   113    2
   129   112   114    1
   130   112   115    1
   131   116   117    2
   132   116   118    1
   133   116   119    1
   134   120   121    1
   135   120   122    1
@<TRIPOS>SUBSTRUCTURE
     1 RES1      122 GROUP             0 ****  ****    0  
