@<TRIPOS>MOLECULE
am_c3_9H2O_c0_0_nunpairedes_0_charge_3 Charge: 3 Unpaired_Electrons: 0 XTB_Unpaired_Electrons: 0 XTB_Charge: 3
   268   273     1     0     0
SMALL
NoCharges
****
Generated from Architector

@<TRIPOS>ATOM
     1 La1       0.0793   -0.0620   -0.0783   La        1 RES1   0.0000
     2 C1       -3.4142   -5.8270    3.6976   C.3       1 RES1   0.0000
     3 C2       -3.8968   -6.5178    2.4268   C.3       1 RES1   0.0000
     4 C3       -5.4190   -6.5063    2.2750   C.3       1 RES1   0.0000
     5 C4       -6.0395   -5.1253    2.0627   C.3       1 RES1   0.0000
     6 C5       -5.6784   -4.5283    0.7031   C.3       1 RES1   0.0000
     7 C6       -6.2378   -3.1128    0.4747   C.3       1 RES1   0.0000
     8 C7       -5.1388   -2.0458    0.4286   C.3       1 RES1   0.0000
     9 C8       -4.2972   -2.0655    1.7158   C.3       1 RES1   0.0000
    10 N1       -3.9131   -0.7541    2.2354   N.am      1 RES1   0.0000
    11 C9       -4.5896   -0.3280    3.4491   C.3       1 RES1   0.0000
    12 C10      -6.0665    0.0391    3.2233   C.3       1 RES1   0.0000
    13 C11      -6.6862    0.3893    4.5729   C.3       1 RES1   0.0000
    14 C12      -6.2283    1.2140    2.2634   C.3       1 RES1   0.0000
    15 C13      -2.9607   -0.0712    1.6206   C.2       1 RES1   0.0000
    16 O1       -2.4147   -0.4630    0.5717   O.2       1 RES1   0.0000
    17 C14      -2.4365    1.2533    2.2045   C.3       1 RES1   0.0000
    18 O2       -1.5421    1.8384    1.2646   O.3       1 RES1   0.0000
    19 C15      -2.2508    2.7228    0.3978   C.3       1 RES1   0.0000
    20 C16      -1.3658    3.0804   -0.7856   C.2       1 RES1   0.0000
    21 O3       -0.5879    2.1983   -1.2142   O.2       1 RES1   0.0000
    22 N2       -1.4720    4.2855   -1.3260   N.am      1 RES1   0.0000
    23 C17      -0.6345    4.6250   -2.4729   C.3       1 RES1   0.0000
    24 C18       0.7130    5.2295   -2.0541   C.3       1 RES1   0.0000
    25 C19       0.6655    6.6470   -1.4754   C.3       1 RES1   0.0000
    26 C20       2.0271    7.0478   -0.8973   C.3       1 RES1   0.0000
    27 C21       2.5531    6.1108    0.1975   C.3       1 RES1   0.0000
    28 C22       1.5160    5.7445    1.2601   C.3       1 RES1   0.0000
    29 C23       2.1095    4.8229    2.3240   C.3       1 RES1   0.0000
    30 C24       1.0688    4.3125    3.3144   C.3       1 RES1   0.0000
    31 C25      -2.4008    5.3327   -0.9130   C.3       1 RES1   0.0000
    32 C26      -3.8608    5.1006   -1.3369   C.3       1 RES1   0.0000
    33 C27      -3.9525    4.9501   -2.8520   C.3       1 RES1   0.0000
    34 C28      -4.7120    6.2779   -0.8654   C.3       1 RES1   0.0000
    35 H1       -2.3475   -5.9875    3.8290   H         1 RES1   0.0000
    36 H2       -3.5937   -4.7539    3.6692   H         1 RES1   0.0000
    37 H3       -3.9208   -6.2342    4.5680   H         1 RES1   0.0000
    38 H4       -3.4142   -6.0559    1.5594   H         1 RES1   0.0000
    39 H5       -3.5726   -7.5599    2.4568   H         1 RES1   0.0000
    40 H6       -5.6940   -7.1472    1.4359   H         1 RES1   0.0000
    41 H7       -5.8417   -6.9430    3.1804   H         1 RES1   0.0000
    42 H8       -7.1229   -5.2182    2.1337   H         1 RES1   0.0000
    43 H9       -5.7149   -4.4591    2.8625   H         1 RES1   0.0000
    44 H10      -4.5899   -4.4923    0.6264   H         1 RES1   0.0000
    45 H11      -6.0357   -5.2084   -0.0731   H         1 RES1   0.0000
    46 H12      -6.8002   -3.0725   -0.4601   H         1 RES1   0.0000
    47 H13      -6.9413   -2.8662    1.2715   H         1 RES1   0.0000
    48 H14      -4.4956   -2.2161   -0.4358   H         1 RES1   0.0000
    49 H15      -5.5964   -1.0660    0.2943   H         1 RES1   0.0000
    50 H16      -4.8738   -2.5581    2.4977   H         1 RES1   0.0000
    51 H17      -3.3778   -2.6285    1.5401   H         1 RES1   0.0000
    52 H18      -4.5441   -1.1525    4.1678   H         1 RES1   0.0000
    53 H19      -4.0657    0.5166    3.8939   H         1 RES1   0.0000
    54 H20      -6.5856   -0.8276    2.8057   H         1 RES1   0.0000
    55 H21      -6.1992    1.2657    4.9921   H         1 RES1   0.0000
    56 H22      -7.7400    0.6174    4.4539   H         1 RES1   0.0000
    57 H23      -6.5894   -0.4275    5.2826   H         1 RES1   0.0000
    58 H24      -5.8290    2.1239    2.7046   H         1 RES1   0.0000
    59 H25      -5.7326    1.0458    1.3083   H         1 RES1   0.0000
    60 H26      -7.2856    1.3767    2.0769   H         1 RES1   0.0000
    61 H27      -3.2379    1.9584    2.4538   H         1 RES1   0.0000
    62 H28      -1.8513    1.0622    3.1095   H         1 RES1   0.0000
    63 H29      -3.1331    2.2104   -0.0131   H         1 RES1   0.0000
    64 H30      -2.5704    3.6098    0.9561   H         1 RES1   0.0000
    65 H31      -0.4701    3.7011   -3.0343   H         1 RES1   0.0000
    66 H32      -1.1791    5.3304   -3.0981   H         1 RES1   0.0000
    67 H33       1.1531    4.5790   -1.2999   H         1 RES1   0.0000
    68 H34       1.3700    5.2410   -2.9282   H         1 RES1   0.0000
    69 H35       0.3910    7.3550   -2.2600   H         1 RES1   0.0000
    70 H36      -0.0740    6.7216   -0.6782   H         1 RES1   0.0000
    71 H37       2.7632    7.0881   -1.7026   H         1 RES1   0.0000
    72 H38       1.9377    8.0521   -0.4823   H         1 RES1   0.0000
    73 H39       2.9474    5.1912   -0.2484   H         1 RES1   0.0000
    74 H40       3.3889    6.6128    0.6867   H         1 RES1   0.0000
    75 H41       1.1485    6.6570    1.7298   H         1 RES1   0.0000
    76 H42       0.6682    5.2304    0.8003   H         1 RES1   0.0000
    77 H43       2.5597    3.9633    1.8224   H         1 RES1   0.0000
    78 H44       2.8995    5.3500    2.8629   H         1 RES1   0.0000
    79 H45       0.3336    3.6846    2.8088   H         1 RES1   0.0000
    80 H46       1.5438    3.7264    4.0995   H         1 RES1   0.0000
    81 H47       0.5572    5.1479    3.7838   H         1 RES1   0.0000
    82 H48      -2.3319    5.4976    0.1650   H         1 RES1   0.0000
    83 H49      -2.0697    6.2497   -1.4010   H         1 RES1   0.0000
    84 H50      -4.2404    4.1861   -0.8701   H         1 RES1   0.0000
    85 H51      -3.5844    5.8428   -3.3507   H         1 RES1   0.0000
    86 H52      -3.3866    4.0899   -3.2013   H         1 RES1   0.0000
    87 H53      -4.9870    4.8141   -3.1463   H         1 RES1   0.0000
    88 H54      -4.3913    7.2075   -1.3264   H         1 RES1   0.0000
    89 H55      -5.7482    6.1131   -1.1392   H         1 RES1   0.0000
    90 H56      -4.6650    6.3938    0.2132   H         1 RES1   0.0000
    91 C29       5.9944    3.7185   -1.4301   C.3       1 RES1   0.0000
    92 C30       7.2290    3.3238   -2.2329   C.3       1 RES1   0.0000
    93 C31       7.0857    2.0064   -3.0003   C.3       1 RES1   0.0000
    94 C32       7.0737    0.7651   -2.0974   C.3       1 RES1   0.0000
    95 C33       5.6872    0.2439   -1.6874   C.3       1 RES1   0.0000
    96 C34       5.2539   -1.0105   -2.4528   C.3       1 RES1   0.0000
    97 C35       4.8791   -0.7608   -3.9175   C.3       1 RES1   0.0000
    98 C36       3.3955   -0.4186   -4.1217   C.3       1 RES1   0.0000
    99 N3        3.0278    0.8350   -3.4794   N.am      1 RES1   0.0000
   100 C37       3.4792    2.0488   -4.1434   C.3       1 RES1   0.0000
   101 C38       2.3616    2.9035   -4.7626   C.3       1 RES1   0.0000
   102 C39       2.9830    4.1947   -5.2905   C.3       1 RES1   0.0000
   103 C40       1.6243    2.1567   -5.8664   C.3       1 RES1   0.0000
   104 C41       2.3739    0.8241   -2.3306   C.2       1 RES1   0.0000
   105 O4        1.8176   -0.1859   -1.8428   O.2       1 RES1   0.0000
   106 C42       2.2869    2.1290   -1.5408   C.3       1 RES1   0.0000
   107 O5        1.9468    1.8441   -0.1919   O.3       1 RES1   0.0000
   108 C43       3.1022    1.6075    0.6056   C.3       1 RES1   0.0000
   109 C44       2.6369    1.0270    1.9347   C.2       1 RES1   0.0000
   110 O6        1.5142    0.4761    1.9660   O.2       1 RES1   0.0000
   111 N4        3.4503    1.0869    2.9839   N.am      1 RES1   0.0000
   112 C45       2.9795    0.4598    4.2245   C.3       1 RES1   0.0000
   113 C46       3.3799   -1.0154    4.3788   C.3       1 RES1   0.0000
   114 C47       4.8568   -1.2606    4.0593   C.3       1 RES1   0.0000
   115 C48       5.3915   -2.6210    4.5158   C.3       1 RES1   0.0000
   116 C49       6.8553   -2.8689    4.1107   C.3       1 RES1   0.0000
   117 C50       7.0539   -3.5835    2.7669   C.3       1 RES1   0.0000
   118 C51       7.0719   -2.6657    1.5405   C.3       1 RES1   0.0000
   119 C52       8.3950   -1.9201    1.3987   C.3       1 RES1   0.0000
   120 C53       4.5495    2.0569    3.1487   C.3       1 RES1   0.0000
   121 C54       5.8169    2.0616    2.2664   C.3       1 RES1   0.0000
   122 C55       6.3507    3.4994    2.2890   C.3       1 RES1   0.0000
   123 C56       6.9239    1.1289    2.7516   C.3       1 RES1   0.0000
   124 H57       6.1886    4.6270   -0.8657   H         1 RES1   0.0000
   125 H58       5.1521    3.9158   -2.0942   H         1 RES1   0.0000
   126 H59       5.7253    2.9320   -0.7291   H         1 RES1   0.0000
   127 H60       7.4544    4.1269   -2.9366   H         1 RES1   0.0000
   128 H61       8.0811    3.2374   -1.5572   H         1 RES1   0.0000
   129 H62       6.1921    2.0399   -3.6227   H         1 RES1   0.0000
   130 H63       7.9394    1.9325   -3.6734   H         1 RES1   0.0000
   131 H64       7.6047   -0.0448   -2.5946   H         1 RES1   0.0000
   132 H65       7.6488    1.0037   -1.2030   H         1 RES1   0.0000
   133 H66       5.7131   -0.0172   -0.6257   H         1 RES1   0.0000
   134 H67       4.9482    1.0307   -1.8237   H         1 RES1   0.0000
   135 H68       6.0787   -1.7224   -2.4080   H         1 RES1   0.0000
   136 H69       4.4087   -1.4815   -1.9446   H         1 RES1   0.0000
   137 H70       5.5286    0.0148   -4.3245   H         1 RES1   0.0000
   138 H71       5.0731   -1.6655   -4.4949   H         1 RES1   0.0000
   139 H72       3.1850   -0.3315   -5.1883   H         1 RES1   0.0000
   140 H73       2.7753   -1.2083   -3.6934   H         1 RES1   0.0000
   141 H74       4.0487    2.6711   -3.4509   H         1 RES1   0.0000
   142 H75       4.1560    1.7498   -4.9440   H         1 RES1   0.0000
   143 H76       1.6337    3.1588   -3.9890   H         1 RES1   0.0000
   144 H77       3.7135    3.9849   -6.0651   H         1 RES1   0.0000
   145 H78       2.2198    4.8367   -5.7157   H         1 RES1   0.0000
   146 H79       3.4773    4.7499   -4.4977   H         1 RES1   0.0000
   147 H80       2.3054    1.8503   -6.6537   H         1 RES1   0.0000
   148 H81       1.1169    1.2784   -5.4762   H         1 RES1   0.0000
   149 H82       0.8730    2.8035   -6.3077   H         1 RES1   0.0000
   150 H83       3.2103    2.7190   -1.5873   H         1 RES1   0.0000
   151 H84       1.4575    2.7163   -1.9350   H         1 RES1   0.0000
   152 H85       3.7489    0.8541    0.1330   H         1 RES1   0.0000
   153 H86       3.6521    2.5479    0.7377   H         1 RES1   0.0000
   154 H87       3.3915    1.0133    5.0677   H         1 RES1   0.0000
   155 H88       1.8886    0.5447    4.2565   H         1 RES1   0.0000
   156 H89       3.1755   -1.2717    5.4219   H         1 RES1   0.0000
   157 H90       2.7571   -1.6422    3.7359   H         1 RES1   0.0000
   158 H91       4.9915   -1.1572    2.9823   H         1 RES1   0.0000
   159 H92       5.4538   -0.4913    4.5487   H         1 RES1   0.0000
   160 H93       5.3169   -2.6626    5.6036   H         1 RES1   0.0000
   161 H94       4.7704   -3.4291    4.1251   H         1 RES1   0.0000
   162 H95       7.3960   -1.9215    4.1058   H         1 RES1   0.0000
   163 H96       7.3150   -3.4882    4.8820   H         1 RES1   0.0000
   164 H97       8.0064   -4.1140    2.7880   H         1 RES1   0.0000
   165 H98       6.2781   -4.3440    2.6515   H         1 RES1   0.0000
   166 H99       6.9147   -3.2624    0.6379   H         1 RES1   0.0000
   167 H100      6.2485   -1.9487    1.5929   H         1 RES1   0.0000
   168 H101      9.1968   -2.6154    1.1692   H         1 RES1   0.0000
   169 H102      8.3396   -1.1925    0.5919   H         1 RES1   0.0000
   170 H103      8.6563   -1.4035    2.3184   H         1 RES1   0.0000
   171 H104      4.1000    3.0512    3.0645   H         1 RES1   0.0000
   172 H105      4.8924    1.9527    4.1780   H         1 RES1   0.0000
   173 H106      5.5940    1.7887    1.2326   H         1 RES1   0.0000
   174 H107      6.5926    3.7931    3.3076   H         1 RES1   0.0000
   175 H108      7.2553    3.5739    1.6945   H         1 RES1   0.0000
   176 H109      5.6343    4.2106    1.8836   H         1 RES1   0.0000
   177 H110      7.0899    1.2238    3.8205   H         1 RES1   0.0000
   178 H111      6.7108    0.0930    2.5221   H         1 RES1   0.0000
   179 H112      7.8502    1.3945    2.2492   H         1 RES1   0.0000
   180 C57      -0.2804   -7.5758    1.0331   C.3       1 RES1   0.0000
   181 C58       0.9543   -8.4716    1.0247   C.3       1 RES1   0.0000
   182 C59       2.2526   -7.7707    0.6120   C.3       1 RES1   0.0000
   183 C60       2.1785   -7.0688   -0.7496   C.3       1 RES1   0.0000
   184 C61       1.7363   -5.5975   -0.7262   C.3       1 RES1   0.0000
   185 C62       2.8989   -4.6051   -0.8463   C.3       1 RES1   0.0000
   186 C63       3.8526   -4.5809    0.3581   C.3       1 RES1   0.0000
   187 C64       3.5440   -3.4643    1.3592   C.3       1 RES1   0.0000
   188 N5        2.2331   -3.6252    1.9811   N.am      1 RES1   0.0000
   189 C65       2.0441   -4.7729    2.8630   C.3       1 RES1   0.0000
   190 C66       1.3156   -4.5628    4.2066   C.3       1 RES1   0.0000
   191 C67       0.4182   -5.7716    4.4831   C.3       1 RES1   0.0000
   192 C68       2.2902   -4.3610    5.3596   C.3       1 RES1   0.0000
   193 C69       1.2665   -2.8556    1.5147   C.2       1 RES1   0.0000
   194 O7        1.4706   -1.9172    0.7061   O.2       1 RES1   0.0000
   195 C70      -0.1830   -3.1116    1.9025   C.3       1 RES1   0.0000
   196 O8       -0.9989   -2.5746    0.8821   O.3       1 RES1   0.0000
   197 C71      -1.0060   -3.4178   -0.2706   C.3       1 RES1   0.0000
   198 C72      -1.5726   -2.5913   -1.4213   C.2       1 RES1   0.0000
   199 O9       -1.0837   -1.4529   -1.5947   O.2       1 RES1   0.0000
   200 N6       -2.5370   -3.1021   -2.1698   N.am      1 RES1   0.0000
   201 C73      -3.2554   -2.2599   -3.1381   C.3       1 RES1   0.0000
   202 C74      -2.4151   -1.4842   -4.1541   C.3       1 RES1   0.0000
   203 C75      -1.5874   -2.4174   -5.0331   C.3       1 RES1   0.0000
   204 C76      -0.7747   -1.6872   -6.0992   C.3       1 RES1   0.0000
   205 C77       0.0954   -2.6474   -6.9217   C.3       1 RES1   0.0000
   206 C78       1.5164   -2.8287   -6.3803   C.3       1 RES1   0.0000
   207 C79       1.6583   -3.6928   -5.1224   C.3       1 RES1   0.0000
   208 C80       1.3079   -5.1541   -5.3819   C.3       1 RES1   0.0000
   209 C81      -3.1189   -4.4210   -1.9176   C.3       1 RES1   0.0000
   210 C82      -2.2478   -5.6331   -2.2933   C.3       1 RES1   0.0000
   211 C83      -2.8452   -6.8798   -1.6382   C.3       1 RES1   0.0000
   212 C84      -2.1601   -5.8152   -3.8033   C.3       1 RES1   0.0000
   213 H113     -1.1368   -8.1318    1.4069   H         1 RES1   0.0000
   214 H114     -0.1361   -6.7129    1.6832   H         1 RES1   0.0000
   215 H115     -0.5112   -7.2273    0.0298   H         1 RES1   0.0000
   216 H116      1.0908   -8.8986    2.0214   H         1 RES1   0.0000
   217 H117      0.7702   -9.2996    0.3391   H         1 RES1   0.0000
   218 H118      2.5518   -7.0740    1.3947   H         1 RES1   0.0000
   219 H119      3.0289   -8.5349    0.5651   H         1 RES1   0.0000
   220 H120      3.1537   -7.1128   -1.2322   H         1 RES1   0.0000
   221 H121      1.4923   -7.6422   -1.3726   H         1 RES1   0.0000
   222 H122      1.0809   -5.4237   -1.5842   H         1 RES1   0.0000
   223 H123      1.1588   -5.4006    0.1762   H         1 RES1   0.0000
   224 H124      3.4620   -4.8752   -1.7407   H         1 RES1   0.0000
   225 H125      2.5052   -3.5979   -1.0240   H         1 RES1   0.0000
   226 H126      3.8490   -5.5537    0.8456   H         1 RES1   0.0000
   227 H127      4.8712   -4.4254    0.0027   H         1 RES1   0.0000
   228 H128      4.3009   -3.4191    2.1399   H         1 RES1   0.0000
   229 H129      3.5293   -2.5052    0.8319   H         1 RES1   0.0000
   230 H130      1.5081   -5.5472    2.3072   H         1 RES1   0.0000
   231 H131      3.0408   -5.1618    3.0713   H         1 RES1   0.0000
   232 H132      0.6882   -3.6717    4.1513   H         1 RES1   0.0000
   233 H133      0.9901   -6.6952    4.5176   H         1 RES1   0.0000
   234 H134     -0.0917   -5.6580    5.4336   H         1 RES1   0.0000
   235 H135     -0.3520   -5.8750    3.7225   H         1 RES1   0.0000
   236 H136      3.0353   -5.1480    5.3914   H         1 RES1   0.0000
   237 H137      2.7930   -3.4075    5.2811   H         1 RES1   0.0000
   238 H138      1.7534   -4.3701    6.3010   H         1 RES1   0.0000
   239 H139     -0.3929   -4.1778    2.0469   H         1 RES1   0.0000
   240 H140     -0.4281   -2.5573    2.8104   H         1 RES1   0.0000
   241 H141      0.0215   -3.6960   -0.5391   H         1 RES1   0.0000
   242 H142     -1.5891   -4.3170   -0.0564   H         1 RES1   0.0000
   243 H143     -3.9203   -2.9190   -3.6982   H         1 RES1   0.0000
   244 H144     -3.8661   -1.5494   -2.5687   H         1 RES1   0.0000
   245 H145     -3.1275   -0.9338   -4.7737   H         1 RES1   0.0000
   246 H146     -1.7698   -0.7608   -3.6513   H         1 RES1   0.0000
   247 H147     -0.9100   -2.9836   -4.3919   H         1 RES1   0.0000
   248 H148     -2.2579   -3.1213   -5.5335   H         1 RES1   0.0000
   249 H149     -1.4678   -1.1655   -6.7625   H         1 RES1   0.0000
   250 H150     -0.1420   -0.9303   -5.6264   H         1 RES1   0.0000
   251 H151     -0.4016   -3.6140   -6.9991   H         1 RES1   0.0000
   252 H152      0.1850   -2.2569   -7.9354   H         1 RES1   0.0000
   253 H153      2.1309   -3.2787   -7.1620   H         1 RES1   0.0000
   254 H154      1.9264   -1.8364   -6.1798   H         1 RES1   0.0000
   255 H155      2.6975   -3.6435   -4.7815   H         1 RES1   0.0000
   256 H156      1.0413   -3.2928   -4.3121   H         1 RES1   0.0000
   257 H157      1.9966   -5.5744   -6.1093   H         1 RES1   0.0000
   258 H158      1.3785   -5.7381   -4.4665   H         1 RES1   0.0000
   259 H159      0.3013   -5.2547   -5.7778   H         1 RES1   0.0000
   260 H160     -3.3943   -4.5017   -0.8631   H         1 RES1   0.0000
   261 H161     -4.0544   -4.4931   -2.4744   H         1 RES1   0.0000
   262 H162     -1.2322   -5.4834   -1.9100   H         1 RES1   0.0000
   263 H163     -3.8491   -7.0679   -2.0083   H         1 RES1   0.0000
   264 H164     -2.2381   -7.7504   -1.8665   H         1 RES1   0.0000
   265 H165     -2.8939   -6.7832   -0.5557   H         1 RES1   0.0000
   266 H166     -3.1488   -5.8903   -4.2468   H         1 RES1   0.0000
   267 H167     -1.6324   -4.9869   -4.2608   H         1 RES1   0.0000
   268 H168     -1.6182   -6.7272   -4.0333   H         1 RES1   0.0000
@<TRIPOS>BOND
     1     1    16    1
     2     1    18    1
     3     1    21    1
     4     1   105    1
     5     1   107    1
     6     1   110    1
     7     1   194    1
     8     1   196    1
     9     1   199    1
    10     2     3    1
    11     2    35    1
    12     2    36    1
    13     2    37    1
    14     3     4    1
    15     3    38    1
    16     3    39    1
    17     4     5    1
    18     4    40    1
    19     4    41    1
    20     5     6    1
    21     5    42    1
    22     5    43    1
    23     6     7    1
    24     6    44    1
    25     6    45    1
    26     7     8    1
    27     7    46    1
    28     7    47    1
    29     8     9    1
    30     8    48    1
    31     8    49    1
    32     9    10    1
    33     9    50    1
    34     9    51    1
    35    10    11    1
    36    10    15    1
    37    11    12    1
    38    11    52    1
    39    11    53    1
    40    12    13    1
    41    12    14    1
    42    12    54    1
    43    13    55    1
    44    13    56    1
    45    13    57    1
    46    14    58    1
    47    14    59    1
    48    14    60    1
    49    15    16    2
    50    15    17    1
    51    17    18    1
    52    17    61    1
    53    17    62    1
    54    18    19    1
    55    19    20    1
    56    19    63    1
    57    19    64    1
    58    20    21    2
    59    20    22    1
    60    22    23    1
    61    22    31    1
    62    23    24    1
    63    23    65    1
    64    23    66    1
    65    24    25    1
    66    24    67    1
    67    24    68    1
    68    25    26    1
    69    25    69    1
    70    25    70    1
    71    26    27    1
    72    26    71    1
    73    26    72    1
    74    27    28    1
    75    27    73    1
    76    27    74    1
    77    28    29    1
    78    28    75    1
    79    28    76    1
    80    29    30    1
    81    29    77    1
    82    29    78    1
    83    30    79    1
    84    30    80    1
    85    30    81    1
    86    31    32    1
    87    31    82    1
    88    31    83    1
    89    32    33    1
    90    32    34    1
    91    32    84    1
    92    33    85    1
    93    33    86    1
    94    33    87    1
    95    34    88    1
    96    34    89    1
    97    34    90    1
    98    91    92    1
    99    91   124    1
   100    91   125    1
   101    91   126    1
   102    92    93    1
   103    92   127    1
   104    92   128    1
   105    93    94    1
   106    93   129    1
   107    93   130    1
   108    94    95    1
   109    94   131    1
   110    94   132    1
   111    95    96    1
   112    95   133    1
   113    95   134    1
   114    96    97    1
   115    96   135    1
   116    96   136    1
   117    97    98    1
   118    97   137    1
   119    97   138    1
   120    98    99    1
   121    98   139    1
   122    98   140    1
   123    99   100    1
   124    99   104    1
   125   100   101    1
   126   100   141    1
   127   100   142    1
   128   101   102    1
   129   101   103    1
   130   101   143    1
   131   102   144    1
   132   102   145    1
   133   102   146    1
   134   103   147    1
   135   103   148    1
   136   103   149    1
   137   104   105    2
   138   104   106    1
   139   106   107    1
   140   106   150    1
   141   106   151    1
   142   107   108    1
   143   108   109    1
   144   108   152    1
   145   108   153    1
   146   109   110    2
   147   109   111    1
   148   111   112    1
   149   111   120    1
   150   112   113    1
   151   112   154    1
   152   112   155    1
   153   113   114    1
   154   113   156    1
   155   113   157    1
   156   114   115    1
   157   114   158    1
   158   114   159    1
   159   115   116    1
   160   115   160    1
   161   115   161    1
   162   116   117    1
   163   116   162    1
   164   116   163    1
   165   117   118    1
   166   117   164    1
   167   117   165    1
   168   118   119    1
   169   118   166    1
   170   118   167    1
   171   119   168    1
   172   119   169    1
   173   119   170    1
   174   120   121    1
   175   120   171    1
   176   120   172    1
   177   121   122    1
   178   121   123    1
   179   121   173    1
   180   122   174    1
   181   122   175    1
   182   122   176    1
   183   123   177    1
   184   123   178    1
   185   123   179    1
   186   180   181    1
   187   180   213    1
   188   180   214    1
   189   180   215    1
   190   181   182    1
   191   181   216    1
   192   181   217    1
   193   182   183    1
   194   182   218    1
   195   182   219    1
   196   183   184    1
   197   183   220    1
   198   183   221    1
   199   184   185    1
   200   184   222    1
   201   184   223    1
   202   185   186    1
   203   185   224    1
   204   185   225    1
   205   186   187    1
   206   186   226    1
   207   186   227    1
   208   187   188    1
   209   187   228    1
   210   187   229    1
   211   188   189    1
   212   188   193    1
   213   189   190    1
   214   189   230    1
   215   189   231    1
   216   190   191    1
   217   190   192    1
   218   190   232    1
   219   191   233    1
   220   191   234    1
   221   191   235    1
   222   192   236    1
   223   192   237    1
   224   192   238    1
   225   193   194    2
   226   193   195    1
   227   195   196    1
   228   195   239    1
   229   195   240    1
   230   196   197    1
   231   197   198    1
   232   197   241    1
   233   197   242    1
   234   198   199    2
   235   198   200    1
   236   200   201    1
   237   200   209    1
   238   201   202    1
   239   201   243    1
   240   201   244    1
   241   202   203    1
   242   202   245    1
   243   202   246    1
   244   203   204    1
   245   203   247    1
   246   203   248    1
   247   204   205    1
   248   204   249    1
   249   204   250    1
   250   205   206    1
   251   205   251    1
   252   205   252    1
   253   206   207    1
   254   206   253    1
   255   206   254    1
   256   207   208    1
   257   207   255    1
   258   207   256    1
   259   208   257    1
   260   208   258    1
   261   208   259    1
   262   209   210    1
   263   209   260    1
   264   209   261    1
   265   210   211    1
   266   210   212    1
   267   210   262    1
   268   211   263    1
   269   211   264    1
   270   211   265    1
   271   212   266    1
   272   212   267    1
   273   212   268    1
@<TRIPOS>SUBSTRUCTURE
     1 RES1      268 GROUP             0 ****  ****    0  
