@<TRIPOS>MOLECULE
am_c3_9H2O_c0_0_nunpairedes_0_charge_3 Charge: 3 Unpaired_Electrons: 0 XTB_Unpaired_Electrons: 0 XTB_Charge: 3
   361   369     1     0     0
SMALL
NoCharges
****
Generated from Architector

@<TRIPOS>ATOM
     1 La1      -0.1561   -0.2191    0.0388   La        1 RES1   0.0000
     2 C1       -7.5453   -1.4472    4.9837   C.3       1 RES1   0.0000
     3 C2       -7.5812    0.0535    5.2404   C.3       1 RES1   0.0000
     4 C3       -6.2698    0.5573    5.8361   C.3       1 RES1   0.0000
     5 C4       -6.2251    2.0772    5.9811   C.3       1 RES1   0.0000
     6 C5       -4.9991    2.5764    6.7524   C.3       1 RES1   0.0000
     7 C6       -3.6416    2.2960    6.0965   C.3       1 RES1   0.0000
     8 C7       -3.3599    3.1592    4.8620   C.3       1 RES1   0.0000
     9 C8       -2.0417    2.8115    4.1494   C.3       1 RES1   0.0000
    10 P1       -1.9921    1.2521    3.1380   P.3       1 RES1   0.0000
    11 O1       -0.9920    1.3382    2.0210   O.2       1 RES1   0.0000
    12 C9       -1.5881   -0.0002    4.4304   C.3       1 RES1   0.0000
    13 C10      -2.6549   -1.0654    4.6263   C.3       1 RES1   0.0000
    14 C11      -2.6106   -1.8510    5.9350   C.3       1 RES1   0.0000
    15 C12      -3.8062   -2.8137    5.9010   C.3       1 RES1   0.0000
    16 C13      -3.7799   -3.9230    6.9434   C.3       1 RES1   0.0000
    17 C14      -3.7871   -3.4054    8.3773   C.3       1 RES1   0.0000
    18 C15      -4.0112   -4.5226    9.3974   C.3       1 RES1   0.0000
    19 C16      -2.8934   -5.5596    9.3906   C.3       1 RES1   0.0000
    20 C17      -3.6936    0.6959    2.5992   C.3       1 RES1   0.0000
    21 C18      -4.3277    1.1184    1.3338   C.ar      1 RES1   0.0000
    22 C19      -5.5110    1.8323    1.3305   C.ar      1 RES1   0.0000
    23 C20      -6.1647    2.1143    0.1487   C.ar      1 RES1   0.0000
    24 C21      -5.5803    1.6627   -1.0212   C.ar      1 RES1   0.0000
    25 C22      -4.4050    0.9234   -0.9992   C.ar      1 RES1   0.0000
    26 C23      -3.8819    0.3625   -2.2696   C.3       1 RES1   0.0000
    27 P2       -2.1049    0.3074   -2.9391   P.3       1 RES1   0.0000
    28 O2       -1.3317   -0.6363   -2.0614   O.2       1 RES1   0.0000
    29 C24      -2.5904   -0.6918   -4.4464   C.3       1 RES1   0.0000
    30 C25      -3.8347   -0.4542   -5.3141   C.3       1 RES1   0.0000
    31 C26      -4.3515   -1.8005   -5.8552   C.3       1 RES1   0.0000
    32 C27      -5.2860   -2.5581   -4.8991   C.3       1 RES1   0.0000
    33 C28      -6.7832   -2.2955   -5.0996   C.3       1 RES1   0.0000
    34 C29      -7.2708   -0.8925   -4.7088   C.3       1 RES1   0.0000
    35 C30      -7.3284    0.0828   -5.8846   C.3       1 RES1   0.0000
    36 C31      -7.7624    1.4743   -5.4414   C.3       1 RES1   0.0000
    37 C32      -0.7438    1.4799   -3.5797   C.3       1 RES1   0.0000
    38 C33      -0.6616    2.2494   -4.9113   C.3       1 RES1   0.0000
    39 C34      -0.8937    3.7819   -4.9819   C.3       1 RES1   0.0000
    40 C35      -0.3400    4.6624   -3.8468   C.3       1 RES1   0.0000
    41 C36      -0.8395    6.1228   -3.9356   C.3       1 RES1   0.0000
    42 C37      -0.5874    7.1447   -2.7866   C.3       1 RES1   0.0000
    43 C38      -0.9665    6.7651   -1.3366   C.3       1 RES1   0.0000
    44 C39      -1.6620    7.7845   -0.4228   C.3       1 RES1   0.0000
    45 N1       -3.8173    0.6093    0.1827   N.ar      1 RES1   0.0000
    46 O3       -2.8203   -0.2066    0.2311   O.co2     1 RES1   0.0000
    47 H1       -8.4989   -1.7882    4.5932   H         1 RES1   0.0000
    48 H2       -6.7715   -1.7042    4.2613   H         1 RES1   0.0000
    49 H3       -7.3496   -1.9879    5.9056   H         1 RES1   0.0000
    50 H4       -7.7886    0.5758    4.3034   H         1 RES1   0.0000
    51 H5       -8.3932    0.2807    5.9294   H         1 RES1   0.0000
    52 H6       -6.1260    0.1058    6.8196   H         1 RES1   0.0000
    53 H7       -5.4507    0.2214    5.1972   H         1 RES1   0.0000
    54 H8       -6.2809    2.5550    4.9990   H         1 RES1   0.0000
    55 H9       -7.1085    2.3918    6.5369   H         1 RES1   0.0000
    56 H10      -5.0957    3.6502    6.9263   H         1 RES1   0.0000
    57 H11      -4.9960    2.0855    7.7269   H         1 RES1   0.0000
    58 H12      -2.8602    2.4945    6.8359   H         1 RES1   0.0000
    59 H13      -3.5903    1.2396    5.8397   H         1 RES1   0.0000
    60 H14      -4.1962    3.0985    4.1612   H         1 RES1   0.0000
    61 H15      -3.2931    4.2018    5.1911   H         1 RES1   0.0000
    62 H16      -1.7291    3.6424    3.5150   H         1 RES1   0.0000
    63 H17      -1.2594    2.6887    4.9062   H         1 RES1   0.0000
    64 H18      -0.6627   -0.4551    4.1032   H         1 RES1   0.0000
    65 H19      -1.4264    0.5396    5.3638   H         1 RES1   0.0000
    66 H20      -3.6440   -0.6157    4.6201   H         1 RES1   0.0000
    67 H21      -2.6159   -1.7638    3.7858   H         1 RES1   0.0000
    68 H22      -1.6764   -2.4050    6.0439   H         1 RES1   0.0000
    69 H23      -2.7033   -1.1659    6.7835   H         1 RES1   0.0000
    70 H24      -4.7182   -2.2284    6.0235   H         1 RES1   0.0000
    71 H25      -3.8539   -3.2831    4.9123   H         1 RES1   0.0000
    72 H26      -4.6571   -4.5550    6.7911   H         1 RES1   0.0000
    73 H27      -2.8985   -4.5437    6.7856   H         1 RES1   0.0000
    74 H28      -2.8410   -2.9050    8.5994   H         1 RES1   0.0000
    75 H29      -4.5858   -2.6679    8.4831   H         1 RES1   0.0000
    76 H30      -4.0808   -4.0775   10.3929   H         1 RES1   0.0000
    77 H31      -4.9647   -5.0132    9.1881   H         1 RES1   0.0000
    78 H32      -1.9258   -5.0739    9.5061   H         1 RES1   0.0000
    79 H33      -3.0287   -6.2562   10.2128   H         1 RES1   0.0000
    80 H34      -2.8921   -6.1303    8.4643   H         1 RES1   0.0000
    81 H35      -3.5703   -0.3889    2.5197   H         1 RES1   0.0000
    82 H36      -4.3596    0.9377    3.4262   H         1 RES1   0.0000
    83 H37      -5.9287    2.1357    2.2736   H         1 RES1   0.0000
    84 H38      -7.0898    2.6613    0.1332   H         1 RES1   0.0000
    85 H39      -6.0528    1.8624   -1.9699   H         1 RES1   0.0000
    86 H40      -3.9671   -0.7288   -2.2211   H         1 RES1   0.0000
    87 H41      -4.5261    0.7012   -3.0742   H         1 RES1   0.0000
    88 H42      -1.7261   -0.7135   -5.1102   H         1 RES1   0.0000
    89 H43      -2.6836   -1.6937   -4.0154   H         1 RES1   0.0000
    90 H44      -4.6450    0.0267   -4.7750   H         1 RES1   0.0000
    91 H45      -3.5756    0.1964   -6.1505   H         1 RES1   0.0000
    92 H46      -4.8745   -1.6483   -6.7994   H         1 RES1   0.0000
    93 H47      -3.4855   -2.4285   -6.0760   H         1 RES1   0.0000
    94 H48      -5.1328   -3.6276   -5.0571   H         1 RES1   0.0000
    95 H49      -5.0239   -2.3454   -3.8579   H         1 RES1   0.0000
    96 H50      -7.0402   -2.4854   -6.1431   H         1 RES1   0.0000
    97 H51      -7.3224   -3.0338   -4.4998   H         1 RES1   0.0000
    98 H52      -8.2765   -0.9728   -4.2898   H         1 RES1   0.0000
    99 H53      -6.6306   -0.4882   -3.9172   H         1 RES1   0.0000
   100 H54      -6.3554    0.1435   -6.3744   H         1 RES1   0.0000
   101 H55      -8.0406   -0.3009   -6.6162   H         1 RES1   0.0000
   102 H56      -7.0688    1.8801   -4.7038   H         1 RES1   0.0000
   103 H57      -7.7952    2.1501   -6.2904   H         1 RES1   0.0000
   104 H58      -8.7539    1.4432   -4.9976   H         1 RES1   0.0000
   105 H59      -0.4001    2.0933   -2.7486   H         1 RES1   0.0000
   106 H60      -0.0236    0.6548   -3.6399   H         1 RES1   0.0000
   107 H61       0.3592    2.0866   -5.2685   H         1 RES1   0.0000
   108 H62      -1.3207    1.7872   -5.6521   H         1 RES1   0.0000
   109 H63      -0.4112    4.1070   -5.9053   H         1 RES1   0.0000
   110 H64      -1.9553    3.9701   -5.1169   H         1 RES1   0.0000
   111 H65      -0.6402    4.2242   -2.8933   H         1 RES1   0.0000
   112 H66       0.7491    4.6479   -3.9005   H         1 RES1   0.0000
   113 H67      -0.3744    6.5712   -4.8187   H         1 RES1   0.0000
   114 H68      -1.9088    6.0969   -4.1195   H         1 RES1   0.0000
   115 H69       0.4680    7.4197   -2.8076   H         1 RES1   0.0000
   116 H70      -1.1424    8.0405   -3.0602   H         1 RES1   0.0000
   117 H71      -1.5877    5.8718   -1.3932   H         1 RES1   0.0000
   118 H72      -0.0563    6.5431   -0.7820   H         1 RES1   0.0000
   119 H73      -1.4434    7.5311    0.6164   H         1 RES1   0.0000
   120 H74      -1.2904    8.7930   -0.5796   H         1 RES1   0.0000
   121 H75      -2.7442    7.7891   -0.5224   H         1 RES1   0.0000
   122 C40      -2.4370   11.0327   -2.3464   C.3       1 RES1   0.0000
   123 C41      -3.0469   10.2813   -3.5282   C.3       1 RES1   0.0000
   124 C42      -3.8673    9.0709   -3.0763   C.3       1 RES1   0.0000
   125 C43      -4.1498    8.0645   -4.1937   C.3       1 RES1   0.0000
   126 C44      -5.0484    6.9126   -3.7251   C.3       1 RES1   0.0000
   127 C45      -4.3963    5.9640   -2.6927   C.3       1 RES1   0.0000
   128 C46      -3.9641    4.6548   -3.3558   C.3       1 RES1   0.0000
   129 C47      -3.1925    3.5415   -2.6155   C.3       1 RES1   0.0000
   130 P3       -2.0752    3.3940   -1.0917   P.3       1 RES1   0.0000
   131 O4       -1.9143    1.9004   -0.9985   O.2       1 RES1   0.0000
   132 C48      -3.3172    4.2394   -0.0014   C.3       1 RES1   0.0000
   133 C49      -3.1590    4.5303    1.4770   C.3       1 RES1   0.0000
   134 C50      -4.4369    5.2251    1.9864   C.3       1 RES1   0.0000
   135 C51      -4.2063    6.3020    3.0479   C.3       1 RES1   0.0000
   136 C52      -5.5255    6.7692    3.6705   C.3       1 RES1   0.0000
   137 C53      -6.4894    7.3767    2.6485   C.3       1 RES1   0.0000
   138 C54      -7.6553    8.1396    3.2845   C.3       1 RES1   0.0000
   139 C55      -8.5790    7.2553    4.1138   C.3       1 RES1   0.0000
   140 C56      -0.4233    3.8952   -0.2990   C.3       1 RES1   0.0000
   141 C57       0.9675    3.8423   -0.8515   C.ar      1 RES1   0.0000
   142 C58       1.5950    4.8840   -1.5146   C.ar      1 RES1   0.0000
   143 C59       2.9660    4.9361   -1.6690   C.ar      1 RES1   0.0000
   144 C60       3.7251    3.9490   -1.0753   C.ar      1 RES1   0.0000
   145 C61       3.0938    2.8877   -0.4472   C.ar      1 RES1   0.0000
   146 C62       3.8961    2.0066    0.4399   C.3       1 RES1   0.0000
   147 P4        3.6962    0.2051    0.8291   P.3       1 RES1   0.0000
   148 O5        2.3292   -0.2250    1.2501   O.2       1 RES1   0.0000
   149 C63       4.8325    0.1213    2.2930   C.3       1 RES1   0.0000
   150 C64       6.2090    0.8040    2.3099   C.3       1 RES1   0.0000
   151 C65       6.5364    1.3472    3.7106   C.3       1 RES1   0.0000
   152 C66       5.7510    2.6110    4.0900   C.3       1 RES1   0.0000
   153 C67       6.4894    3.9323    3.8610   C.3       1 RES1   0.0000
   154 C68       6.7548    4.2946    2.3934   C.3       1 RES1   0.0000
   155 C69       8.1338    3.8645    1.8915   C.3       1 RES1   0.0000
   156 C70       8.3342    4.2149    0.4215   C.3       1 RES1   0.0000
   157 C71       4.3301   -0.9085   -0.4968   C.3       1 RES1   0.0000
   158 C72       5.8428   -1.0369   -0.6766   C.3       1 RES1   0.0000
   159 C73       6.5956    0.1238   -1.3333   C.3       1 RES1   0.0000
   160 C74       6.2648    0.4056   -2.8021   C.3       1 RES1   0.0000
   161 C75       5.0876    1.3590   -2.9873   C.3       1 RES1   0.0000
   162 C76       4.8310    1.7297   -4.4452   C.3       1 RES1   0.0000
   163 C77       3.5179    2.4953   -4.5845   C.3       1 RES1   0.0000
   164 C78       3.2282    2.8788   -6.0284   C.3       1 RES1   0.0000
   165 N2        1.7409    2.7935   -0.4525   N.ar      1 RES1   0.0000
   166 O6        1.1818    1.7288    0.0265   O.co2     1 RES1   0.0000
   167 H76      -2.0826   12.0118   -2.6552   H         1 RES1   0.0000
   168 H77      -1.5840   10.4942   -1.9376   H         1 RES1   0.0000
   169 H78      -3.1702   11.1632   -1.5526   H         1 RES1   0.0000
   170 H79      -2.2482    9.9665   -4.2035   H         1 RES1   0.0000
   171 H80      -3.6949   10.9565   -4.0844   H         1 RES1   0.0000
   172 H81      -4.8172    9.4253   -2.6735   H         1 RES1   0.0000
   173 H82      -3.3341    8.5765   -2.2676   H         1 RES1   0.0000
   174 H83      -3.2067    7.6788   -4.5879   H         1 RES1   0.0000
   175 H84      -4.6560    8.5831   -5.0099   H         1 RES1   0.0000
   176 H85      -5.3719    6.3339   -4.5927   H         1 RES1   0.0000
   177 H86      -5.9419    7.3589   -3.2886   H         1 RES1   0.0000
   178 H87      -5.1189    5.7614   -1.9031   H         1 RES1   0.0000
   179 H88      -3.5400    6.4736   -2.2567   H         1 RES1   0.0000
   180 H89      -3.4323    4.9255   -4.2635   H         1 RES1   0.0000
   181 H90      -4.8757    4.1423   -3.6815   H         1 RES1   0.0000
   182 H91      -2.7193    2.9115   -3.3635   H         1 RES1   0.0000
   183 H92      -3.9515    2.9261   -2.1291   H         1 RES1   0.0000
   184 H93      -4.2287    3.6564   -0.1323   H         1 RES1   0.0000
   185 H94      -3.4826    5.1855   -0.5148   H         1 RES1   0.0000
   186 H95      -2.2963    5.1712    1.6607   H         1 RES1   0.0000
   187 H96      -3.0219    3.5886    2.0030   H         1 RES1   0.0000
   188 H97      -5.1137    4.4726    2.3969   H         1 RES1   0.0000
   189 H98      -4.9440    5.6995    1.1443   H         1 RES1   0.0000
   190 H99      -3.6971    7.1569    2.5988   H         1 RES1   0.0000
   191 H100     -3.5589    5.9177    3.8366   H         1 RES1   0.0000
   192 H101     -5.3061    7.5147    4.4361   H         1 RES1   0.0000
   193 H102     -6.0067    5.9254    4.1669   H         1 RES1   0.0000
   194 H103     -6.8999    6.5883    2.0095   H         1 RES1   0.0000
   195 H104     -5.9324    8.0713    2.0128   H         1 RES1   0.0000
   196 H105     -8.2337    8.6001    2.4796   H         1 RES1   0.0000
   197 H106     -7.2654    8.9465    3.9085   H         1 RES1   0.0000
   198 H107     -8.9306    6.4103    3.5244   H         1 RES1   0.0000
   199 H108     -9.4431    7.8274    4.4398   H         1 RES1   0.0000
   200 H109     -8.0711    6.8798    4.9984   H         1 RES1   0.0000
   201 H110     -0.4903    3.1287    0.4917   H         1 RES1   0.0000
   202 H111     -0.5879    4.8754    0.1400   H         1 RES1   0.0000
   203 H112      1.0106    5.6886   -1.8971   H         1 RES1   0.0000
   204 H113      3.4191    5.7774   -2.1667   H         1 RES1   0.0000
   205 H114      4.8005    4.0154   -1.0829   H         1 RES1   0.0000
   206 H115      3.7770    2.4289    1.4482   H         1 RES1   0.0000
   207 H116      4.9481    2.1098    0.1814   H         1 RES1   0.0000
   208 H117      4.9498   -0.9417    2.5250   H         1 RES1   0.0000
   209 H118      4.2369    0.5578    3.0982   H         1 RES1   0.0000
   210 H119      6.2663    1.6330    1.6100   H         1 RES1   0.0000
   211 H120      6.9813    0.0864    2.0265   H         1 RES1   0.0000
   212 H121      7.6026    1.5695    3.7663   H         1 RES1   0.0000
   213 H122      6.3402    0.5565    4.4371   H         1 RES1   0.0000
   214 H123      5.5087    2.5593    5.1530   H         1 RES1   0.0000
   215 H124      4.8014    2.6422    3.5477   H         1 RES1   0.0000
   216 H125      7.4355    3.9110    4.4029   H         1 RES1   0.0000
   217 H126      5.8779    4.7183    4.3099   H         1 RES1   0.0000
   218 H127      6.6853    5.3790    2.2814   H         1 RES1   0.0000
   219 H128      5.9739    3.8611    1.7600   H         1 RES1   0.0000
   220 H129      8.2718    2.7905    2.0248   H         1 RES1   0.0000
   221 H130      8.8934    4.3715    2.4890   H         1 RES1   0.0000
   222 H131      7.6014    3.7032   -0.2042   H         1 RES1   0.0000
   223 H132      9.3269    3.9188    0.0949   H         1 RES1   0.0000
   224 H133      8.2328    5.2859    0.2623   H         1 RES1   0.0000
   225 H134      3.8110   -0.6590   -1.4221   H         1 RES1   0.0000
   226 H135      3.9396   -1.8816   -0.1763   H         1 RES1   0.0000
   227 H136      6.0337   -1.9389   -1.2681   H         1 RES1   0.0000
   228 H137      6.2892   -1.2062    0.3066   H         1 RES1   0.0000
   229 H138      7.6529   -0.1375   -1.2648   H         1 RES1   0.0000
   230 H139      6.4589    1.0374   -0.7552   H         1 RES1   0.0000
   231 H140      6.0838   -0.5337   -3.3249   H         1 RES1   0.0000
   232 H141      7.1431    0.8594   -3.2627   H         1 RES1   0.0000
   233 H142      5.2994    2.2742   -2.4344   H         1 RES1   0.0000
   234 H143      4.1716    0.9311   -2.5737   H         1 RES1   0.0000
   235 H144      4.7927    0.8271   -5.0568   H         1 RES1   0.0000
   236 H145      5.6492    2.3444   -4.8222   H         1 RES1   0.0000
   237 H146      3.5680    3.4000   -3.9752   H         1 RES1   0.0000
   238 H147      2.7023    1.8817   -4.1869   H         1 RES1   0.0000
   239 H148      4.0420    3.4737   -6.4321   H         1 RES1   0.0000
   240 H149      2.3156    3.4653   -6.1022   H         1 RES1   0.0000
   241 H150      3.1213    1.9955   -6.6529   H         1 RES1   0.0000
   242 C79       5.4852   -4.2286    5.1020   C.3       1 RES1   0.0000
   243 C80       4.5862   -5.4044    5.4566   C.3       1 RES1   0.0000
   244 C81       3.2355   -4.9555    6.0083   C.3       1 RES1   0.0000
   245 C82       2.2866   -6.1342    6.2156   C.3       1 RES1   0.0000
   246 C83       0.9099   -5.7507    6.7655   C.3       1 RES1   0.0000
   247 C84       0.1580   -4.6824    5.9652   C.3       1 RES1   0.0000
   248 C85       0.0445   -5.0157    4.4759   C.3       1 RES1   0.0000
   249 C86      -0.6545   -3.9397    3.6369   C.3       1 RES1   0.0000
   250 P5        0.3914   -2.5361    3.0669   P.3       1 RES1   0.0000
   251 O7       -0.3528   -1.6457    2.1096   O.2       1 RES1   0.0000
   252 C87       1.1986   -1.7666    4.5472   C.3       1 RES1   0.0000
   253 C88       1.9504   -0.4610    4.3153   C.3       1 RES1   0.0000
   254 C89       2.7173   -0.0102    5.5682   C.3       1 RES1   0.0000
   255 C90       3.8743   -0.9428    5.9376   C.3       1 RES1   0.0000
   256 C91       4.8295   -0.3487    6.9752   C.3       1 RES1   0.0000
   257 C92       4.2131   -0.2336    8.3688   C.3       1 RES1   0.0000
   258 C93       5.2559    0.0068    9.4622   C.3       1 RES1   0.0000
   259 C94       5.9584    1.3533    9.3439   C.3       1 RES1   0.0000
   260 C95       1.8260   -3.3420    2.2283   C.3       1 RES1   0.0000
   261 C96       1.4710   -4.2058    1.0717   C.ar      1 RES1   0.0000
   262 C97       1.2910   -5.5764    1.1192   C.ar      1 RES1   0.0000
   263 C98       1.2341   -6.3097   -0.0552   C.ar      1 RES1   0.0000
   264 C99       1.5063   -5.6653   -1.2516   C.ar      1 RES1   0.0000
   265 C100      1.6692   -4.2926   -1.2748   C.ar      1 RES1   0.0000
   266 C101      2.2970   -3.5359   -2.3954   C.3       1 RES1   0.0000
   267 P6        1.6614   -1.9465   -3.1453   P.3       1 RES1   0.0000
   268 O8        1.3849   -0.7653   -2.2680   O.2       1 RES1   0.0000
   269 C102      3.0473   -1.5080   -4.2722   C.3       1 RES1   0.0000
   270 C103      3.3484   -2.4447   -5.4442   C.3       1 RES1   0.0000
   271 C104      4.8175   -2.3694   -5.8820   C.3       1 RES1   0.0000
   272 C105      5.7781   -3.0873   -4.9252   C.3       1 RES1   0.0000
   273 C106      6.0699   -4.5522   -5.2678   C.3       1 RES1   0.0000
   274 C107      4.9090   -5.5358   -5.0565   C.3       1 RES1   0.0000
   275 C108      4.1107   -5.8348   -6.3263   C.3       1 RES1   0.0000
   276 C109      2.9157   -6.7376   -6.0416   C.3       1 RES1   0.0000
   277 C110      0.2148   -2.3363   -4.1989   C.3       1 RES1   0.0000
   278 C111      0.1534   -3.5691   -5.1020   C.3       1 RES1   0.0000
   279 C112     -0.2963   -4.8638   -4.4238   C.3       1 RES1   0.0000
   280 C113     -1.7184   -4.8112   -3.8478   C.3       1 RES1   0.0000
   281 C114     -1.7450   -4.6144   -2.3310   C.3       1 RES1   0.0000
   282 C115     -3.1689   -4.5283   -1.7887   C.3       1 RES1   0.0000
   283 C116     -3.1967   -4.2814   -0.2815   C.3       1 RES1   0.0000
   284 C117     -2.7624   -5.5044    0.5175   C.3       1 RES1   0.0000
   285 N3        1.4597   -3.5895   -0.1340   N.ar      1 RES1   0.0000
   286 O9        1.4033   -2.3007   -0.1981   O.co2     1 RES1   0.0000
   287 H151      6.4441   -4.5830    4.7382   H         1 RES1   0.0000
   288 H152      5.0365   -3.6096    4.3258   H         1 RES1   0.0000
   289 H153      5.6608   -3.6083    5.9752   H         1 RES1   0.0000
   290 H154      4.4288   -6.0199    4.5676   H         1 RES1   0.0000
   291 H155      5.0816   -6.0266    6.2000   H         1 RES1   0.0000
   292 H156      3.3808   -4.4378    6.9585   H         1 RES1   0.0000
   293 H157      2.7967   -4.2437    5.3046   H         1 RES1   0.0000
   294 H158      2.1712   -6.6836    5.2784   H         1 RES1   0.0000
   295 H159      2.7454   -6.8224    6.9250   H         1 RES1   0.0000
   296 H160      0.2972   -6.6523    6.8150   H         1 RES1   0.0000
   297 H161      1.0313   -5.3734    7.7823   H         1 RES1   0.0000
   298 H162     -0.8437   -4.5839    6.3881   H         1 RES1   0.0000
   299 H163      0.6634   -3.7297    6.1027   H         1 RES1   0.0000
   300 H164      1.0425   -5.2029    4.0838   H         1 RES1   0.0000
   301 H165     -0.5231   -5.9452    4.3797   H         1 RES1   0.0000
   302 H166     -1.0419   -4.3731    2.7081   H         1 RES1   0.0000
   303 H167     -1.5049   -3.5527    4.1941   H         1 RES1   0.0000
   304 H168      0.4684   -1.6485    5.3500   H         1 RES1   0.0000
   305 H169      1.9222   -2.5134    4.8740   H         1 RES1   0.0000
   306 H170      2.6475   -0.6179    3.4962   H         1 RES1   0.0000
   307 H171      1.2686    0.3351    4.0013   H         1 RES1   0.0000
   308 H172      3.1201    0.9887    5.3814   H         1 RES1   0.0000
   309 H173      2.0278    0.0719    6.4114   H         1 RES1   0.0000
   310 H174      3.4812   -1.8793    6.3360   H         1 RES1   0.0000
   311 H175      4.4409   -1.1748    5.0314   H         1 RES1   0.0000
   312 H176      5.7061   -0.9963    7.0370   H         1 RES1   0.0000
   313 H177      5.1699    0.6325    6.6417   H         1 RES1   0.0000
   314 H178      3.4843    0.5800    8.3848   H         1 RES1   0.0000
   315 H179      3.6853   -1.1640    8.5963   H         1 RES1   0.0000
   316 H180      4.7556   -0.0457   10.4307   H         1 RES1   0.0000
   317 H181      5.9978   -0.7941    9.4337   H         1 RES1   0.0000
   318 H182      5.2317    2.1617    9.3025   H         1 RES1   0.0000
   319 H183      6.5984    1.5155   10.2064   H         1 RES1   0.0000
   320 H184      6.5795    1.3980    8.4531   H         1 RES1   0.0000
   321 H185      2.4302   -2.5031    1.8599   H         1 RES1   0.0000
   322 H186      2.3914   -3.9140    2.9642   H         1 RES1   0.0000
   323 H187      1.2266   -6.0675    2.0722   H         1 RES1   0.0000
   324 H188      1.0672   -7.3717   -0.0255   H         1 RES1   0.0000
   325 H189      1.6147   -6.2414   -2.1568   H         1 RES1   0.0000
   326 H190      3.2911   -3.2399   -2.0351   H         1 RES1   0.0000
   327 H191      2.4546   -4.2010   -3.2424   H         1 RES1   0.0000
   328 H192      2.8072   -0.5098   -4.6471   H         1 RES1   0.0000
   329 H193      3.9393   -1.4017   -3.6521   H         1 RES1   0.0000
   330 H194      3.1326   -3.4786   -5.1841   H         1 RES1   0.0000
   331 H195      2.7175   -2.1715   -6.2921   H         1 RES1   0.0000
   332 H196      4.9209   -2.8111   -6.8751   H         1 RES1   0.0000
   333 H197      5.1023   -1.3180   -5.9768   H         1 RES1   0.0000
   334 H198      6.7320   -2.5562   -4.9440   H         1 RES1   0.0000
   335 H199      5.3924   -3.0347   -3.9024   H         1 RES1   0.0000
   336 H200      6.4110   -4.6131   -6.3017   H         1 RES1   0.0000
   337 H201      6.9049   -4.8610   -4.6357   H         1 RES1   0.0000
   338 H202      5.3127   -6.4812   -4.6878   H         1 RES1   0.0000
   339 H203      4.2428   -5.1558   -4.2748   H         1 RES1   0.0000
   340 H204      3.7638   -4.9085   -6.7877   H         1 RES1   0.0000
   341 H205      4.7726   -6.3259   -7.0411   H         1 RES1   0.0000
   342 H206      2.2425   -6.2795   -5.3164   H         1 RES1   0.0000
   343 H207      2.3575   -6.9235   -6.9544   H         1 RES1   0.0000
   344 H208      3.2434   -7.6951   -5.6451   H         1 RES1   0.0000
   345 H209     -0.6480   -2.3130   -3.5349   H         1 RES1   0.0000
   346 H210      0.1749   -1.4431   -4.8323   H         1 RES1   0.0000
   347 H211     -0.5640   -3.3500   -5.8996   H         1 RES1   0.0000
   348 H212      1.1122   -3.7471   -5.5852   H         1 RES1   0.0000
   349 H213     -0.2434   -5.6509   -5.1794   H         1 RES1   0.0000
   350 H214      0.3926   -5.1301   -3.6243   H         1 RES1   0.0000
   351 H215     -2.2835   -4.0160   -4.3373   H         1 RES1   0.0000
   352 H216     -2.2280   -5.7480   -4.0796   H         1 RES1   0.0000
   353 H217     -1.2305   -5.4592   -1.8680   H         1 RES1   0.0000
   354 H218     -1.2088   -3.7010   -2.0451   H         1 RES1   0.0000
   355 H219     -3.6933   -3.7161   -2.2992   H         1 RES1   0.0000
   356 H220     -3.7029   -5.4533   -2.0161   H         1 RES1   0.0000
   357 H221     -2.5538   -3.4239   -0.0436   H         1 RES1   0.0000
   358 H222     -4.2155   -4.0236    0.0095   H         1 RES1   0.0000
   359 H223     -1.7138   -5.7411    0.3527   H         1 RES1   0.0000
   360 H224     -2.9139   -5.3414    1.5813   H         1 RES1   0.0000
   361 H225     -3.3504   -6.3709    0.2281   H         1 RES1   0.0000
@<TRIPOS>BOND
     1     1    11    1
     2     1    28    1
     3     1    46    1
     4     1   131    1
     5     1   148    1
     6     1   166    1
     7     1   251    1
     8     1   268    1
     9     1   286    1
    10     2     3    1
    11     2    47    1
    12     2    48    1
    13     2    49    1
    14     3     4    1
    15     3    50    1
    16     3    51    1
    17     4     5    1
    18     4    52    1
    19     4    53    1
    20     5     6    1
    21     5    54    1
    22     5    55    1
    23     6     7    1
    24     6    56    1
    25     6    57    1
    26     7     8    1
    27     7    58    1
    28     7    59    1
    29     8     9    1
    30     8    60    1
    31     8    61    1
    32     9    10    1
    33     9    62    1
    34     9    63    1
    35    10    11    2
    36    10    12    1
    37    10    20    1
    38    12    13    1
    39    12    64    1
    40    12    65    1
    41    13    14    1
    42    13    66    1
    43    13    67    1
    44    14    15    1
    45    14    68    1
    46    14    69    1
    47    15    16    1
    48    15    70    1
    49    15    71    1
    50    16    17    1
    51    16    72    1
    52    16    73    1
    53    17    18    1
    54    17    74    1
    55    17    75    1
    56    18    19    1
    57    18    76    1
    58    18    77    1
    59    19    78    1
    60    19    79    1
    61    19    80    1
    62    20    21    1
    63    20    81    1
    64    20    82    1
    65    21    22    1
    66    21    45    2
    67    22    23    2
    68    22    83    1
    69    23    24    1
    70    23    84    1
    71    24    25    2
    72    24    85    1
    73    25    26    1
    74    25    45    1
    75    26    27    1
    76    26    86    1
    77    26    87    1
    78    27    28    2
    79    27    29    1
    80    27    37    1
    81    29    30    1
    82    29    88    1
    83    29    89    1
    84    30    31    1
    85    30    90    1
    86    30    91    1
    87    31    32    1
    88    31    92    1
    89    31    93    1
    90    32    33    1
    91    32    94    1
    92    32    95    1
    93    33    34    1
    94    33    96    1
    95    33    97    1
    96    34    35    1
    97    34    98    1
    98    34    99    1
    99    35    36    1
   100    35   100    1
   101    35   101    1
   102    36   102    1
   103    36   103    1
   104    36   104    1
   105    37    38    1
   106    37   105    1
   107    37   106    1
   108    38    39    1
   109    38   107    1
   110    38   108    1
   111    39    40    1
   112    39   109    1
   113    39   110    1
   114    40    41    1
   115    40   111    1
   116    40   112    1
   117    41    42    1
   118    41   113    1
   119    41   114    1
   120    42    43    1
   121    42   115    1
   122    42   116    1
   123    43    44    1
   124    43   117    1
   125    43   118    1
   126    44   119    1
   127    44   120    1
   128    44   121    1
   129    45    46    1
   130   122   123    1
   131   122   167    1
   132   122   168    1
   133   122   169    1
   134   123   124    1
   135   123   170    1
   136   123   171    1
   137   124   125    1
   138   124   172    1
   139   124   173    1
   140   125   126    1
   141   125   174    1
   142   125   175    1
   143   126   127    1
   144   126   176    1
   145   126   177    1
   146   127   128    1
   147   127   178    1
   148   127   179    1
   149   128   129    1
   150   128   180    1
   151   128   181    1
   152   129   130    1
   153   129   182    1
   154   129   183    1
   155   130   131    2
   156   130   132    1
   157   130   140    1
   158   132   133    1
   159   132   184    1
   160   132   185    1
   161   133   134    1
   162   133   186    1
   163   133   187    1
   164   134   135    1
   165   134   188    1
   166   134   189    1
   167   135   136    1
   168   135   190    1
   169   135   191    1
   170   136   137    1
   171   136   192    1
   172   136   193    1
   173   137   138    1
   174   137   194    1
   175   137   195    1
   176   138   139    1
   177   138   196    1
   178   138   197    1
   179   139   198    1
   180   139   199    1
   181   139   200    1
   182   140   141    1
   183   140   201    1
   184   140   202    1
   185   141   142    1
   186   141   165    2
   187   142   143    2
   188   142   203    1
   189   143   144    1
   190   143   204    1
   191   144   145    2
   192   144   205    1
   193   145   146    1
   194   145   165    1
   195   146   147    1
   196   146   206    1
   197   146   207    1
   198   147   148    2
   199   147   149    1
   200   147   157    1
   201   149   150    1
   202   149   208    1
   203   149   209    1
   204   150   151    1
   205   150   210    1
   206   150   211    1
   207   151   152    1
   208   151   212    1
   209   151   213    1
   210   152   153    1
   211   152   214    1
   212   152   215    1
   213   153   154    1
   214   153   216    1
   215   153   217    1
   216   154   155    1
   217   154   218    1
   218   154   219    1
   219   155   156    1
   220   155   220    1
   221   155   221    1
   222   156   222    1
   223   156   223    1
   224   156   224    1
   225   157   158    1
   226   157   225    1
   227   157   226    1
   228   158   159    1
   229   158   227    1
   230   158   228    1
   231   159   160    1
   232   159   229    1
   233   159   230    1
   234   160   161    1
   235   160   231    1
   236   160   232    1
   237   161   162    1
   238   161   233    1
   239   161   234    1
   240   162   163    1
   241   162   235    1
   242   162   236    1
   243   163   164    1
   244   163   237    1
   245   163   238    1
   246   164   239    1
   247   164   240    1
   248   164   241    1
   249   165   166    1
   250   242   243    1
   251   242   287    1
   252   242   288    1
   253   242   289    1
   254   243   244    1
   255   243   290    1
   256   243   291    1
   257   244   245    1
   258   244   292    1
   259   244   293    1
   260   245   246    1
   261   245   294    1
   262   245   295    1
   263   246   247    1
   264   246   296    1
   265   246   297    1
   266   247   248    1
   267   247   298    1
   268   247   299    1
   269   248   249    1
   270   248   300    1
   271   248   301    1
   272   249   250    1
   273   249   302    1
   274   249   303    1
   275   250   251    2
   276   250   252    1
   277   250   260    1
   278   252   253    1
   279   252   304    1
   280   252   305    1
   281   253   254    1
   282   253   306    1
   283   253   307    1
   284   254   255    1
   285   254   308    1
   286   254   309    1
   287   255   256    1
   288   255   310    1
   289   255   311    1
   290   256   257    1
   291   256   312    1
   292   256   313    1
   293   257   258    1
   294   257   314    1
   295   257   315    1
   296   258   259    1
   297   258   316    1
   298   258   317    1
   299   259   318    1
   300   259   319    1
   301   259   320    1
   302   260   261    1
   303   260   321    1
   304   260   322    1
   305   261   262    1
   306   261   285    2
   307   262   263    2
   308   262   323    1
   309   263   264    1
   310   263   324    1
   311   264   265    2
   312   264   325    1
   313   265   266    1
   314   265   285    1
   315   266   267    1
   316   266   326    1
   317   266   327    1
   318   267   268    2
   319   267   269    1
   320   267   277    1
   321   269   270    1
   322   269   328    1
   323   269   329    1
   324   270   271    1
   325   270   330    1
   326   270   331    1
   327   271   272    1
   328   271   332    1
   329   271   333    1
   330   272   273    1
   331   272   334    1
   332   272   335    1
   333   273   274    1
   334   273   336    1
   335   273   337    1
   336   274   275    1
   337   274   338    1
   338   274   339    1
   339   275   276    1
   340   275   340    1
   341   275   341    1
   342   276   342    1
   343   276   343    1
   344   276   344    1
   345   277   278    1
   346   277   345    1
   347   277   346    1
   348   278   279    1
   349   278   347    1
   350   278   348    1
   351   279   280    1
   352   279   349    1
   353   279   350    1
   354   280   281    1
   355   280   351    1
   356   280   352    1
   357   281   282    1
   358   281   353    1
   359   281   354    1
   360   282   283    1
   361   282   355    1
   362   282   356    1
   363   283   284    1
   364   283   357    1
   365   283   358    1
   366   284   359    1
   367   284   360    1
   368   284   361    1
   369   285   286    1
@<TRIPOS>SUBSTRUCTURE
     1 RES1      361 GROUP             0 ****  ****    0  
