@<TRIPOS>MOLECULE
am_c3_9H2O_c0_0_nunpairedes_0_charge_3 Charge: 3 Unpaired_Electrons: 0 XTB_Unpaired_Electrons: 0 XTB_Charge: 3
   256   267     1     0     0
SMALL
NoCharges
****
Generated from Architector

@<TRIPOS>ATOM
     1 La1      -0.0599    0.1946    0.0462   La        1 RES1   0.0000
     2 C1        6.6462    5.7307    0.6363   C.3       1 RES1   0.0000
     3 C2        6.9758    4.5466   -0.2647   C.3       1 RES1   0.0000
     4 C3        5.7491    3.8390   -0.8381   C.3       1 RES1   0.0000
     5 C4        4.9671    4.7005   -1.8325   C.3       1 RES1   0.0000
     6 C5        3.5009    4.2812   -1.9023   C.3       1 RES1   0.0000
     7 C6        2.6250    5.2688   -2.6708   C.3       1 RES1   0.0000
     8 C7        1.1888    4.7582   -2.7875   C.3       1 RES1   0.0000
     9 C8        0.2384    5.1300   -1.6549   C.3       1 RES1   0.0000
    10 N1        0.6845    4.7319   -0.3247   N.am      1 RES1   0.0000
    11 C9        0.8297    5.8545    0.5928   C.3       1 RES1   0.0000
    12 C10      -0.4699    6.6421    0.7912   C.3       1 RES1   0.0000
    13 C11      -1.4766    5.9120    1.6800   C.3       1 RES1   0.0000
    14 C12      -2.3705    6.9088    2.4242   C.3       1 RES1   0.0000
    15 C13      -1.7932    7.3212    3.7803   C.3       1 RES1   0.0000
    16 C14      -0.4468    8.0432    3.7130   C.3       1 RES1   0.0000
    17 C15       0.0473    8.5000    5.0853   C.3       1 RES1   0.0000
    18 C16      -0.7825    9.6347    5.6685   C.3       1 RES1   0.0000
    19 C17       0.8245    3.4441   -0.0355   C.2       1 RES1   0.0000
    20 O1        0.5194    2.5266   -0.8345   O.2       1 RES1   0.0000
    21 C18       1.4247    3.0195    1.2747   C.ar      1 RES1   0.0000
    22 C19       2.5428    3.6826    1.8098   C.ar      1 RES1   0.0000
    23 C20       3.0349    3.2788    3.0256   C.ar      1 RES1   0.0000
    24 C21       2.4501    2.1732    3.6658   C.ar      1 RES1   0.0000
    25 C22       2.9268    1.7167    4.9284   C.ar      1 RES1   0.0000
    26 C23       2.4804    0.5537    5.4552   C.ar      1 RES1   0.0000
    27 C24       1.5736   -0.2665    4.7267   C.ar      1 RES1   0.0000
    28 C25       1.2750   -1.5713    5.1422   C.ar      1 RES1   0.0000
    29 C26       0.5178   -2.3829    4.3350   C.ar      1 RES1   0.0000
    30 C27      -0.0097   -1.8824    3.1333   C.ar      1 RES1   0.0000
    31 C28      -0.9195   -2.6135    2.1767   C.2       1 RES1   0.0000
    32 O2       -1.0482   -2.0655    1.0478   O.2       1 RES1   0.0000
    33 N2       -1.6299   -3.7161    2.4568   N.am      1 RES1   0.0000
    34 C29      -2.6583   -4.0571    1.4684   C.3       1 RES1   0.0000
    35 C30      -3.8524   -3.0967    1.5092   C.3       1 RES1   0.0000
    36 C31      -5.0277   -3.5583    2.3720   C.3       1 RES1   0.0000
    37 C32      -6.2491   -2.6938    2.0550   C.3       1 RES1   0.0000
    38 C33      -7.5440   -3.1468    2.7314   C.3       1 RES1   0.0000
    39 C34      -8.0515   -4.5501    2.3878   C.3       1 RES1   0.0000
    40 C35      -8.7384   -4.6828    1.0281   C.3       1 RES1   0.0000
    41 C36      -7.7820   -4.7200   -0.1602   C.3       1 RES1   0.0000
    42 C37      -1.5969   -4.6828    3.5564   C.3       1 RES1   0.0000
    43 C38      -1.1378   -6.0984    3.1338   C.3       1 RES1   0.0000
    44 C39       0.3754   -6.3055    3.1262   C.3       1 RES1   0.0000
    45 C40       0.8095   -7.7087    2.6746   C.3       1 RES1   0.0000
    46 C41       0.4681   -8.0924    1.2233   C.3       1 RES1   0.0000
    47 C42       1.6351   -7.9541    0.2424   C.3       1 RES1   0.0000
    48 C43       1.2253   -8.3010   -1.1897   C.3       1 RES1   0.0000
    49 C44       2.2871   -7.9438   -2.2248   C.3       1 RES1   0.0000
    50 N3        0.2639   -0.6380    2.7263   N.ar      1 RES1   0.0000
    51 C45       1.0427    0.1596    3.4788   C.ar      1 RES1   0.0000
    52 C46       1.4454    1.4540    2.9673   C.ar      1 RES1   0.0000
    53 N4        0.9242    1.9084    1.8082   N.ar      1 RES1   0.0000
    54 H1        7.5515    6.0949    1.1137   H         1 RES1   0.0000
    55 H2        5.9433    5.4353    1.4136   H         1 RES1   0.0000
    56 H3        6.2205    6.5609    0.0801   H         1 RES1   0.0000
    57 H4        7.5490    3.8235    0.3148   H         1 RES1   0.0000
    58 H5        7.6071    4.8795   -1.0849   H         1 RES1   0.0000
    59 H6        5.0906    3.5547   -0.0106   H         1 RES1   0.0000
    60 H7        6.0635    2.9163   -1.3330   H         1 RES1   0.0000
    61 H8        5.4263    4.6314   -2.8200   H         1 RES1   0.0000
    62 H9        5.0180    5.7436   -1.5221   H         1 RES1   0.0000
    63 H10       3.1169    4.1824   -0.8851   H         1 RES1   0.0000
    64 H11       3.4135    3.2968   -2.3726   H         1 RES1   0.0000
    65 H12       3.0338    5.3765   -3.6770   H         1 RES1   0.0000
    66 H13       2.6547    6.2551   -2.2027   H         1 RES1   0.0000
    67 H14       1.2279    3.6743   -2.8508   H         1 RES1   0.0000
    68 H15       0.7390    5.1619   -3.6963   H         1 RES1   0.0000
    69 H16      -0.7304    4.6628   -1.8554   H         1 RES1   0.0000
    70 H17       0.1163    6.2096   -1.6492   H         1 RES1   0.0000
    71 H18       1.5986    6.5205    0.1908   H         1 RES1   0.0000
    72 H19       1.1590    5.4951    1.5656   H         1 RES1   0.0000
    73 H20      -0.9451    6.8840   -0.1595   H         1 RES1   0.0000
    74 H21      -0.2044    7.5907    1.2534   H         1 RES1   0.0000
    75 H22      -0.9583    5.2797    2.4080   H         1 RES1   0.0000
    76 H23      -2.0885    5.2538    1.0610   H         1 RES1   0.0000
    77 H24      -3.3521    6.4597    2.5907   H         1 RES1   0.0000
    78 H25      -2.5244    7.7926    1.8017   H         1 RES1   0.0000
    79 H26      -1.6846    6.4221    4.3946   H         1 RES1   0.0000
    80 H27      -2.5243    7.9706    4.2605   H         1 RES1   0.0000
    81 H28      -0.5332    8.9197    3.0647   H         1 RES1   0.0000
    82 H29       0.3046    7.3692    3.2915   H         1 RES1   0.0000
    83 H30       1.0793    8.8354    4.9753   H         1 RES1   0.0000
    84 H31       0.0514    7.6500    5.7707   H         1 RES1   0.0000
    85 H32      -0.8394   10.4615    4.9638   H         1 RES1   0.0000
    86 H33      -0.3316   10.0000    6.5871   H         1 RES1   0.0000
    87 H34      -1.7923    9.3059    5.8985   H         1 RES1   0.0000
    88 H35       3.0300    4.4718    1.2598   H         1 RES1   0.0000
    89 H36       3.8950    3.7569    3.4705   H         1 RES1   0.0000
    90 H37       3.6804    2.3002    5.4361   H         1 RES1   0.0000
    91 H38       2.8665    0.1772    6.3917   H         1 RES1   0.0000
    92 H39       1.6972   -1.9443    6.0640   H         1 RES1   0.0000
    93 H40       0.3838   -3.4052    4.6296   H         1 RES1   0.0000
    94 H41      -3.0123   -5.0708    1.6467   H         1 RES1   0.0000
    95 H42      -2.2104   -4.0070    0.4787   H         1 RES1   0.0000
    96 H43      -4.2186   -2.9918    0.4830   H         1 RES1   0.0000
    97 H44      -3.4992   -2.1258    1.8562   H         1 RES1   0.0000
    98 H45      -4.7953   -3.4952    3.4383   H         1 RES1   0.0000
    99 H46      -5.2494   -4.5987    2.1308   H         1 RES1   0.0000
   100 H47      -6.3882   -2.6888    0.9737   H         1 RES1   0.0000
   101 H48      -6.0451   -1.6652    2.3724   H         1 RES1   0.0000
   102 H49      -8.3209   -2.4285    2.4611   H         1 RES1   0.0000
   103 H50      -7.4023   -3.0887    3.8127   H         1 RES1   0.0000
   104 H51      -8.7805   -4.8160    3.1558   H         1 RES1   0.0000
   105 H52      -7.2430   -5.2799    2.4521   H         1 RES1   0.0000
   106 H53      -9.4494   -3.8653    0.9048   H         1 RES1   0.0000
   107 H54      -9.3096   -5.6124    1.0390   H         1 RES1   0.0000
   108 H55      -7.4006   -3.7307   -0.4062   H         1 RES1   0.0000
   109 H56      -8.2942   -5.1032   -1.0389   H         1 RES1   0.0000
   110 H57      -6.9410   -5.3766    0.0567   H         1 RES1   0.0000
   111 H58      -2.6185   -4.7616    3.9392   H         1 RES1   0.0000
   112 H59      -0.9786   -4.3403    4.3753   H         1 RES1   0.0000
   113 H60      -1.5344   -6.3433    2.1503   H         1 RES1   0.0000
   114 H61      -1.5864   -6.8184    3.8182   H         1 RES1   0.0000
   115 H62       0.7643   -6.1631    4.1374   H         1 RES1   0.0000
   116 H63       0.8310   -5.5672    2.4727   H         1 RES1   0.0000
   117 H64       0.3709   -8.4432    3.3516   H         1 RES1   0.0000
   118 H65       1.8913   -7.7645    2.8028   H         1 RES1   0.0000
   119 H66      -0.3568   -7.4769    0.8642   H         1 RES1   0.0000
   120 H67       0.1190   -9.1254    1.2062   H         1 RES1   0.0000
   121 H68       2.4513   -8.6039    0.5547   H         1 RES1   0.0000
   122 H69       1.9982   -6.9266    0.2672   H         1 RES1   0.0000
   123 H70       0.3038   -7.7687   -1.4348   H         1 RES1   0.0000
   124 H71       1.0073   -9.3663   -1.2598   H         1 RES1   0.0000
   125 H72       2.5036   -6.8758   -2.2288   H         1 RES1   0.0000
   126 H73       1.9432   -8.2132   -3.2203   H         1 RES1   0.0000
   127 H74       3.2156   -8.4706   -2.0282   H         1 RES1   0.0000
   128 C47      -7.2612    1.7948   -6.0748   C.3       1 RES1   0.0000
   129 C48      -6.7197    0.9000   -4.9689   C.3       1 RES1   0.0000
   130 C49      -7.5749    1.0086   -3.7100   C.3       1 RES1   0.0000
   131 C50      -7.0295    0.2314   -2.5100   C.3       1 RES1   0.0000
   132 C51      -5.7413    0.8095   -1.9107   C.3       1 RES1   0.0000
   133 C52      -5.9318    2.1990   -1.2978   C.3       1 RES1   0.0000
   134 C53      -4.6648    2.7875   -0.6707   C.3       1 RES1   0.0000
   135 C54      -3.6676    3.4248   -1.6486   C.3       1 RES1   0.0000
   136 N5       -3.1822    2.4817   -2.6542   N.am      1 RES1   0.0000
   137 C55      -3.5788    2.7439   -4.0312   C.3       1 RES1   0.0000
   138 C56      -2.8276    3.8991   -4.7063   C.3       1 RES1   0.0000
   139 C57      -1.3144    3.7135   -4.7182   C.3       1 RES1   0.0000
   140 C58      -0.6779    2.6094   -5.5762   C.3       1 RES1   0.0000
   141 C59       0.7260    2.3624   -5.0064   C.3       1 RES1   0.0000
   142 C60       1.5787    1.2442   -5.6074   C.3       1 RES1   0.0000
   143 C61       2.3681    1.6543   -6.8507   C.3       1 RES1   0.0000
   144 C62       3.6499    0.8419   -6.9564   C.3       1 RES1   0.0000
   145 C63      -2.3633    1.5336   -2.1957   C.2       1 RES1   0.0000
   146 O3       -1.9503    1.5792   -1.0145   O.2       1 RES1   0.0000
   147 C64      -1.8866    0.3756   -3.0272   C.ar      1 RES1   0.0000
   148 C65      -2.5741   -0.2078   -4.1072   C.ar      1 RES1   0.0000
   149 C66      -1.9033   -1.0851   -4.9282   C.ar      1 RES1   0.0000
   150 C67      -0.5726   -1.4338   -4.6374   C.ar      1 RES1   0.0000
   151 C68       0.2561   -2.2180   -5.4939   C.ar      1 RES1   0.0000
   152 C69       1.5228   -2.5482   -5.1340   C.ar      1 RES1   0.0000
   153 C70       2.0531   -2.1643   -3.8675   C.ar      1 RES1   0.0000
   154 C71       3.3569   -2.4839   -3.4394   C.ar      1 RES1   0.0000
   155 C72       3.7453   -2.1513   -2.1624   C.ar      1 RES1   0.0000
   156 C73       2.8054   -1.5735   -1.2886   C.ar      1 RES1   0.0000
   157 C74       3.0116   -1.3382    0.1783   C.2       1 RES1   0.0000
   158 O4        2.4797   -0.3184    0.6677   O.2       1 RES1   0.0000
   159 N6        3.7026   -2.2144    0.9051   N.am      1 RES1   0.0000
   160 C75       3.9630   -1.9063    2.3074   C.3       1 RES1   0.0000
   161 C76       4.7833   -0.6294    2.5171   C.3       1 RES1   0.0000
   162 C77       6.2261   -0.7165    2.0104   C.3       1 RES1   0.0000
   163 C78       6.3519   -0.5643    0.4936   C.3       1 RES1   0.0000
   164 C79       7.7937   -0.7148   -0.0137   C.3       1 RES1   0.0000
   165 C80       8.1173   -2.1383   -0.4731   C.3       1 RES1   0.0000
   166 C81       8.0952   -3.1711    0.6490   C.3       1 RES1   0.0000
   167 C82       8.6090   -4.5238    0.1802   C.3       1 RES1   0.0000
   168 C83       3.8573   -3.6107    0.5316   C.3       1 RES1   0.0000
   169 C84       2.6774   -4.4390    1.0331   C.3       1 RES1   0.0000
   170 C85       1.3568   -4.0461    0.3814   C.3       1 RES1   0.0000
   171 C86       1.0851   -4.5321   -1.0444   C.3       1 RES1   0.0000
   172 C87      -0.4061   -4.3240   -1.3057   C.3       1 RES1   0.0000
   173 C88      -0.9693   -4.5979   -2.6955   C.3       1 RES1   0.0000
   174 C89      -2.4751   -4.3399   -2.6432   C.3       1 RES1   0.0000
   175 C90      -3.1627   -4.5567   -3.9779   C.3       1 RES1   0.0000
   176 N7        1.6043   -1.1821   -1.7005   N.ar      1 RES1   0.0000
   177 C91       1.2393   -1.4328   -2.9684   C.ar      1 RES1   0.0000
   178 C92      -0.0601   -0.9854   -3.3959   C.ar      1 RES1   0.0000
   179 N8       -0.7103   -0.1006   -2.6236   N.ar      1 RES1   0.0000
   180 H75      -6.6330    1.7443   -6.9595   H         1 RES1   0.0000
   181 H76      -7.3020    2.8319   -5.7483   H         1 RES1   0.0000
   182 H77      -8.2661    1.4933   -6.3545   H         1 RES1   0.0000
   183 H78      -5.6921    1.1953   -4.7511   H         1 RES1   0.0000
   184 H79      -6.7068   -0.1377   -5.3056   H         1 RES1   0.0000
   185 H80      -8.5738    0.6342   -3.9361   H         1 RES1   0.0000
   186 H81      -7.6896    2.0576   -3.4391   H         1 RES1   0.0000
   187 H82      -6.8307   -0.7989   -2.8176   H         1 RES1   0.0000
   188 H83      -7.7984    0.1991   -1.7346   H         1 RES1   0.0000
   189 H84      -4.9771    0.8326   -2.6866   H         1 RES1   0.0000
   190 H85      -5.3942    0.1302   -1.1224   H         1 RES1   0.0000
   191 H86      -6.6888    2.1117   -0.5151   H         1 RES1   0.0000
   192 H87      -6.3139    2.9009   -2.0384   H         1 RES1   0.0000
   193 H88      -4.1349    2.0067   -0.1244   H         1 RES1   0.0000
   194 H89      -4.9579    3.5727    0.0310   H         1 RES1   0.0000
   195 H90      -2.8150    3.7862   -1.0624   H         1 RES1   0.0000
   196 H91      -4.1323    4.2682   -2.1514   H         1 RES1   0.0000
   197 H92      -4.6442    2.9818   -4.0265   H         1 RES1   0.0000
   198 H93      -3.4239    1.8537   -4.6280   H         1 RES1   0.0000
   199 H94      -3.0401    4.8408   -4.1925   H         1 RES1   0.0000
   200 H95      -3.2169    3.9894   -5.7194   H         1 RES1   0.0000
   201 H96      -1.0204    3.5298   -3.6843   H         1 RES1   0.0000
   202 H97      -0.8788    4.6611   -5.0322   H         1 RES1   0.0000
   203 H98      -0.6285    2.9196   -6.6218   H         1 RES1   0.0000
   204 H99      -1.2476    1.6797   -5.5164   H         1 RES1   0.0000
   205 H100      0.5940    2.1389   -3.9387   H         1 RES1   0.0000
   206 H101      1.2998    3.2880   -5.0854   H         1 RES1   0.0000
   207 H102      0.9626    0.3703   -5.8248   H         1 RES1   0.0000
   208 H103      2.2956    0.9514   -4.8321   H         1 RES1   0.0000
   209 H104      2.6243    2.7118   -6.7846   H         1 RES1   0.0000
   210 H105      1.7578    1.5227   -7.7417   H         1 RES1   0.0000
   211 H106      4.3121    1.0929   -6.1313   H         1 RES1   0.0000
   212 H107      4.1686    1.0538   -7.8835   H         1 RES1   0.0000
   213 H108      3.4414   -0.2246   -6.9164   H         1 RES1   0.0000
   214 H109     -3.6204   -0.0093   -4.2829   H         1 RES1   0.0000
   215 H110     -2.3849   -1.4810   -5.8093   H         1 RES1   0.0000
   216 H111     -0.1314   -2.5095   -6.4583   H         1 RES1   0.0000
   217 H112      2.1316   -3.1591   -5.7832   H         1 RES1   0.0000
   218 H113      4.0239   -3.0204   -4.1024   H         1 RES1   0.0000
   219 H114      4.7595   -2.3374   -1.8413   H         1 RES1   0.0000
   220 H115      4.5063   -2.7508    2.7311   H         1 RES1   0.0000
   221 H116      3.0075   -1.8132    2.8363   H         1 RES1   0.0000
   222 H117      4.8038   -0.4427    3.5943   H         1 RES1   0.0000
   223 H118      4.2704    0.2049    2.0358   H         1 RES1   0.0000
   224 H119      6.6730   -1.6506    2.3511   H         1 RES1   0.0000
   225 H120      6.7929    0.0979    2.4655   H         1 RES1   0.0000
   226 H121      5.9685    0.4278    0.2350   H         1 RES1   0.0000
   227 H122      5.7326   -1.3011   -0.0216   H         1 RES1   0.0000
   228 H123      8.4972   -0.4124    0.7646   H         1 RES1   0.0000
   229 H124      7.9361   -0.0389   -0.8607   H         1 RES1   0.0000
   230 H125      9.1063   -2.1384   -0.9325   H         1 RES1   0.0000
   231 H126      7.4027   -2.4278   -1.2498   H         1 RES1   0.0000
   232 H127      7.0736   -3.2881    1.0179   H         1 RES1   0.0000
   233 H128      8.7163   -2.8141    1.4709   H         1 RES1   0.0000
   234 H129      8.0029   -4.9070   -0.6378   H         1 RES1   0.0000
   235 H130      8.5844   -5.2443    0.9925   H         1 RES1   0.0000
   236 H131      9.6344   -4.4421   -0.1669   H         1 RES1   0.0000
   237 H132      4.7861   -3.9877    0.9606   H         1 RES1   0.0000
   238 H133      3.9118   -3.7129   -0.5476   H         1 RES1   0.0000
   239 H134      2.5755   -4.3515    2.1177   H         1 RES1   0.0000
   240 H135      2.9018   -5.4816    0.8201   H         1 RES1   0.0000
   241 H136      1.2438   -2.9569    0.4078   H         1 RES1   0.0000
   242 H137      0.5586   -4.4581    0.9950   H         1 RES1   0.0000
   243 H138      1.2996   -5.5933   -1.1305   H         1 RES1   0.0000
   244 H139      1.6892   -3.9976   -1.7767   H         1 RES1   0.0000
   245 H140     -0.6691   -3.2920   -1.0298   H         1 RES1   0.0000
   246 H141     -0.9320   -4.9978   -0.6254   H         1 RES1   0.0000
   247 H142     -0.7815   -5.6320   -2.9846   H         1 RES1   0.0000
   248 H143     -0.5041   -3.9502   -3.4404   H         1 RES1   0.0000
   249 H144     -2.6361   -3.3107   -2.3050   H         1 RES1   0.0000
   250 H145     -2.9151   -5.0061   -1.8986   H         1 RES1   0.0000
   251 H146     -2.7664   -3.8819   -4.7306   H         1 RES1   0.0000
   252 H147     -4.2303   -4.3855   -3.8887   H         1 RES1   0.0000
   253 H148     -3.0123   -5.5739   -4.3217   H         1 RES1   0.0000
   254 O5       -2.8207   -0.0342    0.8544   O.3       1 RES1   0.0000
   255 H149     -3.4505    0.6421    1.1392   H         1 RES1   0.0000
   256 H150     -3.3374   -0.7050    0.3898   H         1 RES1   0.0000
@<TRIPOS>BOND
     1     1    20    1
     2     1    32    1
     3     1    50    1
     4     1    53    1
     5     1   146    1
     6     1   158    1
     7     1   176    1
     8     1   179    1
     9     1   254    1
    10     2     3    1
    11     2    54    1
    12     2    55    1
    13     2    56    1
    14     3     4    1
    15     3    57    1
    16     3    58    1
    17     4     5    1
    18     4    59    1
    19     4    60    1
    20     5     6    1
    21     5    61    1
    22     5    62    1
    23     6     7    1
    24     6    63    1
    25     6    64    1
    26     7     8    1
    27     7    65    1
    28     7    66    1
    29     8     9    1
    30     8    67    1
    31     8    68    1
    32     9    10    1
    33     9    69    1
    34     9    70    1
    35    10    11    1
    36    10    19    1
    37    11    12    1
    38    11    71    1
    39    11    72    1
    40    12    13    1
    41    12    73    1
    42    12    74    1
    43    13    14    1
    44    13    75    1
    45    13    76    1
    46    14    15    1
    47    14    77    1
    48    14    78    1
    49    15    16    1
    50    15    79    1
    51    15    80    1
    52    16    17    1
    53    16    81    1
    54    16    82    1
    55    17    18    1
    56    17    83    1
    57    17    84    1
    58    18    85    1
    59    18    86    1
    60    18    87    1
    61    19    20    2
    62    19    21    1
    63    21    22    1
    64    21    53    2
    65    22    23    2
    66    22    88    1
    67    23    24    1
    68    23    89    1
    69    24    25    1
    70    24    52    2
    71    25    26    2
    72    25    90    1
    73    26    27    1
    74    26    91    1
    75    27    28    1
    76    27    51    2
    77    28    29    2
    78    28    92    1
    79    29    30    1
    80    29    93    1
    81    30    31    1
    82    30    50    2
    83    31    32    2
    84    31    33    1
    85    33    34    1
    86    33    42    1
    87    34    35    1
    88    34    94    1
    89    34    95    1
    90    35    36    1
    91    35    96    1
    92    35    97    1
    93    36    37    1
    94    36    98    1
    95    36    99    1
    96    37    38    1
    97    37   100    1
    98    37   101    1
    99    38    39    1
   100    38   102    1
   101    38   103    1
   102    39    40    1
   103    39   104    1
   104    39   105    1
   105    40    41    1
   106    40   106    1
   107    40   107    1
   108    41   108    1
   109    41   109    1
   110    41   110    1
   111    42    43    1
   112    42   111    1
   113    42   112    1
   114    43    44    1
   115    43   113    1
   116    43   114    1
   117    44    45    1
   118    44   115    1
   119    44   116    1
   120    45    46    1
   121    45   117    1
   122    45   118    1
   123    46    47    1
   124    46   119    1
   125    46   120    1
   126    47    48    1
   127    47   121    1
   128    47   122    1
   129    48    49    1
   130    48   123    1
   131    48   124    1
   132    49   125    1
   133    49   126    1
   134    49   127    1
   135    50    51    1
   136    51    52    1
   137    52    53    1
   138   128   129    1
   139   128   180    1
   140   128   181    1
   141   128   182    1
   142   129   130    1
   143   129   183    1
   144   129   184    1
   145   130   131    1
   146   130   185    1
   147   130   186    1
   148   131   132    1
   149   131   187    1
   150   131   188    1
   151   132   133    1
   152   132   189    1
   153   132   190    1
   154   133   134    1
   155   133   191    1
   156   133   192    1
   157   134   135    1
   158   134   193    1
   159   134   194    1
   160   135   136    1
   161   135   195    1
   162   135   196    1
   163   136   137    1
   164   136   145    1
   165   137   138    1
   166   137   197    1
   167   137   198    1
   168   138   139    1
   169   138   199    1
   170   138   200    1
   171   139   140    1
   172   139   201    1
   173   139   202    1
   174   140   141    1
   175   140   203    1
   176   140   204    1
   177   141   142    1
   178   141   205    1
   179   141   206    1
   180   142   143    1
   181   142   207    1
   182   142   208    1
   183   143   144    1
   184   143   209    1
   185   143   210    1
   186   144   211    1
   187   144   212    1
   188   144   213    1
   189   145   146    2
   190   145   147    1
   191   147   148    1
   192   147   179    2
   193   148   149    2
   194   148   214    1
   195   149   150    1
   196   149   215    1
   197   150   151    1
   198   150   178    2
   199   151   152    2
   200   151   216    1
   201   152   153    1
   202   152   217    1
   203   153   154    1
   204   153   177    2
   205   154   155    2
   206   154   218    1
   207   155   156    1
   208   155   219    1
   209   156   157    1
   210   156   176    2
   211   157   158    2
   212   157   159    1
   213   159   160    1
   214   159   168    1
   215   160   161    1
   216   160   220    1
   217   160   221    1
   218   161   162    1
   219   161   222    1
   220   161   223    1
   221   162   163    1
   222   162   224    1
   223   162   225    1
   224   163   164    1
   225   163   226    1
   226   163   227    1
   227   164   165    1
   228   164   228    1
   229   164   229    1
   230   165   166    1
   231   165   230    1
   232   165   231    1
   233   166   167    1
   234   166   232    1
   235   166   233    1
   236   167   234    1
   237   167   235    1
   238   167   236    1
   239   168   169    1
   240   168   237    1
   241   168   238    1
   242   169   170    1
   243   169   239    1
   244   169   240    1
   245   170   171    1
   246   170   241    1
   247   170   242    1
   248   171   172    1
   249   171   243    1
   250   171   244    1
   251   172   173    1
   252   172   245    1
   253   172   246    1
   254   173   174    1
   255   173   247    1
   256   173   248    1
   257   174   175    1
   258   174   249    1
   259   174   250    1
   260   175   251    1
   261   175   252    1
   262   175   253    1
   263   176   177    1
   264   177   178    1
   265   178   179    1
   266   254   255    1
   267   254   256    1
@<TRIPOS>SUBSTRUCTURE
     1 RES1      256 GROUP             0 ****  ****    0  
