@<TRIPOS>MOLECULE
cn9_YICLED_0_nunpairedes_0_charge_3 Charge: 3 Unpaired_Electrons: 0 XTB_Unpaired_Electrons: 0 XTB_Charge: 3
   272   275     1     0     0
SMALL
NoCharges
****
Generated from Architector

@<TRIPOS>ATOM
     1 La1      -0.0875   -0.0424   -0.0479   La        1 RES1   0.0000
     2 C1       -8.5051   -2.8992    4.6694   C.3       1 RES1   0.0000
     3 C2       -8.2942   -1.4016    4.5004   C.3       1 RES1   0.0000
     4 C3       -6.8910   -1.0655    4.0019   C.3       1 RES1   0.0000
     5 C4       -6.6382   -1.4514    2.5433   C.3       1 RES1   0.0000
     6 C5       -7.2780   -0.4758    1.5533   C.3       1 RES1   0.0000
     7 C6       -6.5629   -0.4423    0.2034   C.3       1 RES1   0.0000
     8 C7       -6.6724   -1.7645   -0.5668   C.3       1 RES1   0.0000
     9 C8       -5.4404   -2.6698   -0.4481   C.3       1 RES1   0.0000
    10 N1       -4.2182   -2.0507   -0.9365   N.am      1 RES1   0.0000
    11 C9       -4.2723   -1.6170   -2.3227   C.3       1 RES1   0.0000
    12 C10      -3.0879   -1.8377   -0.2692   C.2       1 RES1   0.0000
    13 O1       -2.1344   -1.2281   -0.7954   O.2       1 RES1   0.0000
    14 C11      -2.9191   -2.2982    1.1705   C.3       1 RES1   0.0000
    15 C12      -1.5505   -2.9243    1.3525   C.2       1 RES1   0.0000
    16 O2       -0.5292   -2.2483    1.1257   O.2       1 RES1   0.0000
    17 N2       -1.4646   -4.1996    1.7320   N.am      1 RES1   0.0000
    18 C13      -2.5977   -5.0172    2.1291   C.3       1 RES1   0.0000
    19 C14      -0.1371   -4.8041    1.7516   C.3       1 RES1   0.0000
    20 C15       0.7068   -4.4423    2.9729   C.3       1 RES1   0.0000
    21 C16       0.1488   -4.9280    4.3148   C.3       1 RES1   0.0000
    22 C17      -0.6939   -3.8734    5.0304   C.3       1 RES1   0.0000
    23 C18      -1.1623   -4.3226    6.4160   C.3       1 RES1   0.0000
    24 C19      -2.2714   -5.3727    6.3650   C.3       1 RES1   0.0000
    25 C20      -3.0174   -5.4963    7.6934   C.3       1 RES1   0.0000
    26 C21      -2.1237   -5.9835    8.8255   C.3       1 RES1   0.0000
    27 H1       -9.4614   -3.0923    5.1434   H         1 RES1   0.0000
    28 H2       -7.7212   -3.3228    5.2929   H         1 RES1   0.0000
    29 H3       -8.4982   -3.4129    3.7123   H         1 RES1   0.0000
    30 H4       -8.4357   -0.9138    5.4661   H         1 RES1   0.0000
    31 H5       -9.0410   -0.9929    3.8185   H         1 RES1   0.0000
    32 H6       -6.1644   -1.5747    4.6428   H         1 RES1   0.0000
    33 H7       -6.7377    0.0112    4.1035   H         1 RES1   0.0000
    34 H8       -6.9998   -2.4655    2.3698   H         1 RES1   0.0000
    35 H9       -5.5588   -1.4565    2.3745   H         1 RES1   0.0000
    36 H10      -7.2533    0.5277    1.9832   H         1 RES1   0.0000
    37 H11      -8.3266   -0.7324    1.4055   H         1 RES1   0.0000
    38 H12      -5.5104   -0.1839    0.3613   H         1 RES1   0.0000
    39 H13      -7.0065    0.3610   -0.3871   H         1 RES1   0.0000
    40 H14      -6.8814   -1.5597   -1.6149   H         1 RES1   0.0000
    41 H15      -7.5155   -2.3401   -0.1821   H         1 RES1   0.0000
    42 H16      -5.6271   -3.5756   -1.0317   H         1 RES1   0.0000
    43 H17      -5.3289   -2.9622    0.5901   H         1 RES1   0.0000
    44 H18      -4.6259   -2.4373   -2.9470   H         1 RES1   0.0000
    45 H19      -3.2745   -1.3152   -2.6336   H         1 RES1   0.0000
    46 H20      -4.9407   -0.7651   -2.4386   H         1 RES1   0.0000
    47 H21      -3.7134   -2.9339    1.5331   H         1 RES1   0.0000
    48 H22      -2.8632   -1.3599    1.7266   H         1 RES1   0.0000
    49 H23      -3.1767   -4.5446    2.9236   H         1 RES1   0.0000
    50 H24      -2.2352   -5.9625    2.5239   H         1 RES1   0.0000
    51 H25      -3.2491   -5.2326    1.2799   H         1 RES1   0.0000
    52 H26       0.3916   -4.4515    0.8608   H         1 RES1   0.0000
    53 H27      -0.2581   -5.8835    1.6808   H         1 RES1   0.0000
    54 H28       0.8318   -3.3583    2.9920   H         1 RES1   0.0000
    55 H29       1.6851   -4.8948    2.8140   H         1 RES1   0.0000
    56 H30       0.9773   -5.1805    4.9778   H         1 RES1   0.0000
    57 H31      -0.4292   -5.8403    4.1713   H         1 RES1   0.0000
    58 H32      -1.5665   -3.6044    4.4308   H         1 RES1   0.0000
    59 H33      -0.0843   -2.9711    5.1403   H         1 RES1   0.0000
    60 H34      -1.5334   -3.4494    6.9583   H         1 RES1   0.0000
    61 H35      -0.3084   -4.7080    6.9730   H         1 RES1   0.0000
    62 H36      -1.8566   -6.3463    6.1009   H         1 RES1   0.0000
    63 H37      -2.9892   -5.0947    5.5877   H         1 RES1   0.0000
    64 H38      -3.8450   -6.1958    7.5633   H         1 RES1   0.0000
    65 H39      -3.4460   -4.5273    7.9629   H         1 RES1   0.0000
    66 H40      -1.6398   -6.9168    8.5505   H         1 RES1   0.0000
    67 H41      -2.7094   -6.1531    9.7241   H         1 RES1   0.0000
    68 H42      -1.3550   -5.2525    9.0597   H         1 RES1   0.0000
    69 C22       5.4905   -2.5297   -7.1579   C.3       1 RES1   0.0000
    70 C23       4.9881   -3.7834   -6.4532   C.3       1 RES1   0.0000
    71 C24       4.3030   -3.4912   -5.1188   C.3       1 RES1   0.0000
    72 C25       3.0259   -2.6577   -5.2357   C.3       1 RES1   0.0000
    73 C26       1.9227   -3.3344   -6.0459   C.3       1 RES1   0.0000
    74 C27       0.5562   -2.6649   -5.8805   C.3       1 RES1   0.0000
    75 C28       0.3911   -1.3902   -6.7189   C.3       1 RES1   0.0000
    76 C29       0.6693   -0.0800   -5.9741   C.3       1 RES1   0.0000
    77 N3       -0.1475    0.1025   -4.7885   N.am      1 RES1   0.0000
    78 C30      -1.5622    0.2837   -5.0576   C.3       1 RES1   0.0000
    79 C31       0.2680    0.0826   -3.5254   C.2       1 RES1   0.0000
    80 O3       -0.5177    0.1938   -2.5656   O.2       1 RES1   0.0000
    81 C32       1.7527   -0.0256   -3.1977   C.3       1 RES1   0.0000
    82 C33       2.0846    1.2040   -2.3878   C.2       1 RES1   0.0000
    83 O4        1.6408    1.3058   -1.2264   O.2       1 RES1   0.0000
    84 N4        2.8529    2.1519   -2.9183   N.am      1 RES1   0.0000
    85 C34       3.4688    2.0627   -4.2254   C.3       1 RES1   0.0000
    86 C35       3.3573    3.1480   -1.9835   C.3       1 RES1   0.0000
    87 C36       4.4778    2.5000   -1.1662   C.3       1 RES1   0.0000
    88 C37       5.8948    2.7635   -1.6626   C.3       1 RES1   0.0000
    89 C38       6.7306    1.5195   -1.3821   C.3       1 RES1   0.0000
    90 C39       8.2006    1.6794   -1.7350   C.3       1 RES1   0.0000
    91 C40       8.3956    2.0219   -3.2109   C.3       1 RES1   0.0000
    92 C41       9.7717    1.6084   -3.7263   C.3       1 RES1   0.0000
    93 C42      10.9060    2.1788   -2.8861   C.3       1 RES1   0.0000
    94 H43       6.0450   -2.7997   -8.0511   H         1 RES1   0.0000
    95 H44       6.1510   -1.9623   -6.5060   H         1 RES1   0.0000
    96 H45       4.6679   -1.8884   -7.4633   H         1 RES1   0.0000
    97 H46       5.8360   -4.4425   -6.2607   H         1 RES1   0.0000
    98 H47       4.3046   -4.3219   -7.1105   H         1 RES1   0.0000
    99 H48       5.0067   -2.9587   -4.4718   H         1 RES1   0.0000
   100 H49       4.0587   -4.4390   -4.6345   H         1 RES1   0.0000
   101 H50       3.2758   -1.6930   -5.6808   H         1 RES1   0.0000
   102 H51       2.6502   -2.4829   -4.2238   H         1 RES1   0.0000
   103 H52       1.8525   -4.3757   -5.7265   H         1 RES1   0.0000
   104 H53       2.1882   -3.3423   -7.1023   H         1 RES1   0.0000
   105 H54       0.3873   -2.4515   -4.8199   H         1 RES1   0.0000
   106 H55      -0.2030   -3.3842   -6.1918   H         1 RES1   0.0000
   107 H56      -0.6122   -1.3610   -7.1396   H         1 RES1   0.0000
   108 H57       1.0835   -1.4144   -7.5617   H         1 RES1   0.0000
   109 H58       0.4683    0.7509   -6.6565   H         1 RES1   0.0000
   110 H59       1.7215   -0.0427   -5.7178   H         1 RES1   0.0000
   111 H60      -1.6911    1.0896   -5.7805   H         1 RES1   0.0000
   112 H61      -2.0682    0.5413   -4.1311   H         1 RES1   0.0000
   113 H62      -1.9948   -0.6316   -5.4605   H         1 RES1   0.0000
   114 H63       2.4175   -0.1687   -4.0370   H         1 RES1   0.0000
   115 H64       1.8448   -0.8687   -2.5046   H         1 RES1   0.0000
   116 H65       4.1961    1.2485   -4.2649   H         1 RES1   0.0000
   117 H66       3.9964    2.9900   -4.4304   H         1 RES1   0.0000
   118 H67       2.7154    1.9292   -4.9999   H         1 RES1   0.0000
   119 H68       2.5262    3.4542   -1.3422   H         1 RES1   0.0000
   120 H69       3.7154    4.0140   -2.5343   H         1 RES1   0.0000
   121 H70       4.3178    1.4196   -1.1940   H         1 RES1   0.0000
   122 H71       4.4082    2.8124   -0.1318   H         1 RES1   0.0000
   123 H72       6.3345    3.6231   -1.1591   H         1 RES1   0.0000
   124 H73       5.9054    2.9670   -2.7309   H         1 RES1   0.0000
   125 H74       6.3110    0.6948   -1.9651   H         1 RES1   0.0000
   126 H75       6.6420    1.2655   -0.3199   H         1 RES1   0.0000
   127 H76       8.7092    0.7417   -1.5071   H         1 RES1   0.0000
   128 H77       8.6426    2.4533   -1.1079   H         1 RES1   0.0000
   129 H78       8.2609    3.0945   -3.3583   H         1 RES1   0.0000
   130 H79       7.6331    1.5082   -3.8033   H         1 RES1   0.0000
   131 H80       9.8737    1.9495   -4.7581   H         1 RES1   0.0000
   132 H81       9.8455    0.5190   -3.7339   H         1 RES1   0.0000
   133 H82      10.8138    3.2583   -2.8054   H         1 RES1   0.0000
   134 H83      11.8621    1.9444   -3.3432   H         1 RES1   0.0000
   135 H84      10.9042    1.7604   -1.8828   H         1 RES1   0.0000
   136 C43      -0.7099    6.1035    7.4642   C.3       1 RES1   0.0000
   137 C44       0.7339    5.9410    7.0115   C.3       1 RES1   0.0000
   138 C45       0.9101    4.8512    5.9588   C.3       1 RES1   0.0000
   139 C46       0.1592    5.0924    4.6473   C.3       1 RES1   0.0000
   140 C47       0.5064    6.4006    3.9376   C.3       1 RES1   0.0000
   141 C48       0.2610    6.3556    2.4229   C.3       1 RES1   0.0000
   142 C49      -1.1845    6.6193    1.9879   C.3       1 RES1   0.0000
   143 C50      -2.0692    5.3766    1.8145   C.3       1 RES1   0.0000
   144 N5       -1.5945    4.4328    0.8127   N.am      1 RES1   0.0000
   145 C51      -1.7512    4.8929   -0.5561   C.3       1 RES1   0.0000
   146 C52      -1.0920    3.2173    1.0264   C.2       1 RES1   0.0000
   147 O5       -0.6816    2.4916    0.0995   O.2       1 RES1   0.0000
   148 C53      -1.0195    2.6585    2.4375   C.3       1 RES1   0.0000
   149 C54      -1.9781    1.4876    2.5355   C.2       1 RES1   0.0000
   150 O6       -1.8751    0.5497    1.7207   O.2       1 RES1   0.0000
   151 N6       -2.8951    1.4828    3.4982   N.am      1 RES1   0.0000
   152 C55      -3.0590    2.5241    4.4947   C.3       1 RES1   0.0000
   153 C56      -3.7999    0.3464    3.5757   C.3       1 RES1   0.0000
   154 C57      -3.1524   -0.9143    4.1546   C.3       1 RES1   0.0000
   155 C58      -3.0812   -0.9539    5.6807   C.3       1 RES1   0.0000
   156 C59      -1.7996   -0.3435    6.2440   C.3       1 RES1   0.0000
   157 C60      -1.7695   -0.3651    7.7719   C.3       1 RES1   0.0000
   158 C61      -2.8238    0.5484    8.3950   C.3       1 RES1   0.0000
   159 C62      -2.6784    0.6562    9.9122   C.3       1 RES1   0.0000
   160 C63      -2.9893   -0.6564   10.6207   C.3       1 RES1   0.0000
   161 H85      -0.7678    6.8263    8.2714   H         1 RES1   0.0000
   162 H86      -1.1110    5.1577    7.8214   H         1 RES1   0.0000
   163 H87      -1.3369    6.4641    6.6536   H         1 RES1   0.0000
   164 H88       1.3529    5.6758    7.8703   H         1 RES1   0.0000
   165 H89       1.1016    6.8914    6.6235   H         1 RES1   0.0000
   166 H90       0.5718    3.8960    6.3762   H         1 RES1   0.0000
   167 H91       1.9751    4.7575    5.7339   H         1 RES1   0.0000
   168 H92      -0.9157    5.0415    4.8354   H         1 RES1   0.0000
   169 H93       0.4419    4.2751    3.9815   H         1 RES1   0.0000
   170 H94       1.5635    6.6103    4.1104   H         1 RES1   0.0000
   171 H95      -0.0579    7.2231    4.3764   H         1 RES1   0.0000
   172 H96       0.5914    5.3922    2.0209   H         1 RES1   0.0000
   173 H97       0.8947    7.1218    1.9735   H         1 RES1   0.0000
   174 H98      -1.1681    7.1828    1.0563   H         1 RES1   0.0000
   175 H99      -1.6791    7.2455    2.7317   H         1 RES1   0.0000
   176 H100     -3.0597    5.7197    1.5026   H         1 RES1   0.0000
   177 H101     -2.1873    4.8857    2.7741   H         1 RES1   0.0000
   178 H102     -2.7669    5.2645   -0.6944   H         1 RES1   0.0000
   179 H103     -1.5708    4.0623   -1.2336   H         1 RES1   0.0000
   180 H104     -1.0484    5.6929   -0.7846   H         1 RES1   0.0000
   181 H105     -1.1648    3.3929    3.2123   H         1 RES1   0.0000
   182 H106     -0.0295    2.2002    2.5210   H         1 RES1   0.0000
   183 H107     -2.1089    2.7834    4.9569   H         1 RES1   0.0000
   184 H108     -3.7097    2.1595    5.2845   H         1 RES1   0.0000
   185 H109     -3.5244    3.4119    4.0638   H         1 RES1   0.0000
   186 H110     -4.1646    0.1493    2.5652   H         1 RES1   0.0000
   187 H111     -4.6532    0.6320    4.1850   H         1 RES1   0.0000
   188 H112     -2.1445   -1.0234    3.7505   H         1 RES1   0.0000
   189 H113     -3.7603   -1.7576    3.8318   H         1 RES1   0.0000
   190 H114     -3.1249   -1.9917    6.0146   H         1 RES1   0.0000
   191 H115     -3.9565   -0.4578    6.0976   H         1 RES1   0.0000
   192 H116     -1.6811    0.6867    5.9069   H         1 RES1   0.0000
   193 H117     -0.9471   -0.9095    5.8578   H         1 RES1   0.0000
   194 H118     -0.7822   -0.0435    8.1142   H         1 RES1   0.0000
   195 H119     -1.9209   -1.3879    8.1164   H         1 RES1   0.0000
   196 H120     -3.8255    0.1752    8.1749   H         1 RES1   0.0000
   197 H121     -2.7339    1.5463    7.9558   H         1 RES1   0.0000
   198 H122     -3.3632    1.4254   10.2749   H         1 RES1   0.0000
   199 H123     -1.6626    0.9743   10.1578   H         1 RES1   0.0000
   200 H124     -3.9751   -1.0174   10.3360   H         1 RES1   0.0000
   201 H125     -2.9769   -0.5174   11.6975   H         1 RES1   0.0000
   202 H126     -2.2566   -1.4203   10.3742   H         1 RES1   0.0000
   203 C64       7.9152    5.6024    0.9603   C.3       1 RES1   0.0000
   204 C65       6.9606    6.7639    0.6988   C.3       1 RES1   0.0000
   205 C66       5.6576    6.3675    0.0058   C.3       1 RES1   0.0000
   206 C67       4.8844    5.2295    0.6706   C.3       1 RES1   0.0000
   207 C68       4.1331    5.5573    1.9578   C.3       1 RES1   0.0000
   208 C69       3.4210    4.2957    2.4891   C.3       1 RES1   0.0000
   209 C70       4.1426    3.6534    3.6793   C.3       1 RES1   0.0000
   210 C71       4.0934    2.1159    3.7722   C.3       1 RES1   0.0000
   211 N7        2.7918    1.5135    3.5386   N.am      1 RES1   0.0000
   212 C72       1.8586    1.5192    4.6549   C.3       1 RES1   0.0000
   213 C73       2.3801    0.9627    2.3947   C.2       1 RES1   0.0000
   214 O7        1.1991    0.5918    2.2389   O.2       1 RES1   0.0000
   215 C74       3.3344    0.7689    1.2341   C.3       1 RES1   0.0000
   216 C75       3.2458   -0.6908    0.8301   C.2       1 RES1   0.0000
   217 O8        2.2222   -1.0958    0.2486   O.2       1 RES1   0.0000
   218 N8        4.2483   -1.5106    1.1318   N.am      1 RES1   0.0000
   219 C76       5.4338   -1.0857    1.8543   C.3       1 RES1   0.0000
   220 C77       4.0568   -2.9368    0.8727   C.3       1 RES1   0.0000
   221 C78       4.2010   -3.3562   -0.5924   C.3       1 RES1   0.0000
   222 C79       5.6383   -3.3885   -1.1180   C.3       1 RES1   0.0000
   223 C80       6.1221   -2.0374   -1.6364   C.3       1 RES1   0.0000
   224 C81       7.5164   -2.0955   -2.2653   C.3       1 RES1   0.0000
   225 C82       8.6141   -2.3793   -1.2377   C.3       1 RES1   0.0000
   226 C83       9.9912   -1.8793   -1.6759   C.3       1 RES1   0.0000
   227 C84      10.4518   -2.4626   -3.0036   C.3       1 RES1   0.0000
   228 H127      8.8860    5.9865    1.2593   H         1 RES1   0.0000
   229 H128      8.0529    4.9958    0.0672   H         1 RES1   0.0000
   230 H129      7.5549    4.9662    1.7655   H         1 RES1   0.0000
   231 H130      7.4581    7.4894    0.0539   H         1 RES1   0.0000
   232 H131      6.7373    7.2638    1.6418   H         1 RES1   0.0000
   233 H132      5.8884    6.0550   -1.0180   H         1 RES1   0.0000
   234 H133      5.0133    7.2458   -0.0673   H         1 RES1   0.0000
   235 H134      5.5729    4.4057    0.8700   H         1 RES1   0.0000
   236 H135      4.1358    4.8999   -0.0510   H         1 RES1   0.0000
   237 H136      3.4001    6.3352    1.7423   H         1 RES1   0.0000
   238 H137      4.8218    5.9525    2.7018   H         1 RES1   0.0000
   239 H138      3.3255    3.5776    1.6722   H         1 RES1   0.0000
   240 H139      2.4060    4.5542    2.7811   H         1 RES1   0.0000
   241 H140      3.7482    4.0919    4.5953   H         1 RES1   0.0000
   242 H141      5.2028    3.9045    3.6355   H         1 RES1   0.0000
   243 H142      4.4218    1.8354    4.7742   H         1 RES1   0.0000
   244 H143      4.8189    1.6963    3.0817   H         1 RES1   0.0000
   245 H144      2.2963    2.0349    5.5032   H         1 RES1   0.0000
   246 H145      1.6177    0.4939    4.9410   H         1 RES1   0.0000
   247 H146      0.9281    2.0188    4.3956   H         1 RES1   0.0000
   248 H147      4.3463    1.0988    1.4219   H         1 RES1   0.0000
   249 H148      2.8863    1.3257    0.4053   H         1 RES1   0.0000
   250 H149      5.9433   -0.2650    1.3468   H         1 RES1   0.0000
   251 H150      6.1401   -1.9085    1.9093   H         1 RES1   0.0000
   252 H151      5.1807   -0.7886    2.8746   H         1 RES1   0.0000
   253 H152      3.0459   -3.1881    1.2101   H         1 RES1   0.0000
   254 H153      4.7760   -3.4879    1.4760   H         1 RES1   0.0000
   255 H154      3.5934   -2.7015   -1.2192   H         1 RES1   0.0000
   256 H155      3.7967   -4.3657   -0.6577   H         1 RES1   0.0000
   257 H156      5.7028   -4.1020   -1.9410   H         1 RES1   0.0000
   258 H157      6.3061   -3.7434   -0.3336   H         1 RES1   0.0000
   259 H158      6.1382   -1.3157   -0.8192   H         1 RES1   0.0000
   260 H159      5.4069   -1.6756   -2.3841   H         1 RES1   0.0000
   261 H160      7.7179   -1.1359   -2.7464   H         1 RES1   0.0000
   262 H161      7.5287   -2.8581   -3.0444   H         1 RES1   0.0000
   263 H162      8.6732   -3.4508   -1.0444   H         1 RES1   0.0000
   264 H163      8.3572   -1.8864   -0.2955   H         1 RES1   0.0000
   265 H164     10.7129   -2.1277   -0.8956   H         1 RES1   0.0000
   266 H165      9.9786   -0.7914   -1.7610   H         1 RES1   0.0000
   267 H166     10.4526   -3.5474   -2.9615   H         1 RES1   0.0000
   268 H167     11.4579   -2.1222   -3.2335   H         1 RES1   0.0000
   269 H168      9.7982   -2.1505   -3.8141   H         1 RES1   0.0000
   270 O9        0.4253   -2.3290   -1.5559   O.3       1 RES1   0.0000
   271 H169     -0.3341   -2.8306   -1.8775   H         1 RES1   0.0000
   272 H170      0.9218   -2.9038   -0.9582   H         1 RES1   0.0000
@<TRIPOS>BOND
     1     1    13    1
     2     1    16    1
     3     1    80    1
     4     1    83    1
     5     1   147    1
     6     1   150    1
     7     1   214    1
     8     1   217    1
     9     1   270    1
    10     2     3    1
    11     2    27    1
    12     2    28    1
    13     2    29    1
    14     3     4    1
    15     3    30    1
    16     3    31    1
    17     4     5    1
    18     4    32    1
    19     4    33    1
    20     5     6    1
    21     5    34    1
    22     5    35    1
    23     6     7    1
    24     6    36    1
    25     6    37    1
    26     7     8    1
    27     7    38    1
    28     7    39    1
    29     8     9    1
    30     8    40    1
    31     8    41    1
    32     9    10    1
    33     9    42    1
    34     9    43    1
    35    10    11    1
    36    10    12    1
    37    11    44    1
    38    11    45    1
    39    11    46    1
    40    12    13    2
    41    12    14    1
    42    14    15    1
    43    14    47    1
    44    14    48    1
    45    15    16    2
    46    15    17    1
    47    17    18    1
    48    17    19    1
    49    18    49    1
    50    18    50    1
    51    18    51    1
    52    19    20    1
    53    19    52    1
    54    19    53    1
    55    20    21    1
    56    20    54    1
    57    20    55    1
    58    21    22    1
    59    21    56    1
    60    21    57    1
    61    22    23    1
    62    22    58    1
    63    22    59    1
    64    23    24    1
    65    23    60    1
    66    23    61    1
    67    24    25    1
    68    24    62    1
    69    24    63    1
    70    25    26    1
    71    25    64    1
    72    25    65    1
    73    26    66    1
    74    26    67    1
    75    26    68    1
    76    69    70    1
    77    69    94    1
    78    69    95    1
    79    69    96    1
    80    70    71    1
    81    70    97    1
    82    70    98    1
    83    71    72    1
    84    71    99    1
    85    71   100    1
    86    72    73    1
    87    72   101    1
    88    72   102    1
    89    73    74    1
    90    73   103    1
    91    73   104    1
    92    74    75    1
    93    74   105    1
    94    74   106    1
    95    75    76    1
    96    75   107    1
    97    75   108    1
    98    76    77    1
    99    76   109    1
   100    76   110    1
   101    77    78    1
   102    77    79    1
   103    78   111    1
   104    78   112    1
   105    78   113    1
   106    79    80    2
   107    79    81    1
   108    81    82    1
   109    81   114    1
   110    81   115    1
   111    82    83    2
   112    82    84    1
   113    84    85    1
   114    84    86    1
   115    85   116    1
   116    85   117    1
   117    85   118    1
   118    86    87    1
   119    86   119    1
   120    86   120    1
   121    87    88    1
   122    87   121    1
   123    87   122    1
   124    88    89    1
   125    88   123    1
   126    88   124    1
   127    89    90    1
   128    89   125    1
   129    89   126    1
   130    90    91    1
   131    90   127    1
   132    90   128    1
   133    91    92    1
   134    91   129    1
   135    91   130    1
   136    92    93    1
   137    92   131    1
   138    92   132    1
   139    93   133    1
   140    93   134    1
   141    93   135    1
   142   136   137    1
   143   136   161    1
   144   136   162    1
   145   136   163    1
   146   137   138    1
   147   137   164    1
   148   137   165    1
   149   138   139    1
   150   138   166    1
   151   138   167    1
   152   139   140    1
   153   139   168    1
   154   139   169    1
   155   140   141    1
   156   140   170    1
   157   140   171    1
   158   141   142    1
   159   141   172    1
   160   141   173    1
   161   142   143    1
   162   142   174    1
   163   142   175    1
   164   143   144    1
   165   143   176    1
   166   143   177    1
   167   144   145    1
   168   144   146    1
   169   145   178    1
   170   145   179    1
   171   145   180    1
   172   146   147    2
   173   146   148    1
   174   148   149    1
   175   148   181    1
   176   148   182    1
   177   149   150    2
   178   149   151    1
   179   151   152    1
   180   151   153    1
   181   152   183    1
   182   152   184    1
   183   152   185    1
   184   153   154    1
   185   153   186    1
   186   153   187    1
   187   154   155    1
   188   154   188    1
   189   154   189    1
   190   155   156    1
   191   155   190    1
   192   155   191    1
   193   156   157    1
   194   156   192    1
   195   156   193    1
   196   157   158    1
   197   157   194    1
   198   157   195    1
   199   158   159    1
   200   158   196    1
   201   158   197    1
   202   159   160    1
   203   159   198    1
   204   159   199    1
   205   160   200    1
   206   160   201    1
   207   160   202    1
   208   203   204    1
   209   203   228    1
   210   203   229    1
   211   203   230    1
   212   204   205    1
   213   204   231    1
   214   204   232    1
   215   205   206    1
   216   205   233    1
   217   205   234    1
   218   206   207    1
   219   206   235    1
   220   206   236    1
   221   207   208    1
   222   207   237    1
   223   207   238    1
   224   208   209    1
   225   208   239    1
   226   208   240    1
   227   209   210    1
   228   209   241    1
   229   209   242    1
   230   210   211    1
   231   210   243    1
   232   210   244    1
   233   211   212    1
   234   211   213    1
   235   212   245    1
   236   212   246    1
   237   212   247    1
   238   213   214    2
   239   213   215    1
   240   215   216    1
   241   215   248    1
   242   215   249    1
   243   216   217    2
   244   216   218    1
   245   218   219    1
   246   218   220    1
   247   219   250    1
   248   219   251    1
   249   219   252    1
   250   220   221    1
   251   220   253    1
   252   220   254    1
   253   221   222    1
   254   221   255    1
   255   221   256    1
   256   222   223    1
   257   222   257    1
   258   222   258    1
   259   223   224    1
   260   223   259    1
   261   223   260    1
   262   224   225    1
   263   224   261    1
   264   224   262    1
   265   225   226    1
   266   225   263    1
   267   225   264    1
   268   226   227    1
   269   226   265    1
   270   226   266    1
   271   227   267    1
   272   227   268    1
   273   227   269    1
   274   270   271    1
   275   270   272    1
@<TRIPOS>SUBSTRUCTURE
     1 RES1      272 GROUP             0 ****  ****    0  
