@<TRIPOS>MOLECULE
am_c3_9H2O_c0_0_nunpairedes_0_charge_3 Charge: 3 Unpaired_Electrons: 0 XTB_Unpaired_Electrons: 0 XTB_Charge: 3
    92    97     1     0     0
SMALL
NoCharges
****
Generated from Architector

@<TRIPOS>ATOM
     1 La1       0.2423    0.4993   -0.0558   La        1 RES1   0.0000
     2 C1       -5.0939   -6.3956   -0.6220   C.3       1 RES1   0.0000
     3 C2       -4.9675   -5.6555   -1.9339   C.3       1 RES1   0.0000
     4 C3       -3.5479   -5.5395   -2.4802   C.3       1 RES1   0.0000
     5 C4       -2.5599   -4.8104   -1.5573   C.3       1 RES1   0.0000
     6 C5       -2.8807   -3.3212   -1.3573   C.3       1 RES1   0.0000
     7 C6       -1.7570   -2.6932   -0.5397   C.3       1 RES1   0.0000
     8 O1       -1.9061   -1.2416   -0.3416   O.3       1 RES1   0.0000
     9 P1       -2.0626   -0.6081    1.1303   P.3       1 RES1   0.0000
    10 O2       -1.7988    0.8509    0.9397   O.2       1 RES1   0.0000
    11 O3       -3.4146   -0.9780    1.8050   O.3       1 RES1   0.0000
    12 O4       -0.8486   -1.2990    1.8848   O.3       1 RES1   0.0000
    13 C7       -0.7563   -1.6609    3.2983   C.3       1 RES1   0.0000
    14 C8       -0.8940   -3.1666    3.4816   C.3       1 RES1   0.0000
    15 C9       -2.2940   -3.7008    3.1791   C.3       1 RES1   0.0000
    16 C10      -3.3598   -3.2502    4.1812   C.3       1 RES1   0.0000
    17 C11      -4.6672   -4.0089    3.9993   C.3       1 RES1   0.0000
    18 C12      -5.3071   -3.8386    2.6339   C.3       1 RES1   0.0000
    19 H1       -6.1336   -6.4601   -0.3191   H         1 RES1   0.0000
    20 H2       -4.5341   -5.9030    0.1744   H         1 RES1   0.0000
    21 H3       -4.6983   -7.4073   -0.6981   H         1 RES1   0.0000
    22 H4       -5.4136   -4.6572   -1.8435   H         1 RES1   0.0000
    23 H5       -5.5857   -6.1716   -2.6811   H         1 RES1   0.0000
    24 H6       -3.5817   -5.0391   -3.4524   H         1 RES1   0.0000
    25 H7       -3.1561   -6.5512   -2.6354   H         1 RES1   0.0000
    26 H8       -1.5632   -4.9084   -1.9938   H         1 RES1   0.0000
    27 H9       -2.5437   -5.3237   -0.5950   H         1 RES1   0.0000
    28 H10      -3.8360   -3.1995   -0.8426   H         1 RES1   0.0000
    29 H11      -2.9501   -2.8384   -2.3329   H         1 RES1   0.0000
    30 H12      -0.8025   -2.8164   -1.0632   H         1 RES1   0.0000
    31 H13      -1.6906   -3.1704    0.4419   H         1 RES1   0.0000
    32 H14      -4.0548   -0.2676    1.8990   H         1 RES1   0.0000
    33 H15      -1.5178   -1.1266    3.8629   H         1 RES1   0.0000
    34 H16       0.2335   -1.3200    3.6091   H         1 RES1   0.0000
    35 H17      -0.6241   -3.3998    4.5144   H         1 RES1   0.0000
    36 H18      -0.1625   -3.6580    2.8346   H         1 RES1   0.0000
    37 H19      -2.2411   -4.7898    3.1867   H         1 RES1   0.0000
    38 H20      -2.6009   -3.3876    2.1784   H         1 RES1   0.0000
    39 H21      -3.5467   -2.1825    4.0633   H         1 RES1   0.0000
    40 H22      -2.9919   -3.4155    5.1912   H         1 RES1   0.0000
    41 H23      -5.3715   -3.6589    4.7624   H         1 RES1   0.0000
    42 H24      -4.5234   -5.0728    4.2067   H         1 RES1   0.0000
    43 H25      -5.3669   -2.7857    2.3573   H         1 RES1   0.0000
    44 H26      -6.3091   -4.2630    2.6312   H         1 RES1   0.0000
    45 H27      -4.7327   -4.3626    1.8636   H         1 RES1   0.0000
    46 C13       3.7317   -3.0890   -6.7036   C.3       1 RES1   0.0000
    47 C14       2.4961   -2.8623   -5.8682   C.3       1 RES1   0.0000
    48 C15       2.4199   -1.4786   -5.2450   C.3       1 RES1   0.0000
    49 C16       3.3594   -1.3530   -4.0417   C.3       1 RES1   0.0000
    50 C17       3.3638    0.0479   -3.4483   C.3       1 RES1   0.0000
    51 C18       2.0234    0.4614   -2.8474   C.3       1 RES1   0.0000
    52 O5        1.6331   -0.3746   -1.7359   O.3       1 RES1   0.0000
    53 P2        2.7616   -0.4850   -0.4529   P.3       1 RES1   0.0000
    54 O6        1.7874   -0.8009    0.6953   O.2       1 RES1   0.0000
    55 O7        3.3996   -1.9047   -0.8773   O.3       1 RES1   0.0000
    56 O8        1.7547    1.8320   -0.1998   O.3       1 RES1   0.0000
    57 C19       2.1968    2.5826    0.8826   C.3       1 RES1   0.0000
    58 C20       2.3148    4.0616    0.4393   C.3       1 RES1   0.0000
    59 C21       3.6361    4.7007    0.8653   C.3       1 RES1   0.0000
    60 C22       4.8945    4.0500    0.2914   C.3       1 RES1   0.0000
    61 C23       4.9631    3.9850   -1.2225   C.3       1 RES1   0.0000
    62 C24       6.2586    3.3827   -1.7308   C.3       1 RES1   0.0000
    63 H28       3.7180   -4.0678   -7.1723   H         1 RES1   0.0000
    64 H29       4.6269   -3.0309   -6.0795   H         1 RES1   0.0000
    65 H30       3.8398   -2.3258   -7.4717   H         1 RES1   0.0000
    66 H31       2.4033   -3.6313   -5.0967   H         1 RES1   0.0000
    67 H32       1.6259   -2.9891   -6.5265   H         1 RES1   0.0000
    68 H33       1.3951   -1.2948   -4.9099   H         1 RES1   0.0000
    69 H34       2.6718   -0.7245   -5.9901   H         1 RES1   0.0000
    70 H35       4.3710   -1.5925   -4.3727   H         1 RES1   0.0000
    71 H36       3.0892   -2.0734   -3.2706   H         1 RES1   0.0000
    72 H37       3.6512    0.7759   -4.2115   H         1 RES1   0.0000
    73 H38       4.0967    0.0865   -2.6340   H         1 RES1   0.0000
    74 H39       1.2277    0.3729   -3.5966   H         1 RES1   0.0000
    75 H40       2.0771    1.5037   -2.4969   H         1 RES1   0.0000
    76 H41       3.7681   -2.4447   -0.1756   H         1 RES1   0.0000
    77 H42       3.2008    2.2315    1.1839   H         1 RES1   0.0000
    78 H43       1.5164    2.4556    1.7583   H         1 RES1   0.0000
    79 H44       1.4815    4.6368    0.8468   H         1 RES1   0.0000
    80 H45       2.2221    4.0817   -0.6522   H         1 RES1   0.0000
    81 H46       3.7024    4.6903    1.9556   H         1 RES1   0.0000
    82 H47       3.6178    5.7467    0.5452   H         1 RES1   0.0000
    83 H48       4.9899    3.0337    0.7021   H         1 RES1   0.0000
    84 H49       5.7644    4.5969    0.6674   H         1 RES1   0.0000
    85 H50       4.8678    4.9977   -1.6331   H         1 RES1   0.0000
    86 H51       4.1130    3.4156   -1.6173   H         1 RES1   0.0000
    87 H52       7.1126    3.9873   -1.4300   H         1 RES1   0.0000
    88 H53       6.2598    3.3234   -2.8151   H         1 RES1   0.0000
    89 H54       6.4128    2.3850   -1.3226   H         1 RES1   0.0000
    90 O9       -0.7768    1.7725   -1.9472   O.3       1 RES1   0.0000
    91 H55      -0.4901    2.6900   -2.1107   H         1 RES1   0.0000
    92 H56      -1.7238    1.7788   -2.1581   H         1 RES1   0.0000
@<TRIPOS>BOND
     1     1     8    1
     2     1    10    1
     3     1    11    1
     4     1    12    1
     5     1    52    1
     6     1    54    1
     7     1    55    1
     8     1    56    1
     9     1    90    1
    10     2     3    1
    11     2    19    1
    12     2    20    1
    13     2    21    1
    14     3     4    1
    15     3    22    1
    16     3    23    1
    17     4     5    1
    18     4    24    1
    19     4    25    1
    20     5     6    1
    21     5    26    1
    22     5    27    1
    23     6     7    1
    24     6    28    1
    25     6    29    1
    26     7     8    1
    27     7    30    1
    28     7    31    1
    29     8     9    1
    30     9    10    2
    31     9    11    1
    32     9    12    1
    33    11    32    1
    34    12    13    1
    35    13    14    1
    36    13    33    1
    37    13    34    1
    38    14    15    1
    39    14    35    1
    40    14    36    1
    41    15    16    1
    42    15    37    1
    43    15    38    1
    44    16    17    1
    45    16    39    1
    46    16    40    1
    47    17    18    1
    48    17    41    1
    49    17    42    1
    50    18    43    1
    51    18    44    1
    52    18    45    1
    53    46    47    1
    54    46    63    1
    55    46    64    1
    56    46    65    1
    57    47    48    1
    58    47    66    1
    59    47    67    1
    60    48    49    1
    61    48    68    1
    62    48    69    1
    63    49    50    1
    64    49    70    1
    65    49    71    1
    66    50    51    1
    67    50    72    1
    68    50    73    1
    69    51    52    1
    70    51    74    1
    71    51    75    1
    72    52    53    1
    73    53    54    2
    74    53    55    1
    75    53    56    1
    76    55    76    1
    77    56    57    1
    78    57    58    1
    79    57    77    1
    80    57    78    1
    81    58    59    1
    82    58    79    1
    83    58    80    1
    84    59    60    1
    85    59    81    1
    86    59    82    1
    87    60    61    1
    88    60    83    1
    89    60    84    1
    90    61    62    1
    91    61    85    1
    92    61    86    1
    93    62    87    1
    94    62    88    1
    95    62    89    1
    96    90    91    1
    97    90    92    1
@<TRIPOS>SUBSTRUCTURE
     1 RES1       92 GROUP             0 ****  ****    0  
