@<TRIPOS>MOLECULE
tri_tri_mer_capped_0_nunpairedes_0_charge_3 Charge: 3 Unpaired_Electrons: 3 XTB_Unpaired_Electrons: 0 XTB_Charge: 3
   184   186     1     0     0
SMALL
NoCharges
****
Generated from Architector

@<TRIPOS>ATOM
     1 Nd1      -0.0634    0.0039   -0.1513   Nd        1 RES1   0.0000
     2 C1       -5.8661   -7.7329   -1.6114   C.3       1 RES1   0.0000
     3 C2       -5.0298   -8.6481   -0.7262   C.3       1 RES1   0.0000
     4 C3       -3.6072   -8.8268   -1.2548   C.3       1 RES1   0.0000
     5 C4       -2.7965   -9.7937   -0.3908   C.3       1 RES1   0.0000
     6 C5       -1.3789  -10.0383   -0.9157   C.3       1 RES1   0.0000
     7 C6       -0.4150   -8.8624   -0.7291   C.3       1 RES1   0.0000
     8 C7        0.0747   -8.7285    0.7130   C.3       1 RES1   0.0000
     9 C8        0.7635   -7.3970    1.0088   C.3       1 RES1   0.0000
    10 C9        2.0500   -7.1807    0.2119   C.3       1 RES1   0.0000
    11 C10       2.6563   -5.8031    0.4979   C.3       1 RES1   0.0000
    12 C11       3.7708   -5.4455   -0.4915   C.3       1 RES1   0.0000
    13 C12       3.9428   -3.9300   -0.7004   C.3       1 RES1   0.0000
    14 N1        2.6905   -3.2664   -1.0502   N.am      1 RES1   0.0000
    15 C13       2.0271   -3.8457   -2.2303   C.3       1 RES1   0.0000
    16 C14       1.4993   -2.8343   -3.2603   C.3       1 RES1   0.0000
    17 C15      -0.0213   -2.6447   -3.2314   C.3       1 RES1   0.0000
    18 C16      -0.8017   -3.9052   -3.6396   C.3       1 RES1   0.0000
    19 C17      -2.1406   -4.0650   -2.9045   C.3       1 RES1   0.0000
    20 C18      -1.9624   -4.6556   -1.5002   C.3       1 RES1   0.0000
    21 C19      -3.2386   -4.6641   -0.6521   C.3       1 RES1   0.0000
    22 C20      -2.9841   -5.2854    0.7233   C.3       1 RES1   0.0000
    23 C21      -4.2097   -5.2721    1.6381   C.3       1 RES1   0.0000
    24 C22      -4.4355   -3.9411    2.3538   C.3       1 RES1   0.0000
    25 C23      -5.6222   -4.0248    3.3145   C.3       1 RES1   0.0000
    26 C24      -5.8510   -2.7309    4.0858   C.3       1 RES1   0.0000
    27 C25       2.0923   -2.3697   -0.2974   C.2       1 RES1   0.0000
    28 O1        0.9125   -1.9798   -0.5002   O.2       1 RES1   0.0000
    29 C26       2.8249   -1.7019    0.8817   C.3       1 RES1   0.0000
    30 O2        2.0112   -0.6214    1.3683   O.3       1 RES1   0.0000
    31 C27       1.5237   -0.7998    2.7038   C.3       1 RES1   0.0000
    32 C28       0.3654   -1.8054    2.7678   C.3       1 RES1   0.0000
    33 O3       -0.7813   -1.3533    2.0351   O.3       1 RES1   0.0000
    34 C29      -1.8318   -0.7781    2.8160   C.3       1 RES1   0.0000
    35 C30      -1.9218    0.7295    2.5403   C.2       1 RES1   0.0000
    36 O4       -1.1599    1.1961    1.6568   O.2       1 RES1   0.0000
    37 N2       -2.8014    1.4502    3.2036   N.am      1 RES1   0.0000
    38 C31      -2.9589    2.8794    2.9297   C.3       1 RES1   0.0000
    39 C32      -3.6933    3.2375    1.6302   C.3       1 RES1   0.0000
    40 C33      -5.1226    2.6898    1.4976   C.3       1 RES1   0.0000
    41 C34      -5.1776    1.2966    0.8683   C.3       1 RES1   0.0000
    42 C35      -6.5495    0.6295    0.9713   C.3       1 RES1   0.0000
    43 C36      -6.5252   -0.7594    0.3338   C.3       1 RES1   0.0000
    44 C37      -7.8162   -1.5392    0.5609   C.3       1 RES1   0.0000
    45 C38      -7.7510   -2.9464   -0.0268   C.3       1 RES1   0.0000
    46 C39      -8.9868   -3.7635    0.3384   C.3       1 RES1   0.0000
    47 C40      -8.9107   -5.1966   -0.1802   C.3       1 RES1   0.0000
    48 C41     -10.1425   -6.0086    0.2123   C.3       1 RES1   0.0000
    49 C42     -10.0682   -7.4406   -0.2983   C.3       1 RES1   0.0000
    50 C43      -3.5531    0.9275    4.3402   C.3       1 RES1   0.0000
    51 C44      -2.7356    0.9537    5.6405   C.3       1 RES1   0.0000
    52 C45      -2.3470    2.3625    6.0963   C.3       1 RES1   0.0000
    53 C46      -1.3958    2.3463    7.2969   C.3       1 RES1   0.0000
    54 C47       0.0164    1.8455    6.9797   C.3       1 RES1   0.0000
    55 C48       0.7850    2.7340    5.9988   C.3       1 RES1   0.0000
    56 C49       2.2240    2.2472    5.8264   C.3       1 RES1   0.0000
    57 C50       3.1726    3.2442    5.1559   C.3       1 RES1   0.0000
    58 C51       3.1906    3.2351    3.6259   C.3       1 RES1   0.0000
    59 C52       1.9908    3.8688    2.9127   C.3       1 RES1   0.0000
    60 C53       1.7078    5.3232    3.2923   C.3       1 RES1   0.0000
    61 C54       0.5627    5.8899    2.4579   C.3       1 RES1   0.0000
    62 H1       -6.8728   -7.6351   -1.2157   H         1 RES1   0.0000
    63 H2       -5.9334   -8.1360   -2.6181   H         1 RES1   0.0000
    64 H3       -5.4271   -6.7380   -1.6746   H         1 RES1   0.0000
    65 H4       -5.5126   -9.6245   -0.6746   H         1 RES1   0.0000
    66 H5       -4.9916   -8.2455    0.2896   H         1 RES1   0.0000
    67 H6       -3.1119   -7.8518   -1.2913   H         1 RES1   0.0000
    68 H7       -3.6509   -9.2102   -2.2762   H         1 RES1   0.0000
    69 H8       -3.3220  -10.7503   -0.3638   H         1 RES1   0.0000
    70 H9       -2.7595   -9.4185    0.6346   H         1 RES1   0.0000
    71 H10      -1.4473  -10.2811   -1.9780   H         1 RES1   0.0000
    72 H11      -0.9586  -10.9090   -0.4108   H         1 RES1   0.0000
    73 H12      -0.9074   -7.9369   -1.0381   H         1 RES1   0.0000
    74 H13       0.4390   -9.0173   -1.3891   H         1 RES1   0.0000
    75 H14       0.7604   -9.5430    0.9420   H         1 RES1   0.0000
    76 H15      -0.7771   -8.8150    1.3874   H         1 RES1   0.0000
    77 H16       1.0019   -7.3448    2.0735   H         1 RES1   0.0000
    78 H17       0.0646   -6.5830    0.7850   H         1 RES1   0.0000
    79 H18       1.8294   -7.2589   -0.8540   H         1 RES1   0.0000
    80 H19       2.7761   -7.9573    0.4556   H         1 RES1   0.0000
    81 H20       3.0407   -5.7904    1.5186   H         1 RES1   0.0000
    82 H21       1.8507   -5.0607    0.4440   H         1 RES1   0.0000
    83 H22       3.5748   -5.9495   -1.4383   H         1 RES1   0.0000
    84 H23       4.7268   -5.8243   -0.1317   H         1 RES1   0.0000
    85 H24       4.6492   -3.7678   -1.5161   H         1 RES1   0.0000
    86 H25       4.3637   -3.5028    0.2056   H         1 RES1   0.0000
    87 H26       1.2277   -4.5081   -1.8863   H         1 RES1   0.0000
    88 H27       2.7826   -4.4558   -2.7213   H         1 RES1   0.0000
    89 H28       1.7739   -3.1890   -4.2558   H         1 RES1   0.0000
    90 H29       1.9938   -1.8735   -3.0959   H         1 RES1   0.0000
    91 H30      -0.2779   -1.8400   -3.9283   H         1 RES1   0.0000
    92 H31      -0.3052   -2.3331   -2.2231   H         1 RES1   0.0000
    93 H32      -0.2116   -4.8027   -3.4481   H         1 RES1   0.0000
    94 H33      -0.9795   -3.8690   -4.7136   H         1 RES1   0.0000
    95 H34      -2.7805   -4.7353   -3.4790   H         1 RES1   0.0000
    96 H35      -2.6697   -3.1051   -2.8629   H         1 RES1   0.0000
    97 H36      -1.1624   -4.1251   -0.9654   H         1 RES1   0.0000
    98 H37      -1.6310   -5.6897   -1.6139   H         1 RES1   0.0000
    99 H38      -3.9987   -5.2573   -1.1627   H         1 RES1   0.0000
   100 H39      -3.6481   -3.6540   -0.5428   H         1 RES1   0.0000
   101 H40      -2.1561   -4.7696    1.2232   H         1 RES1   0.0000
   102 H41      -2.6760   -6.3199    0.5763   H         1 RES1   0.0000
   103 H42      -4.0920   -6.0452    2.3977   H         1 RES1   0.0000
   104 H43      -5.0959   -5.5222    1.0551   H         1 RES1   0.0000
   105 H44      -4.6194   -3.1472    1.6215   H         1 RES1   0.0000
   106 H45      -3.5340   -3.6755    2.9187   H         1 RES1   0.0000
   107 H46      -5.4482   -4.8352    4.0237   H         1 RES1   0.0000
   108 H47      -6.5212   -4.2691    2.7484   H         1 RES1   0.0000
   109 H48      -4.9877   -2.4909    4.7058   H         1 RES1   0.0000
   110 H49      -6.7126   -2.8376    4.7381   H         1 RES1   0.0000
   111 H50      -6.0409   -1.9022    3.4059   H         1 RES1   0.0000
   112 H51       3.7763   -1.2727    0.5456   H         1 RES1   0.0000
   113 H52       3.0191   -2.4350    1.6704   H         1 RES1   0.0000
   114 H53       1.1850    0.1960    3.0290   H         1 RES1   0.0000
   115 H54       2.3387   -1.1308    3.3565   H         1 RES1   0.0000
   116 H55       0.1105   -1.9951    3.8167   H         1 RES1   0.0000
   117 H56       0.6656   -2.7522    2.2990   H         1 RES1   0.0000
   118 H57      -1.6769   -0.9697    3.8822   H         1 RES1   0.0000
   119 H58      -2.7711   -1.2649    2.5173   H         1 RES1   0.0000
   120 H59      -1.9657    3.3374    2.9010   H         1 RES1   0.0000
   121 H60      -3.5087    3.3084    3.7643   H         1 RES1   0.0000
   122 H61      -3.0840    2.9328    0.7757   H         1 RES1   0.0000
   123 H62      -3.7386    4.3278    1.6175   H         1 RES1   0.0000
   124 H63      -5.7048    3.3701    0.8726   H         1 RES1   0.0000
   125 H64      -5.5996    2.6710    2.4780   H         1 RES1   0.0000
   126 H65      -4.4349    0.6497    1.3489   H         1 RES1   0.0000
   127 H66      -4.9322    1.3805   -0.1957   H         1 RES1   0.0000
   128 H67      -7.2957    1.2481    0.4733   H         1 RES1   0.0000
   129 H68      -6.8403    0.5461    2.0194   H         1 RES1   0.0000
   130 H69      -5.6887   -1.3287    0.7558   H         1 RES1   0.0000
   131 H70      -6.3496   -0.6652   -0.7408   H         1 RES1   0.0000
   132 H71      -8.6492   -0.9996    0.1120   H         1 RES1   0.0000
   133 H72      -8.0092   -1.6104    1.6321   H         1 RES1   0.0000
   134 H73      -6.8613   -3.4595    0.3475   H         1 RES1   0.0000
   135 H74      -7.6633   -2.8901   -1.1137   H         1 RES1   0.0000
   136 H75      -9.8729   -3.2789   -0.0726   H         1 RES1   0.0000
   137 H76      -9.0991   -3.7826    1.4246   H         1 RES1   0.0000
   138 H77      -8.0167   -5.6823    0.2214   H         1 RES1   0.0000
   139 H78      -8.8176   -5.1844   -1.2684   H         1 RES1   0.0000
   140 H79     -11.0330   -5.5260   -0.1923   H         1 RES1   0.0000
   141 H80     -10.2390   -6.0158    1.2997   H         1 RES1   0.0000
   142 H81      -9.9925   -7.4565   -1.3826   H         1 RES1   0.0000
   143 H82     -10.9586   -7.9914   -0.0101   H         1 RES1   0.0000
   144 H83      -9.2024   -7.9529    0.1156   H         1 RES1   0.0000
   145 H84      -3.8919   -0.0863    4.1279   H         1 RES1   0.0000
   146 H85      -4.4425    1.5415    4.4698   H         1 RES1   0.0000
   147 H86      -1.8290    0.3587    5.5262   H         1 RES1   0.0000
   148 H87      -3.3385    0.4804    6.4182   H         1 RES1   0.0000
   149 H88      -3.2503    2.9085    6.3732   H         1 RES1   0.0000
   150 H89      -1.8604    2.9079    5.2872   H         1 RES1   0.0000
   151 H90      -1.8265    1.7302    8.0883   H         1 RES1   0.0000
   152 H91      -1.3196    3.3635    7.6831   H         1 RES1   0.0000
   153 H92      -0.0197    0.8212    6.5974   H         1 RES1   0.0000
   154 H93       0.5701    1.8143    7.9187   H         1 RES1   0.0000
   155 H94       0.7952    3.7521    6.3890   H         1 RES1   0.0000
   156 H95       0.2758    2.7506    5.0318   H         1 RES1   0.0000
   157 H96       2.2288    1.3018    5.2737   H         1 RES1   0.0000
   158 H97       2.6205    2.0372    6.8204   H         1 RES1   0.0000
   159 H98       4.1860    3.0046    5.4775   H         1 RES1   0.0000
   160 H99       2.9615    4.2496    5.5135   H         1 RES1   0.0000
   161 H100      3.2917    2.1979    3.2817   H         1 RES1   0.0000
   162 H101      4.0838    3.7726    3.3021   H         1 RES1   0.0000
   163 H102      1.0871    3.2718    3.0885   H         1 RES1   0.0000
   164 H103      2.2169    3.8695    1.8373   H         1 RES1   0.0000
   165 H104      2.6073    5.9177    3.1264   H         1 RES1   0.0000
   166 H105      1.4474    5.3953    4.3472   H         1 RES1   0.0000
   167 H106      0.7724    5.7999    1.3923   H         1 RES1   0.0000
   168 H107      0.4193    6.9420    2.6838   H         1 RES1   0.0000
   169 H108     -0.3707    5.3691    2.6740   H         1 RES1   0.0000
   170 O5       -0.3649    0.6347   -2.6149   O.3       1 RES1   0.0000
   171 H109     -0.8201    1.4291   -2.9214   H         1 RES1   0.0000
   172 H110     -0.3769    0.0317   -3.3747   H         1 RES1   0.0000
   173 O6       -2.3028    1.0648   -0.8489   O.3       1 RES1   0.0000
   174 H111     -3.0664    0.4890   -0.6656   H         1 RES1   0.0000
   175 H112     -2.6717    1.9599   -0.8954   H         1 RES1   0.0000
   176 O7       -1.9609   -1.5689   -0.5485   O.3       1 RES1   0.0000
   177 H113     -2.0043   -2.4226   -0.0848   H         1 RES1   0.0000
   178 H114     -2.3330   -1.7712   -1.4231   H         1 RES1   0.0000
   179 O8        2.2046    0.5764   -1.4824   O.3       1 RES1   0.0000
   180 H115      2.9611    0.9929   -1.0501   H         1 RES1   0.0000
   181 H116      2.2584    0.8757   -2.4015   H         1 RES1   0.0000
   182 O9        1.0138    2.1036    0.4189   O.3       1 RES1   0.0000
   183 H117      1.8522    2.2242    0.9022   H         1 RES1   0.0000
   184 H118      0.4255    2.7694    0.8105   H         1 RES1   0.0000
@<TRIPOS>BOND
     1     1    28    1
     2     1    30    1
     3     1    33    1
     4     1    36    1
     5     1   170    1
     6     1   173    1
     7     1   176    1
     8     1   179    1
     9     1   182    1
    10     2     3    1
    11     2    62    1
    12     2    63    1
    13     2    64    1
    14     3     4    1
    15     3    65    1
    16     3    66    1
    17     4     5    1
    18     4    67    1
    19     4    68    1
    20     5     6    1
    21     5    69    1
    22     5    70    1
    23     6     7    1
    24     6    71    1
    25     6    72    1
    26     7     8    1
    27     7    73    1
    28     7    74    1
    29     8     9    1
    30     8    75    1
    31     8    76    1
    32     9    10    1
    33     9    77    1
    34     9    78    1
    35    10    11    1
    36    10    79    1
    37    10    80    1
    38    11    12    1
    39    11    81    1
    40    11    82    1
    41    12    13    1
    42    12    83    1
    43    12    84    1
    44    13    14    1
    45    13    85    1
    46    13    86    1
    47    14    15    1
    48    14    27    1
    49    15    16    1
    50    15    87    1
    51    15    88    1
    52    16    17    1
    53    16    89    1
    54    16    90    1
    55    17    18    1
    56    17    91    1
    57    17    92    1
    58    18    19    1
    59    18    93    1
    60    18    94    1
    61    19    20    1
    62    19    95    1
    63    19    96    1
    64    20    21    1
    65    20    97    1
    66    20    98    1
    67    21    22    1
    68    21    99    1
    69    21   100    1
    70    22    23    1
    71    22   101    1
    72    22   102    1
    73    23    24    1
    74    23   103    1
    75    23   104    1
    76    24    25    1
    77    24   105    1
    78    24   106    1
    79    25    26    1
    80    25   107    1
    81    25   108    1
    82    26   109    1
    83    26   110    1
    84    26   111    1
    85    27    28    2
    86    27    29    1
    87    29    30    1
    88    29   112    1
    89    29   113    1
    90    30    31    1
    91    31    32    1
    92    31   114    1
    93    31   115    1
    94    32    33    1
    95    32   116    1
    96    32   117    1
    97    33    34    1
    98    34    35    1
    99    34   118    1
   100    34   119    1
   101    35    36    2
   102    35    37    1
   103    37    38    1
   104    37    50    1
   105    38    39    1
   106    38   120    1
   107    38   121    1
   108    39    40    1
   109    39   122    1
   110    39   123    1
   111    40    41    1
   112    40   124    1
   113    40   125    1
   114    41    42    1
   115    41   126    1
   116    41   127    1
   117    42    43    1
   118    42   128    1
   119    42   129    1
   120    43    44    1
   121    43   130    1
   122    43   131    1
   123    44    45    1
   124    44   132    1
   125    44   133    1
   126    45    46    1
   127    45   134    1
   128    45   135    1
   129    46    47    1
   130    46   136    1
   131    46   137    1
   132    47    48    1
   133    47   138    1
   134    47   139    1
   135    48    49    1
   136    48   140    1
   137    48   141    1
   138    49   142    1
   139    49   143    1
   140    49   144    1
   141    50    51    1
   142    50   145    1
   143    50   146    1
   144    51    52    1
   145    51   147    1
   146    51   148    1
   147    52    53    1
   148    52   149    1
   149    52   150    1
   150    53    54    1
   151    53   151    1
   152    53   152    1
   153    54    55    1
   154    54   153    1
   155    54   154    1
   156    55    56    1
   157    55   155    1
   158    55   156    1
   159    56    57    1
   160    56   157    1
   161    56   158    1
   162    57    58    1
   163    57   159    1
   164    57   160    1
   165    58    59    1
   166    58   161    1
   167    58   162    1
   168    59    60    1
   169    59   163    1
   170    59   164    1
   171    60    61    1
   172    60   165    1
   173    60   166    1
   174    61   167    1
   175    61   168    1
   176    61   169    1
   177   170   171    1
   178   170   172    1
   179   173   174    1
   180   173   175    1
   181   176   177    1
   182   176   178    1
   183   179   180    1
   184   179   181    1
   185   182   183    1
   186   182   184    1
@<TRIPOS>SUBSTRUCTURE
     1 RES1      184 GROUP             0 ****  ****    0  
