@<TRIPOS>MOLECULE
axial_bicapped_trigonal_prismatic_0_nunpairedes_0_charge_3 Charge: 3 Unpaired_Electrons: 6 XTB_Unpaired_Electrons: 0 XTB_Charge: 3
   341   344     1     0     0
SMALL
NoCharges
****
Generated from Architector

@<TRIPOS>ATOM
     1 Tb1       0.0788    0.0043    0.0684   Tb        1 RES1   0.0000
     2 C1        2.5380    2.1161   -7.8649   C.3       1 RES1   0.0000
     3 C2        1.0864    2.3813   -7.4984   C.3       1 RES1   0.0000
     4 C3        0.9940    3.3156   -6.2960   C.3       1 RES1   0.0000
     5 C4       -0.4223    3.7322   -5.8898   C.3       1 RES1   0.0000
     6 C5       -1.2209    2.6779   -5.1080   C.3       1 RES1   0.0000
     7 C6       -1.9933    1.6865   -5.9820   C.3       1 RES1   0.0000
     8 C7       -2.9721    0.8221   -5.1829   C.3       1 RES1   0.0000
     9 C8       -2.3350   -0.2919   -4.3526   C.3       1 RES1   0.0000
    10 N1       -3.2094   -0.6500   -3.2419   N.am      1 RES1   0.0000
    11 C9       -4.4899   -1.2436   -3.5749   C.3       1 RES1   0.0000
    12 C10      -2.7491   -0.4782   -2.0083   C.2       1 RES1   0.0000
    13 O1       -1.5847   -0.1032   -1.7896   O.2       1 RES1   0.0000
    14 C11      -3.6488   -0.8072   -0.8005   C.3       1 RES1   0.0000
    15 C12      -2.9826   -2.1214   -0.3174   C.3       1 RES1   0.0000
    16 C13      -3.5527   -3.0379    0.7665   C.3       1 RES1   0.0000
    17 C14      -4.9092   -3.6787    0.4967   C.3       1 RES1   0.0000
    18 C15      -4.8375   -4.8059   -0.5249   C.3       1 RES1   0.0000
    19 C16      -6.1627   -5.5470   -0.6745   C.3       1 RES1   0.0000
    20 C17      -7.2813   -4.6705   -1.2144   C.3       1 RES1   0.0000
    21 C18      -3.4265    0.3985    0.1098   C.2       1 RES1   0.0000
    22 O2       -2.2686    0.6731    0.4738   O.2       1 RES1   0.0000
    23 N2       -4.4285    1.2430    0.3898   N.am      1 RES1   0.0000
    24 C19      -4.0010    2.5068    0.9620   C.3       1 RES1   0.0000
    25 C20      -5.8502    0.9932    0.1316   C.3       1 RES1   0.0000
    26 C21      -6.8449    1.9523    0.8150   C.3       1 RES1   0.0000
    27 C22      -6.8339    2.0659    2.3479   C.3       1 RES1   0.0000
    28 C23      -8.1294    2.6923    2.8675   C.3       1 RES1   0.0000
    29 C24      -8.1119    2.9982    4.3719   C.3       1 RES1   0.0000
    30 C25      -7.9689    1.7913    5.3136   C.3       1 RES1   0.0000
    31 C26      -6.5239    1.4411    5.6703   C.3       1 RES1   0.0000
    32 C27      -6.4473    0.2978    6.6734   C.3       1 RES1   0.0000
    33 H1        2.6018    1.4526   -8.7192   H         1 RES1   0.0000
    34 H2        3.0683    1.6569   -7.0340   H         1 RES1   0.0000
    35 H3        3.0401    3.0431   -8.1198   H         1 RES1   0.0000
    36 H4        0.5951    1.4338   -7.2807   H         1 RES1   0.0000
    37 H5        0.5741    2.8347   -8.3463   H         1 RES1   0.0000
    38 H6        1.5484    4.2248   -6.5403   H         1 RES1   0.0000
    39 H7        1.4845    2.8464   -5.4385   H         1 RES1   0.0000
    40 H8       -0.9828    4.0287   -6.7785   H         1 RES1   0.0000
    41 H9       -0.3348    4.6216   -5.2546   H         1 RES1   0.0000
    42 H10      -1.9562    3.2111   -4.4990   H         1 RES1   0.0000
    43 H11      -0.5482    2.1402   -4.4303   H         1 RES1   0.0000
    44 H12      -1.3095    1.0525   -6.5435   H         1 RES1   0.0000
    45 H13      -2.5787    2.2558   -6.7079   H         1 RES1   0.0000
    46 H14      -3.6943    0.3807   -5.8687   H         1 RES1   0.0000
    47 H15      -3.5131    1.4746   -4.5018   H         1 RES1   0.0000
    48 H16      -1.3881    0.0343   -3.9226   H         1 RES1   0.0000
    49 H17      -2.1536   -1.1802   -4.9611   H         1 RES1   0.0000
    50 H18      -4.5357   -1.3776   -4.6529   H         1 RES1   0.0000
    51 H19      -5.3247   -0.6097   -3.2758   H         1 RES1   0.0000
    52 H20      -4.5954   -2.2192   -3.0991   H         1 RES1   0.0000
    53 H21      -4.6913   -0.9096   -1.0856   H         1 RES1   0.0000
    54 H22      -1.9830   -1.8168    0.0208   H         1 RES1   0.0000
    55 H23      -2.8594   -2.7368   -1.2059   H         1 RES1   0.0000
    56 H24      -3.5589   -2.5239    1.7204   H         1 RES1   0.0000
    57 H25      -2.8185   -3.8424    0.8534   H         1 RES1   0.0000
    58 H26      -5.6218   -2.9253    0.1658   H         1 RES1   0.0000
    59 H27      -5.2664   -4.0892    1.4416   H         1 RES1   0.0000
    60 H28      -4.0672   -5.5144   -0.2096   H         1 RES1   0.0000
    61 H29      -4.5436   -4.3918   -1.4913   H         1 RES1   0.0000
    62 H30      -6.4550   -5.9609    0.2902   H         1 RES1   0.0000
    63 H31      -6.0104   -6.3843   -1.3525   H         1 RES1   0.0000
    64 H32      -7.5296   -3.8754   -0.5194   H         1 RES1   0.0000
    65 H33      -8.1768   -5.2609   -1.3695   H         1 RES1   0.0000
    66 H34      -6.9983   -4.2285   -2.1659   H         1 RES1   0.0000
    67 H35      -3.1014    2.8290    0.4326   H         1 RES1   0.0000
    68 H36      -3.7542    2.3856    2.0173   H         1 RES1   0.0000
    69 H37      -4.7885    3.2435    0.8549   H         1 RES1   0.0000
    70 H38      -6.0803   -0.0286    0.4479   H         1 RES1   0.0000
    71 H39      -6.0230    1.0566   -0.9527   H         1 RES1   0.0000
    72 H40      -7.8299    1.5801    0.5280   H         1 RES1   0.0000
    73 H41      -6.7637    2.9497    0.3792   H         1 RES1   0.0000
    74 H42      -6.0004    2.6771    2.6977   H         1 RES1   0.0000
    75 H43      -6.7561    1.0836    2.7994   H         1 RES1   0.0000
    76 H44      -8.9649    2.0267    2.6375   H         1 RES1   0.0000
    77 H45      -8.3033    3.6311    2.3371   H         1 RES1   0.0000
    78 H46      -9.0566    3.4971    4.5981   H         1 RES1   0.0000
    79 H47      -7.3097    3.7108    4.5845   H         1 RES1   0.0000
    80 H48      -8.4651    0.9204    4.8787   H         1 RES1   0.0000
    81 H49      -8.4869    2.0192    6.2465   H         1 RES1   0.0000
    82 H50      -6.0326    2.3213    6.0904   H         1 RES1   0.0000
    83 H51      -5.9836    1.1635    4.7662   H         1 RES1   0.0000
    84 H52      -6.8980    0.5882    7.6152   H         1 RES1   0.0000
    85 H53      -5.4146    0.0182    6.8693   H         1 RES1   0.0000
    86 H54      -6.9801   -0.5761    6.3082   H         1 RES1   0.0000
    87 C28       2.3504   -0.5329    2.2878   C.3       1 RES1   0.0000
    88 C29       3.6325   -1.3350    2.1014   C.3       1 RES1   0.0000
    89 C30       4.8106   -0.6190    1.4525   C.3       1 RES1   0.0000
    90 C31       5.9656   -1.6108    1.2408   C.3       1 RES1   0.0000
    91 C32       5.5401   -2.9412    0.5963   C.3       1 RES1   0.0000
    92 C33       5.1581   -4.0096    1.6385   C.3       1 RES1   0.0000
    93 C34       4.1337   -5.0464    1.1635   C.3       1 RES1   0.0000
    94 C35       2.6757   -4.5993    0.9442   C.3       1 RES1   0.0000
    95 N3        2.3083   -4.4159   -0.4581   N.am      1 RES1   0.0000
    96 C36       2.4479   -5.5966   -1.2992   C.3       1 RES1   0.0000
    97 C37       1.6383   -3.3268   -0.8410   C.2       1 RES1   0.0000
    98 O3        1.3834   -2.3813   -0.0681   O.2       1 RES1   0.0000
    99 C38       1.0519   -3.3486   -2.2546   C.3       1 RES1   0.0000
   100 C39      -0.4634   -3.5365   -1.9930   C.3       1 RES1   0.0000
   101 C40      -1.3259   -3.7422   -3.2389   C.3       1 RES1   0.0000
   102 C41      -1.3764   -5.1827   -3.7571   C.3       1 RES1   0.0000
   103 C42      -2.3052   -6.0773   -2.9389   C.3       1 RES1   0.0000
   104 C43      -2.4807   -7.4656   -3.5499   C.3       1 RES1   0.0000
   105 C44      -1.2194   -8.3124   -3.5123   C.3       1 RES1   0.0000
   106 C45       1.1730   -1.9854   -2.9069   C.2       1 RES1   0.0000
   107 O4        0.8884   -1.0040   -2.2081   O.2       1 RES1   0.0000
   108 N4        1.4578   -1.8741   -4.2118   N.am      1 RES1   0.0000
   109 C46       1.5098   -0.5266   -4.7487   C.3       1 RES1   0.0000
   110 C47       2.0058   -2.8944   -5.1085   C.3       1 RES1   0.0000
   111 C48       1.3856   -2.8507   -6.5111   C.3       1 RES1   0.0000
   112 C49      -0.1221   -3.0666   -6.4404   C.3       1 RES1   0.0000
   113 C50      -0.8584   -3.0301   -7.7784   C.3       1 RES1   0.0000
   114 C51      -0.8787   -1.6454   -8.4336   C.3       1 RES1   0.0000
   115 C52      -1.9594   -1.5174   -9.5178   C.3       1 RES1   0.0000
   116 C53      -3.3207   -0.9969   -9.0402   C.3       1 RES1   0.0000
   117 C54      -4.0892   -1.9364   -8.1193   C.3       1 RES1   0.0000
   118 H55       1.5370   -1.2081    2.5711   H         1 RES1   0.0000
   119 H56       2.0881   -0.0011    1.3455   H         1 RES1   0.0000
   120 H57       2.4658    0.1883    3.0887   H         1 RES1   0.0000
   121 H58       3.3962   -2.1674    1.4535   H         1 RES1   0.0000
   122 H59       3.9462   -1.7158    3.0763   H         1 RES1   0.0000
   123 H60       5.1538    0.2025    2.0856   H         1 RES1   0.0000
   124 H61       4.4903   -0.1918    0.4946   H         1 RES1   0.0000
   125 H62       6.4304   -1.8264    2.2042   H         1 RES1   0.0000
   126 H63       6.7217   -1.1284    0.6217   H         1 RES1   0.0000
   127 H64       6.3678   -3.3312   -0.0004   H         1 RES1   0.0000
   128 H65       4.7137   -2.7643   -0.0969   H         1 RES1   0.0000
   129 H66       4.8042   -3.5594    2.5643   H         1 RES1   0.0000
   130 H67       6.0639   -4.5636    1.8952   H         1 RES1   0.0000
   131 H68       4.1062   -5.8353    1.9165   H         1 RES1   0.0000
   132 H69       4.5123   -5.4808    0.2408   H         1 RES1   0.0000
   133 H70       2.4410   -3.6752    1.4702   H         1 RES1   0.0000
   134 H71       2.0047   -5.3732    1.3321   H         1 RES1   0.0000
   135 H72       2.9084   -6.3853   -0.7091   H         1 RES1   0.0000
   136 H73       3.0915   -5.3979   -2.1589   H         1 RES1   0.0000
   137 H74       1.4699   -5.9468   -1.6385   H         1 RES1   0.0000
   138 H75       1.4792   -4.1336   -2.8630   H         1 RES1   0.0000
   139 H76      -0.7603   -2.6115   -1.4851   H         1 RES1   0.0000
   140 H77      -0.6150   -4.3616   -1.2953   H         1 RES1   0.0000
   141 H78      -0.9616   -3.0676   -4.0122   H         1 RES1   0.0000
   142 H79      -2.3484   -3.4408   -2.9920   H         1 RES1   0.0000
   143 H80      -0.3715   -5.6062   -3.7863   H         1 RES1   0.0000
   144 H81      -1.7513   -5.1658   -4.7806   H         1 RES1   0.0000
   145 H82      -3.2881   -5.6026   -2.8844   H         1 RES1   0.0000
   146 H83      -1.9233   -6.1726   -1.9202   H         1 RES1   0.0000
   147 H84      -2.8197   -7.3615   -4.5812   H         1 RES1   0.0000
   148 H85      -3.2660   -7.9822   -2.9997   H         1 RES1   0.0000
   149 H86      -0.4359   -7.8844   -4.1290   H         1 RES1   0.0000
   150 H87      -1.4346   -9.3046   -3.8920   H         1 RES1   0.0000
   151 H88      -0.8518   -8.4108   -2.4946   H         1 RES1   0.0000
   152 H89       1.1989    0.1767   -3.9795   H         1 RES1   0.0000
   153 H90       0.8483   -0.4391   -5.6051   H         1 RES1   0.0000
   154 H91       2.5313   -0.3079   -5.0516   H         1 RES1   0.0000
   155 H92       1.8444   -3.8944   -4.7039   H         1 RES1   0.0000
   156 H93       3.0868   -2.7227   -5.1788   H         1 RES1   0.0000
   157 H94       1.8335   -3.6534   -7.0965   H         1 RES1   0.0000
   158 H95       1.6179   -1.9095   -7.0068   H         1 RES1   0.0000
   159 H96      -0.5506   -2.2933   -5.7966   H         1 RES1   0.0000
   160 H97      -0.2969   -4.0413   -5.9803   H         1 RES1   0.0000
   161 H98      -1.8821   -3.3570   -7.5922   H         1 RES1   0.0000
   162 H99      -0.4082   -3.7520   -8.4615   H         1 RES1   0.0000
   163 H100      0.1023   -1.4611   -8.8806   H         1 RES1   0.0000
   164 H101     -1.0444   -0.8744   -7.6735   H         1 RES1   0.0000
   165 H102     -2.0883   -2.4880  -10.0009   H         1 RES1   0.0000
   166 H103     -1.5996   -0.8209  -10.2775   H         1 RES1   0.0000
   167 H104     -3.9302   -0.8295   -9.9290   H         1 RES1   0.0000
   168 H105     -3.1901   -0.0284   -8.5488   H         1 RES1   0.0000
   169 H106     -4.1766   -2.9191   -8.5729   H         1 RES1   0.0000
   170 H107     -5.0953   -1.5580   -7.9530   H         1 RES1   0.0000
   171 H108     -3.5996   -2.0388   -7.1534   H         1 RES1   0.0000
   172 C55       3.8765    7.6199    3.0079   C.3       1 RES1   0.0000
   173 C56       2.5337    7.7091    3.7169   C.3       1 RES1   0.0000
   174 C57       2.6266    7.2511    5.1692   C.3       1 RES1   0.0000
   175 C58       1.2694    7.1861    5.8892   C.3       1 RES1   0.0000
   176 C59       0.5461    5.8277    5.8789   C.3       1 RES1   0.0000
   177 C60      -0.2346    5.4081    4.6179   C.3       1 RES1   0.0000
   178 C61      -0.6343    3.9294    4.7609   C.3       1 RES1   0.0000
   179 C62      -1.3905    3.2860    3.5871   C.3       1 RES1   0.0000
   180 N5       -1.9183    1.9586    3.9329   N.am      1 RES1   0.0000
   181 C63      -2.8956    1.9344    4.9997   C.3       1 RES1   0.0000
   182 C64      -1.4787    0.8619    3.2931   C.2       1 RES1   0.0000
   183 O5       -0.5481    0.9327    2.4833   O.2       1 RES1   0.0000
   184 C65      -2.0166   -0.5393    3.7041   C.3       1 RES1   0.0000
   185 C66      -3.5234   -0.8744    3.8884   C.3       1 RES1   0.0000
   186 C67      -4.6241   -0.6082    2.8606   C.3       1 RES1   0.0000
   187 C68      -5.8368   -1.4322    3.3465   C.3       1 RES1   0.0000
   188 C69      -7.0608   -1.5554    2.4360   C.3       1 RES1   0.0000
   189 C70      -8.2771   -2.0829    3.2012   C.3       1 RES1   0.0000
   190 C71      -8.0958   -3.4656    3.8080   C.3       1 RES1   0.0000
   191 C72      -1.3405   -1.6228    2.8442   C.2       1 RES1   0.0000
   192 O6       -0.9120   -1.3744    1.6992   O.2       1 RES1   0.0000
   193 N6       -1.1629   -2.8572    3.3462   N.am      1 RES1   0.0000
   194 C73      -0.3132   -3.7445    2.5689   C.3       1 RES1   0.0000
   195 C74      -1.5975   -3.3753    4.6541   C.3       1 RES1   0.0000
   196 C75      -1.4968   -4.8973    4.8494   C.3       1 RES1   0.0000
   197 C76      -2.5010   -5.7551    4.0662   C.3       1 RES1   0.0000
   198 C77      -2.5236   -7.2281    4.5156   C.3       1 RES1   0.0000
   199 C78      -1.2223   -8.0413    4.4144   C.3       1 RES1   0.0000
   200 C79      -0.8939   -8.7073    3.0692   C.3       1 RES1   0.0000
   201 C80      -0.6038   -7.7732    1.8867   C.3       1 RES1   0.0000
   202 C81      -1.8281   -7.5411    1.0074   C.3       1 RES1   0.0000
   203 H109      3.7929    7.9305    1.9705   H         1 RES1   0.0000
   204 H110      4.2703    6.6072    3.0453   H         1 RES1   0.0000
   205 H111      4.5946    8.2724    3.4911   H         1 RES1   0.0000
   206 H112      1.7916    7.1022    3.1995   H         1 RES1   0.0000
   207 H113      2.1787    8.7393    3.6886   H         1 RES1   0.0000
   208 H114      3.2596    7.9659    5.6971   H         1 RES1   0.0000
   209 H115      3.1312    6.2819    5.2218   H         1 RES1   0.0000
   210 H116      0.6127    7.9649    5.4954   H         1 RES1   0.0000
   211 H117      1.4538    7.4111    6.9432   H         1 RES1   0.0000
   212 H118     -0.1717    5.8370    6.7032   H         1 RES1   0.0000
   213 H119      1.2801    5.0509    6.1116   H         1 RES1   0.0000
   214 H120      0.3593    5.5601    3.7187   H         1 RES1   0.0000
   215 H121     -1.1259    6.0316    4.5170   H         1 RES1   0.0000
   216 H122     -1.2501    3.8716    5.6578   H         1 RES1   0.0000
   217 H123      0.2632    3.3417    4.9514   H         1 RES1   0.0000
   218 H124     -0.7319    3.1578    2.7263   H         1 RES1   0.0000
   219 H125     -2.2377    3.9143    3.2916   H         1 RES1   0.0000
   220 H126     -2.9678    2.9293    5.4314   H         1 RES1   0.0000
   221 H127     -2.5869    1.2441    5.7852   H         1 RES1   0.0000
   222 H128     -3.8772    1.6472    4.6278   H         1 RES1   0.0000
   223 H129     -1.5890   -0.6679    4.7079   H         1 RES1   0.0000
   224 H130     -3.8695   -0.4518    4.8279   H         1 RES1   0.0000
   225 H131     -3.5472   -1.9535    4.0171   H         1 RES1   0.0000
   226 H132     -4.3211   -0.9014    1.8619   H         1 RES1   0.0000
   227 H133     -4.8623    0.4494    2.8118   H         1 RES1   0.0000
   228 H134     -6.1578   -1.0064    4.2973   H         1 RES1   0.0000
   229 H135     -5.4902   -2.4461    3.5582   H         1 RES1   0.0000
   230 H136     -6.8445   -2.2285    1.6063   H         1 RES1   0.0000
   231 H137     -7.3308   -0.5846    2.0229   H         1 RES1   0.0000
   232 H138     -9.1166   -2.1097    2.5068   H         1 RES1   0.0000
   233 H139     -8.5230   -1.3700    3.9892   H         1 RES1   0.0000
   234 H140     -7.8282   -4.1920    3.0462   H         1 RES1   0.0000
   235 H141     -9.0285   -3.7817    4.2615   H         1 RES1   0.0000
   236 H142     -7.3350   -3.4662    4.5824   H         1 RES1   0.0000
   237 H143      0.0825   -3.2204    1.6994   H         1 RES1   0.0000
   238 H144     -0.8881   -4.6018    2.2331   H         1 RES1   0.0000
   239 H145      0.5168   -4.0753    3.1896   H         1 RES1   0.0000
   240 H146     -2.6428   -3.1216    4.8296   H         1 RES1   0.0000
   241 H147     -1.0121   -2.8732    5.4360   H         1 RES1   0.0000
   242 H148     -1.6898   -5.0517    5.9116   H         1 RES1   0.0000
   243 H149     -0.4830   -5.2403    4.6596   H         1 RES1   0.0000
   244 H150     -2.3072   -5.7033    2.9967   H         1 RES1   0.0000
   245 H151     -3.5095   -5.3591    4.2204   H         1 RES1   0.0000
   246 H152     -3.2929   -7.7486    3.9411   H         1 RES1   0.0000
   247 H153     -2.8483   -7.2455    5.5596   H         1 RES1   0.0000
   248 H154     -1.3237   -8.8650    5.1257   H         1 RES1   0.0000
   249 H155     -0.3721   -7.4397    4.7453   H         1 RES1   0.0000
   250 H156     -1.7052   -9.3837    2.7918   H         1 RES1   0.0000
   251 H157     -0.0102   -9.3263    3.2453   H         1 RES1   0.0000
   252 H158      0.1771   -8.2187    1.2644   H         1 RES1   0.0000
   253 H159     -0.2130   -6.8227    2.2613   H         1 RES1   0.0000
   254 H160     -2.1347   -8.4698    0.5345   H         1 RES1   0.0000
   255 H161     -1.6066   -6.8205    0.2210   H         1 RES1   0.0000
   256 H162     -2.6714   -7.1766    1.5852   H         1 RES1   0.0000
   257 C82       7.1768    3.4419    1.8376   C.3       1 RES1   0.0000
   258 C83       7.7199    2.3309    0.9518   C.3       1 RES1   0.0000
   259 C84       7.0704    2.3551   -0.4281   C.3       1 RES1   0.0000
   260 C85       7.5666    1.2226   -1.3278   C.3       1 RES1   0.0000
   261 C86       7.1594    1.3243   -2.8014   C.3       1 RES1   0.0000
   262 C87       5.6886    1.0272   -3.1081   C.3       1 RES1   0.0000
   263 C88       4.7397    2.1494   -2.6935   C.3       1 RES1   0.0000
   264 C89       3.3276    1.9072   -3.2138   C.3       1 RES1   0.0000
   265 N7        2.4080    2.9188   -2.7109   N.am      1 RES1   0.0000
   266 C90       2.5901    4.2782   -3.1944   C.3       1 RES1   0.0000
   267 C91       1.4864    2.5501   -1.8197   C.2       1 RES1   0.0000
   268 O7        1.2794    1.3626   -1.5246   O.2       1 RES1   0.0000
   269 C92       0.7358    3.6417   -1.0691   C.3       1 RES1   0.0000
   270 C93      -0.7956    3.5971   -1.3073   C.3       1 RES1   0.0000
   271 C94      -1.3760    4.9849   -0.9850   C.3       1 RES1   0.0000
   272 C95      -2.8779    5.2887   -1.1451   C.3       1 RES1   0.0000
   273 C96      -3.5840    4.9827   -2.4731   C.3       1 RES1   0.0000
   274 C97      -4.1690    3.5726   -2.5641   C.3       1 RES1   0.0000
   275 C98      -5.0607    3.4235   -3.7904   C.3       1 RES1   0.0000
   276 C99       1.1429    3.3425    0.3895   C.2       1 RES1   0.0000
   277 O8        0.9667    2.1824    0.8006   O.2       1 RES1   0.0000
   278 N8        1.7270    4.2933    1.1121   N.am      1 RES1   0.0000
   279 C100      1.7775    5.6960    0.7312   C.3       1 RES1   0.0000
   280 C101      2.4475    4.0869    2.3853   C.3       1 RES1   0.0000
   281 C102      2.5042    2.7120    3.0532   C.3       1 RES1   0.0000
   282 C103      3.0687    2.8877    4.4772   C.3       1 RES1   0.0000
   283 C104      2.9940    1.6479    5.3881   C.3       1 RES1   0.0000
   284 C105      4.1908    0.7005    5.2654   C.3       1 RES1   0.0000
   285 C106      4.1546   -0.4820    6.2433   C.3       1 RES1   0.0000
   286 C107      2.9981   -1.4639    6.0462   C.3       1 RES1   0.0000
   287 C108      3.1433   -2.6856    6.9444   C.3       1 RES1   0.0000
   288 H163      7.6351    3.4006    2.8187   H         1 RES1   0.0000
   289 H164      6.0996    3.3472    1.9589   H         1 RES1   0.0000
   290 H165      7.3878    4.4135    1.4014   H         1 RES1   0.0000
   291 H166      7.5268    1.3614    1.4145   H         1 RES1   0.0000
   292 H167      8.7980    2.4408    0.8489   H         1 RES1   0.0000
   293 H168      7.2760    3.3132   -0.9105   H         1 RES1   0.0000
   294 H169      5.9930    2.2778   -0.2775   H         1 RES1   0.0000
   295 H170      7.2323    0.2624   -0.9264   H         1 RES1   0.0000
   296 H171      8.6576    1.2258   -1.2905   H         1 RES1   0.0000
   297 H172      7.7613    0.6022   -3.3588   H         1 RES1   0.0000
   298 H173      7.4106    2.3182   -3.1782   H         1 RES1   0.0000
   299 H174      5.3922    0.0924   -2.6248   H         1 RES1   0.0000
   300 H175      5.5927    0.8853   -4.1876   H         1 RES1   0.0000
   301 H176      5.1238    3.0968   -3.0714   H         1 RES1   0.0000
   302 H177      4.6807    2.2135   -1.6091   H         1 RES1   0.0000
   303 H178      2.9797    0.9384   -2.8494   H         1 RES1   0.0000
   304 H179      3.3084    1.9193   -4.3053   H         1 RES1   0.0000
   305 H180      3.2962    4.2571   -4.0204   H         1 RES1   0.0000
   306 H181      2.9952    4.9469   -2.4310   H         1 RES1   0.0000
   307 H182      1.6467    4.6739   -3.5730   H         1 RES1   0.0000
   308 H183      1.1073    4.5995   -1.4051   H         1 RES1   0.0000
   309 H184     -1.2293    2.7906   -0.7005   H         1 RES1   0.0000
   310 H185     -0.9667    3.3499   -2.3569   H         1 RES1   0.0000
   311 H186     -0.8398    5.7006   -1.6148   H         1 RES1   0.0000
   312 H187     -1.1289    5.2089    0.0583   H         1 RES1   0.0000
   313 H188     -2.9487    6.3671   -0.9806   H         1 RES1   0.0000
   314 H189     -3.4382    4.8152   -0.3409   H         1 RES1   0.0000
   315 H190     -2.9187    5.1737   -3.3172   H         1 RES1   0.0000
   316 H191     -4.4166    5.6857   -2.5632   H         1 RES1   0.0000
   317 H192     -4.7701    3.3810   -1.6733   H         1 RES1   0.0000
   318 H193     -3.3649    2.8314   -2.5826   H         1 RES1   0.0000
   319 H194     -5.8931    4.1175   -3.7406   H         1 RES1   0.0000
   320 H195     -5.4740    2.4206   -3.8536   H         1 RES1   0.0000
   321 H196     -4.5112    3.6313   -4.7033   H         1 RES1   0.0000
   322 H197      1.2171    5.9302   -0.1671   H         1 RES1   0.0000
   323 H198      2.8159    5.9980    0.5978   H         1 RES1   0.0000
   324 H199      1.3524    6.2894    1.5414   H         1 RES1   0.0000
   325 H200      2.0176    4.7819    3.1068   H         1 RES1   0.0000
   326 H201      3.4805    4.4073    2.2082   H         1 RES1   0.0000
   327 H202      3.1567    2.0617    2.4714   H         1 RES1   0.0000
   328 H203      1.5124    2.2601    3.0972   H         1 RES1   0.0000
   329 H204      2.5030    3.6848    4.9660   H         1 RES1   0.0000
   330 H205      4.1066    3.2224    4.4099   H         1 RES1   0.0000
   331 H206      2.0622    1.1095    5.1934   H         1 RES1   0.0000
   332 H207      2.9559    1.9908    6.4256   H         1 RES1   0.0000
   333 H208      5.1004    1.2728    5.4683   H         1 RES1   0.0000
   334 H209      4.2684    0.3196    4.2474   H         1 RES1   0.0000
   335 H210      4.1242   -0.1028    7.2658   H         1 RES1   0.0000
   336 H211      5.0933   -1.0299    6.1356   H         1 RES1   0.0000
   337 H212      2.9631   -1.7897    5.0041   H         1 RES1   0.0000
   338 H213      2.0506   -0.9714    6.2727   H         1 RES1   0.0000
   339 H214      4.0697   -3.2120    6.7362   H         1 RES1   0.0000
   340 H215      2.3183   -3.3768    6.7932   H         1 RES1   0.0000
   341 H216      3.1512   -2.3931    7.9891   H         1 RES1   0.0000
@<TRIPOS>BOND
     1     1    13    1
     2     1    22    1
     3     1    98    1
     4     1   107    1
     5     1   183    1
     6     1   192    1
     7     1   268    1
     8     1   277    1
     9     2     3    1
    10     2    33    1
    11     2    34    1
    12     2    35    1
    13     3     4    1
    14     3    36    1
    15     3    37    1
    16     4     5    1
    17     4    38    1
    18     4    39    1
    19     5     6    1
    20     5    40    1
    21     5    41    1
    22     6     7    1
    23     6    42    1
    24     6    43    1
    25     7     8    1
    26     7    44    1
    27     7    45    1
    28     8     9    1
    29     8    46    1
    30     8    47    1
    31     9    10    1
    32     9    48    1
    33     9    49    1
    34    10    11    1
    35    10    12    1
    36    11    50    1
    37    11    51    1
    38    11    52    1
    39    12    13    2
    40    12    14    1
    41    14    15    1
    42    14    21    1
    43    14    53    1
    44    15    16    1
    45    15    54    1
    46    15    55    1
    47    16    17    1
    48    16    56    1
    49    16    57    1
    50    17    18    1
    51    17    58    1
    52    17    59    1
    53    18    19    1
    54    18    60    1
    55    18    61    1
    56    19    20    1
    57    19    62    1
    58    19    63    1
    59    20    64    1
    60    20    65    1
    61    20    66    1
    62    21    22    2
    63    21    23    1
    64    23    24    1
    65    23    25    1
    66    24    67    1
    67    24    68    1
    68    24    69    1
    69    25    26    1
    70    25    70    1
    71    25    71    1
    72    26    27    1
    73    26    72    1
    74    26    73    1
    75    27    28    1
    76    27    74    1
    77    27    75    1
    78    28    29    1
    79    28    76    1
    80    28    77    1
    81    29    30    1
    82    29    78    1
    83    29    79    1
    84    30    31    1
    85    30    80    1
    86    30    81    1
    87    31    32    1
    88    31    82    1
    89    31    83    1
    90    32    84    1
    91    32    85    1
    92    32    86    1
    93    87    88    1
    94    87   118    1
    95    87   119    1
    96    87   120    1
    97    88    89    1
    98    88   121    1
    99    88   122    1
   100    89    90    1
   101    89   123    1
   102    89   124    1
   103    90    91    1
   104    90   125    1
   105    90   126    1
   106    91    92    1
   107    91   127    1
   108    91   128    1
   109    92    93    1
   110    92   129    1
   111    92   130    1
   112    93    94    1
   113    93   131    1
   114    93   132    1
   115    94    95    1
   116    94   133    1
   117    94   134    1
   118    95    96    1
   119    95    97    1
   120    96   135    1
   121    96   136    1
   122    96   137    1
   123    97    98    2
   124    97    99    1
   125    99   100    1
   126    99   106    1
   127    99   138    1
   128   100   101    1
   129   100   139    1
   130   100   140    1
   131   101   102    1
   132   101   141    1
   133   101   142    1
   134   102   103    1
   135   102   143    1
   136   102   144    1
   137   103   104    1
   138   103   145    1
   139   103   146    1
   140   104   105    1
   141   104   147    1
   142   104   148    1
   143   105   149    1
   144   105   150    1
   145   105   151    1
   146   106   107    2
   147   106   108    1
   148   108   109    1
   149   108   110    1
   150   109   152    1
   151   109   153    1
   152   109   154    1
   153   110   111    1
   154   110   155    1
   155   110   156    1
   156   111   112    1
   157   111   157    1
   158   111   158    1
   159   112   113    1
   160   112   159    1
   161   112   160    1
   162   113   114    1
   163   113   161    1
   164   113   162    1
   165   114   115    1
   166   114   163    1
   167   114   164    1
   168   115   116    1
   169   115   165    1
   170   115   166    1
   171   116   117    1
   172   116   167    1
   173   116   168    1
   174   117   169    1
   175   117   170    1
   176   117   171    1
   177   172   173    1
   178   172   203    1
   179   172   204    1
   180   172   205    1
   181   173   174    1
   182   173   206    1
   183   173   207    1
   184   174   175    1
   185   174   208    1
   186   174   209    1
   187   175   176    1
   188   175   210    1
   189   175   211    1
   190   176   177    1
   191   176   212    1
   192   176   213    1
   193   177   178    1
   194   177   214    1
   195   177   215    1
   196   178   179    1
   197   178   216    1
   198   178   217    1
   199   179   180    1
   200   179   218    1
   201   179   219    1
   202   180   181    1
   203   180   182    1
   204   181   220    1
   205   181   221    1
   206   181   222    1
   207   182   183    2
   208   182   184    1
   209   184   185    1
   210   184   191    1
   211   184   223    1
   212   185   186    1
   213   185   224    1
   214   185   225    1
   215   186   187    1
   216   186   226    1
   217   186   227    1
   218   187   188    1
   219   187   228    1
   220   187   229    1
   221   188   189    1
   222   188   230    1
   223   188   231    1
   224   189   190    1
   225   189   232    1
   226   189   233    1
   227   190   234    1
   228   190   235    1
   229   190   236    1
   230   191   192    2
   231   191   193    1
   232   193   194    1
   233   193   195    1
   234   194   237    1
   235   194   238    1
   236   194   239    1
   237   195   196    1
   238   195   240    1
   239   195   241    1
   240   196   197    1
   241   196   242    1
   242   196   243    1
   243   197   198    1
   244   197   244    1
   245   197   245    1
   246   198   199    1
   247   198   246    1
   248   198   247    1
   249   199   200    1
   250   199   248    1
   251   199   249    1
   252   200   201    1
   253   200   250    1
   254   200   251    1
   255   201   202    1
   256   201   252    1
   257   201   253    1
   258   202   254    1
   259   202   255    1
   260   202   256    1
   261   257   258    1
   262   257   288    1
   263   257   289    1
   264   257   290    1
   265   258   259    1
   266   258   291    1
   267   258   292    1
   268   259   260    1
   269   259   293    1
   270   259   294    1
   271   260   261    1
   272   260   295    1
   273   260   296    1
   274   261   262    1
   275   261   297    1
   276   261   298    1
   277   262   263    1
   278   262   299    1
   279   262   300    1
   280   263   264    1
   281   263   301    1
   282   263   302    1
   283   264   265    1
   284   264   303    1
   285   264   304    1
   286   265   266    1
   287   265   267    1
   288   266   305    1
   289   266   306    1
   290   266   307    1
   291   267   268    2
   292   267   269    1
   293   269   270    1
   294   269   276    1
   295   269   308    1
   296   270   271    1
   297   270   309    1
   298   270   310    1
   299   271   272    1
   300   271   311    1
   301   271   312    1
   302   272   273    1
   303   272   313    1
   304   272   314    1
   305   273   274    1
   306   273   315    1
   307   273   316    1
   308   274   275    1
   309   274   317    1
   310   274   318    1
   311   275   319    1
   312   275   320    1
   313   275   321    1
   314   276   277    2
   315   276   278    1
   316   278   279    1
   317   278   280    1
   318   279   322    1
   319   279   323    1
   320   279   324    1
   321   280   281    1
   322   280   325    1
   323   280   326    1
   324   281   282    1
   325   281   327    1
   326   281   328    1
   327   282   283    1
   328   282   329    1
   329   282   330    1
   330   283   284    1
   331   283   331    1
   332   283   332    1
   333   284   285    1
   334   284   333    1
   335   284   334    1
   336   285   286    1
   337   285   335    1
   338   285   336    1
   339   286   287    1
   340   286   337    1
   341   286   338    1
   342   287   339    1
   343   287   340    1
   344   287   341    1
@<TRIPOS>SUBSTRUCTURE
     1 RES1      341 GROUP             0 ****  ****    0  
