@<TRIPOS>MOLECULE
ICIGOT_geomtry_0_nunpairedes_0_charge_3 Charge: 3 Unpaired_Electrons: 6 XTB_Unpaired_Electrons: 0 XTB_Charge: 3
   341   344     1     0     0
SMALL
NoCharges
****
Generated from Architector

@<TRIPOS>ATOM
     1 Tb1       0.0226    0.0101    0.0197   Tb        1 RES1   0.0000
     2 C1        3.8974   -2.4337    6.2749   C.3       1 RES1   0.0000
     3 C2        2.4271   -2.8506    6.2557   C.3       1 RES1   0.0000
     4 C3        2.0683   -3.6085    7.5380   C.3       1 RES1   0.0000
     5 C4        0.8190   -4.4971    7.4809   C.3       1 RES1   0.0000
     6 C5       -0.5217   -3.8341    7.8078   C.3       1 RES1   0.0000
     7 C6       -1.1320   -2.9709    6.7000   C.3       1 RES1   0.0000
     8 C7       -1.4692   -3.7510    5.4213   C.3       1 RES1   0.0000
     9 C8       -2.3885   -3.0253    4.4127   C.3       1 RES1   0.0000
    10 N1       -1.6648   -2.0983    3.5575   N.am      1 RES1   0.0000
    11 C9       -0.9104   -1.1039    4.2930   C.3       1 RES1   0.0000
    12 C10      -1.4891   -2.1052    2.2314   C.2       1 RES1   0.0000
    13 O1       -0.6049   -1.3747    1.7436   O.2       1 RES1   0.0000
    14 C11      -2.3737   -3.0010    1.3615   C.3       1 RES1   0.0000
    15 C12      -1.7806   -4.4340    1.4387   C.3       1 RES1   0.0000
    16 C13      -0.9590   -4.8291    0.2193   C.3       1 RES1   0.0000
    17 C14      -0.4287   -6.2487    0.4028   C.3       1 RES1   0.0000
    18 C15       0.3909   -6.7627   -0.7793   C.3       1 RES1   0.0000
    19 C16      -0.3828   -6.7965   -2.0967   C.3       1 RES1   0.0000
    20 C17       0.4764   -7.3603   -3.2223   C.3       1 RES1   0.0000
    21 C18      -2.4337   -2.4993   -0.0999   C.2       1 RES1   0.0000
    22 O2       -1.6757   -1.6009   -0.5092   O.2       1 RES1   0.0000
    23 N2       -3.2723   -3.0954   -0.9575   N.am      1 RES1   0.0000
    24 C19      -3.0371   -2.8711   -2.3735   C.3       1 RES1   0.0000
    25 C20      -4.2451   -4.1450   -0.6894   C.3       1 RES1   0.0000
    26 C21      -5.5914   -3.9853   -1.4143   C.3       1 RES1   0.0000
    27 C22      -6.5410   -2.9567   -0.8019   C.3       1 RES1   0.0000
    28 C23      -6.1874   -1.4912   -1.0488   C.3       1 RES1   0.0000
    29 C24      -7.3532   -0.6074   -0.5988   C.3       1 RES1   0.0000
    30 C25      -7.0117    0.8807   -0.5884   C.3       1 RES1   0.0000
    31 C26      -8.0757    1.7268    0.1167   C.3       1 RES1   0.0000
    32 C27      -7.6087    3.1631    0.3394   C.3       1 RES1   0.0000
    33 H1        4.1978   -1.9786    5.3330   H         1 RES1   0.0000
    34 H2        4.5289   -3.3023    6.4442   H         1 RES1   0.0000
    35 H3        4.0838   -1.7195    7.0730   H         1 RES1   0.0000
    36 H4        2.2493   -3.4974    5.3911   H         1 RES1   0.0000
    37 H5        1.8038   -1.9588    6.1426   H         1 RES1   0.0000
    38 H6        1.9821   -2.9007    8.3625   H         1 RES1   0.0000
    39 H7        2.9141   -4.2601    7.7653   H         1 RES1   0.0000
    40 H8        0.9611   -5.2847    8.2211   H         1 RES1   0.0000
    41 H9        0.7697   -4.9834    6.5071   H         1 RES1   0.0000
    42 H10      -0.3902   -3.2089    8.6944   H         1 RES1   0.0000
    43 H11      -1.2343   -4.6161    8.0716   H         1 RES1   0.0000
    44 H12      -0.4387   -2.1588    6.5094   H         1 RES1   0.0000
    45 H13      -2.0548   -2.5370    7.0892   H         1 RES1   0.0000
    46 H14      -1.9796   -4.6636    5.7370   H         1 RES1   0.0000
    47 H15      -0.5528   -4.0466    4.9094   H         1 RES1   0.0000
    48 H16      -3.1424   -2.4608    4.9684   H         1 RES1   0.0000
    49 H17      -2.8921   -3.7700    3.8018   H         1 RES1   0.0000
    50 H18      -1.5243   -0.7553    5.1207   H         1 RES1   0.0000
    51 H19      -0.6826   -0.2758    3.6274   H         1 RES1   0.0000
    52 H20       0.0293   -1.5118    4.6636   H         1 RES1   0.0000
    53 H21      -3.3846   -2.9908    1.7760   H         1 RES1   0.0000
    54 H22      -2.5772   -5.1644    1.5702   H         1 RES1   0.0000
    55 H23      -1.1335   -4.4939    2.3165   H         1 RES1   0.0000
    56 H24      -0.1464   -4.1162    0.0682   H         1 RES1   0.0000
    57 H25      -1.5772   -4.8113   -0.6729   H         1 RES1   0.0000
    58 H26      -1.2772   -6.9180    0.5588   H         1 RES1   0.0000
    59 H27       0.1847   -6.2904    1.3024   H         1 RES1   0.0000
    60 H28       0.7233   -7.7774   -0.5485   H         1 RES1   0.0000
    61 H29       1.2795   -6.1425   -0.9146   H         1 RES1   0.0000
    62 H30      -0.7020   -5.7862   -2.3685   H         1 RES1   0.0000
    63 H31      -1.2775   -7.4099   -1.9768   H         1 RES1   0.0000
    64 H32       1.3705   -6.7524   -3.3508   H         1 RES1   0.0000
    65 H33      -0.0777   -7.3739   -4.1574   H         1 RES1   0.0000
    66 H34       0.7856   -8.3767   -2.9949   H         1 RES1   0.0000
    67 H35      -2.1187   -2.2989   -2.4782   H         1 RES1   0.0000
    68 H36      -3.8526   -2.3251   -2.8437   H         1 RES1   0.0000
    69 H37      -2.9168   -3.8397   -2.8614   H         1 RES1   0.0000
    70 H38      -4.4478   -4.2091    0.3763   H         1 RES1   0.0000
    71 H39      -3.8097   -5.0970   -1.0145   H         1 RES1   0.0000
    72 H40      -6.0883   -4.9563   -1.3653   H         1 RES1   0.0000
    73 H41      -5.4453   -3.7725   -2.4706   H         1 RES1   0.0000
    74 H42      -6.6044   -3.1279    0.2742   H         1 RES1   0.0000
    75 H43      -7.5372   -3.1348   -1.2112   H         1 RES1   0.0000
    76 H44      -5.9962   -1.3257   -2.1111   H         1 RES1   0.0000
    77 H45      -5.2805   -1.2215   -0.4992   H         1 RES1   0.0000
    78 H46      -7.6469   -0.9097    0.4093   H         1 RES1   0.0000
    79 H47      -8.2085   -0.7810   -1.2523   H         1 RES1   0.0000
    80 H48      -6.8836    1.2368   -1.6145   H         1 RES1   0.0000
    81 H49      -6.0611    1.0067   -0.0632   H         1 RES1   0.0000
    82 H50      -8.3099    1.2818    1.0871   H         1 RES1   0.0000
    83 H51      -8.9936    1.7308   -0.4722   H         1 RES1   0.0000
    84 H52      -6.7141    3.1776    0.9624   H         1 RES1   0.0000
    85 H53      -8.3825    3.7377    0.8410   H         1 RES1   0.0000
    86 H54      -7.3878    3.6536   -0.6073   H         1 RES1   0.0000
    87 C28      -1.7730   -3.8521   -7.0830   C.3       1 RES1   0.0000
    88 C29      -1.9089   -3.2790   -5.6768   C.3       1 RES1   0.0000
    89 C30      -1.8586   -1.7486   -5.6716   C.3       1 RES1   0.0000
    90 C31      -3.1643   -1.0985   -6.1292   C.3       1 RES1   0.0000
    91 C32      -3.2419    0.4111   -5.8778   C.3       1 RES1   0.0000
    92 C33      -2.4202    1.2685   -6.8448   C.3       1 RES1   0.0000
    93 C34      -0.9223    1.3747   -6.5509   C.3       1 RES1   0.0000
    94 C35      -0.5035    2.3953   -5.4835   C.3       1 RES1   0.0000
    95 N3       -0.8479    2.1027   -4.0950   N.am      1 RES1   0.0000
    96 C36      -1.8472    2.9719   -3.5103   C.3       1 RES1   0.0000
    97 C37      -0.2261    1.2343   -3.2932   C.2       1 RES1   0.0000
    98 O3       -0.5772    1.0608   -2.1071   O.2       1 RES1   0.0000
    99 C38       0.9946    0.5352   -3.8596   C.3       1 RES1   0.0000
   100 C39       2.2375    1.4000   -3.5290   C.3       1 RES1   0.0000
   101 C40       2.2670    2.0067   -2.1249   C.3       1 RES1   0.0000
   102 C41       1.5382    3.3424   -1.9133   C.3       1 RES1   0.0000
   103 C42       1.7623    4.4089   -2.9875   C.3       1 RES1   0.0000
   104 C43       3.2248    4.8234   -3.1577   C.3       1 RES1   0.0000
   105 C44       3.3512    6.0960   -3.9885   C.3       1 RES1   0.0000
   106 C45       1.2002   -0.8622   -3.2811   C.2       1 RES1   0.0000
   107 O4        0.8883   -1.1274   -2.1082   O.2       1 RES1   0.0000
   108 N4        1.7808   -1.7521   -4.0948   N.am      1 RES1   0.0000
   109 C46       2.0457   -1.5192   -5.5022   C.3       1 RES1   0.0000
   110 C47       2.0381   -3.1121   -3.6354   C.3       1 RES1   0.0000
   111 C48       3.4960   -3.5638   -3.8311   C.3       1 RES1   0.0000
   112 C49       4.3805   -3.3415   -2.6042   C.3       1 RES1   0.0000
   113 C50       5.8704   -3.5801   -2.8776   C.3       1 RES1   0.0000
   114 C51       6.6002   -2.3689   -3.4549   C.3       1 RES1   0.0000
   115 C52       8.1144   -2.5891   -3.4984   C.3       1 RES1   0.0000
   116 C53       8.9218   -1.3143   -3.7639   C.3       1 RES1   0.0000
   117 C54       8.7755   -0.7810   -5.1855   C.3       1 RES1   0.0000
   118 H55      -1.7461   -4.9371   -7.0480   H         1 RES1   0.0000
   119 H56      -0.8554   -3.5025   -7.5514   H         1 RES1   0.0000
   120 H57      -2.6107   -3.5563   -7.7069   H         1 RES1   0.0000
   121 H58      -1.0920   -3.6607   -5.0557   H         1 RES1   0.0000
   122 H59      -2.8480   -3.6190   -5.2368   H         1 RES1   0.0000
   123 H60      -1.0463   -1.4585   -6.3395   H         1 RES1   0.0000
   124 H61      -1.6224   -1.3885   -4.6634   H         1 RES1   0.0000
   125 H62      -3.9840   -1.5758   -5.5868   H         1 RES1   0.0000
   126 H63      -3.3213   -1.2911   -7.1899   H         1 RES1   0.0000
   127 H64      -2.9563    0.6153   -4.8450   H         1 RES1   0.0000
   128 H65      -4.2874    0.7003   -5.9954   H         1 RES1   0.0000
   129 H66      -2.8372    2.2754   -6.8829   H         1 RES1   0.0000
   130 H67      -2.5418    0.8450   -7.8429   H         1 RES1   0.0000
   131 H68      -0.4303    1.6915   -7.4723   H         1 RES1   0.0000
   132 H69      -0.5386    0.3902   -6.3063   H         1 RES1   0.0000
   133 H70      -0.9734    3.3478   -5.7292   H         1 RES1   0.0000
   134 H71       0.5750    2.5404   -5.5664   H         1 RES1   0.0000
   135 H72      -2.8410    2.7556   -3.9020   H         1 RES1   0.0000
   136 H73      -1.6031    4.0167   -3.7070   H         1 RES1   0.0000
   137 H74      -1.8261    2.8005   -2.4394   H         1 RES1   0.0000
   138 H75       0.8967    0.4615   -4.9361   H         1 RES1   0.0000
   139 H76       2.3292    2.1882   -4.2722   H         1 RES1   0.0000
   140 H77       3.1113    0.7619   -3.6505   H         1 RES1   0.0000
   141 H78       3.3092    2.1854   -1.8676   H         1 RES1   0.0000
   142 H79       1.8550    1.2775   -1.3991   H         1 RES1   0.0000
   143 H80       1.8939    3.7420   -0.9598   H         1 RES1   0.0000
   144 H81       0.4647    3.1858   -1.8083   H         1 RES1   0.0000
   145 H82       1.1869    5.2922   -2.7023   H         1 RES1   0.0000
   146 H83       1.3657    4.0820   -3.9510   H         1 RES1   0.0000
   147 H84       3.7835    4.0237   -3.6472   H         1 RES1   0.0000
   148 H85       3.6761    4.9922   -2.1759   H         1 RES1   0.0000
   149 H86       2.9017    5.9640   -4.9700   H         1 RES1   0.0000
   150 H87       4.3972    6.3560   -4.1258   H         1 RES1   0.0000
   151 H88       2.8519    6.9260   -3.4941   H         1 RES1   0.0000
   152 H89       2.7787   -0.7312   -5.6660   H         1 RES1   0.0000
   153 H90       1.1344   -1.2675   -6.0392   H         1 RES1   0.0000
   154 H91       2.4221   -2.4366   -5.9429   H         1 RES1   0.0000
   155 H92       1.3661   -3.7844   -4.1803   H         1 RES1   0.0000
   156 H93       1.7729   -3.1348   -2.5779   H         1 RES1   0.0000
   157 H94       3.9359   -3.0445   -4.6800   H         1 RES1   0.0000
   158 H95       3.5041   -4.6299   -4.0630   H         1 RES1   0.0000
   159 H96       4.0678   -4.0398   -1.8317   H         1 RES1   0.0000
   160 H97       4.2290   -2.3310   -2.2212   H         1 RES1   0.0000
   161 H98       5.9772   -4.4343   -3.5457   H         1 RES1   0.0000
   162 H99       6.3574   -3.8444   -1.9356   H         1 RES1   0.0000
   163 H100      6.3972   -1.5076   -2.8150   H         1 RES1   0.0000
   164 H101      6.2260   -2.1383   -4.4531   H         1 RES1   0.0000
   165 H102      8.3565   -3.3299   -4.2610   H         1 RES1   0.0000
   166 H103      8.4290   -2.9937   -2.5325   H         1 RES1   0.0000
   167 H104      9.9767   -1.5340   -3.5885   H         1 RES1   0.0000
   168 H105      8.6293   -0.5445   -3.0415   H         1 RES1   0.0000
   169 H106      9.1517   -1.5096   -5.8982   H         1 RES1   0.0000
   170 H107      9.3483    0.1356   -5.3042   H         1 RES1   0.0000
   171 H108      7.7376   -0.5675   -5.4296   H         1 RES1   0.0000
   172 C55       2.1732    7.8233    0.4582   C.3       1 RES1   0.0000
   173 C56       1.7900    6.3736    0.1932   C.3       1 RES1   0.0000
   174 C57       0.2772    6.1318    0.2287   C.3       1 RES1   0.0000
   175 C58      -0.4671    6.8914   -0.8749   C.3       1 RES1   0.0000
   176 C59      -1.8071    6.2798   -1.3036   C.3       1 RES1   0.0000
   177 C60      -2.9902    6.6548   -0.4091   C.3       1 RES1   0.0000
   178 C61      -3.1012    5.8245    0.8736   C.3       1 RES1   0.0000
   179 C62      -3.9759    4.5587    0.7736   C.3       1 RES1   0.0000
   180 N5       -3.3689    3.3358    0.2426   N.am      1 RES1   0.0000
   181 C63      -3.9438    2.8848   -1.0122   C.3       1 RES1   0.0000
   182 C64      -2.4950    2.5411    0.8770   C.2       1 RES1   0.0000
   183 O5       -1.9995    1.5372    0.3306   O.2       1 RES1   0.0000
   184 C65      -2.1832    2.9277    2.3217   C.3       1 RES1   0.0000
   185 C66      -3.2566    2.3052    3.2592   C.3       1 RES1   0.0000
   186 C67      -3.3416    0.7828    3.1184   C.3       1 RES1   0.0000
   187 C68      -4.4591    0.2967    2.1953   C.3       1 RES1   0.0000
   188 C69      -5.8390    0.2552    2.8488   C.3       1 RES1   0.0000
   189 C70      -5.9861   -0.8355    3.9110   C.3       1 RES1   0.0000
   190 C71      -7.4478   -1.0132    4.3114   C.3       1 RES1   0.0000
   191 C72      -0.7694    2.5254    2.7396   C.2       1 RES1   0.0000
   192 O6       -0.1316    1.6311    2.1478   O.2       1 RES1   0.0000
   193 N6       -0.2621    3.1792    3.7911   N.am      1 RES1   0.0000
   194 C73      -0.8854    4.3146    4.4405   C.3       1 RES1   0.0000
   195 C74       1.1347    2.9452    4.1569   C.3       1 RES1   0.0000
   196 C75       1.4415    2.8531    5.6600   C.3       1 RES1   0.0000
   197 C76       1.4558    1.4527    6.2990   C.3       1 RES1   0.0000
   198 C77       0.6589    1.3735    7.5997   C.3       1 RES1   0.0000
   199 C78      -0.8381    1.4850    7.3238   C.3       1 RES1   0.0000
   200 C79      -1.7052    0.9089    8.4397   C.3       1 RES1   0.0000
   201 C80      -3.1813    0.8607    8.0403   C.3       1 RES1   0.0000
   202 C81      -3.7806    2.2473    7.8319   C.3       1 RES1   0.0000
   203 H109      3.2547    7.9269    0.4865   H         1 RES1   0.0000
   204 H110      1.7736    8.1617    1.4102   H         1 RES1   0.0000
   205 H111      1.7925    8.4705   -0.3259   H         1 RES1   0.0000
   206 H112      2.2650    5.7321    0.9420   H         1 RES1   0.0000
   207 H113      2.1800    6.0819   -0.7820   H         1 RES1   0.0000
   208 H114     -0.0891    6.4358    1.2119   H         1 RES1   0.0000
   209 H115      0.0964    5.0567    0.1104   H         1 RES1   0.0000
   210 H116      0.1815    6.9281   -1.7524   H         1 RES1   0.0000
   211 H117     -0.6314    7.9223   -0.5644   H         1 RES1   0.0000
   212 H118     -1.7103    5.1933   -1.3566   H         1 RES1   0.0000
   213 H119     -2.0239    6.6431   -2.3090   H         1 RES1   0.0000
   214 H120     -3.9199    6.5725   -0.9723   H         1 RES1   0.0000
   215 H121     -2.8907    7.7080   -0.1439   H         1 RES1   0.0000
   216 H122     -3.5611    6.4528    1.6377   H         1 RES1   0.0000
   217 H123     -2.0957    5.5884    1.2082   H         1 RES1   0.0000
   218 H124     -4.8106    4.7976    0.1151   H         1 RES1   0.0000
   219 H125     -4.3999    4.3583    1.7590   H         1 RES1   0.0000
   220 H126     -3.8248    3.6490   -1.7776   H         1 RES1   0.0000
   221 H127     -5.0097    2.6921   -0.8828   H         1 RES1   0.0000
   222 H128     -3.4541    1.9577   -1.3023   H         1 RES1   0.0000
   223 H129     -2.2428    4.0113    2.3899   H         1 RES1   0.0000
   224 H130     -4.2336    2.7460    3.0596   H         1 RES1   0.0000
   225 H131     -3.0276    2.5615    4.2907   H         1 RES1   0.0000
   226 H132     -3.4766    0.3130    4.0937   H         1 RES1   0.0000
   227 H133     -2.3991    0.4428    2.6959   H         1 RES1   0.0000
   228 H134     -4.2138   -0.7070    1.8360   H         1 RES1   0.0000
   229 H135     -4.4955    0.9390    1.3151   H         1 RES1   0.0000
   230 H136     -6.5812    0.0595    2.0746   H         1 RES1   0.0000
   231 H137     -6.0701    1.2249    3.2937   H         1 RES1   0.0000
   232 H138     -5.4050   -0.5867    4.8032   H         1 RES1   0.0000
   233 H139     -5.6057   -1.7829    3.5126   H         1 RES1   0.0000
   234 H140     -7.8528   -0.0860    4.7090   H         1 RES1   0.0000
   235 H141     -7.5454   -1.7814    5.0743   H         1 RES1   0.0000
   236 H142     -8.0475   -1.3028    3.4508   H         1 RES1   0.0000
   237 H143     -1.6946    4.0260    5.1100   H         1 RES1   0.0000
   238 H144     -1.2756    5.0392    3.7307   H         1 RES1   0.0000
   239 H145     -0.1290    4.8270    5.0252   H         1 RES1   0.0000
   240 H146      1.7048    3.7775    3.7336   H         1 RES1   0.0000
   241 H147      1.4391    2.0433    3.6381   H         1 RES1   0.0000
   242 H148      0.7366    3.4678    6.2118   H         1 RES1   0.0000
   243 H149      2.4248    3.2969    5.8133   H         1 RES1   0.0000
   244 H150      2.4855    1.1682    6.5227   H         1 RES1   0.0000
   245 H151      1.0364    0.7141    5.6168   H         1 RES1   0.0000
   246 H152      0.9769    2.1606    8.2826   H         1 RES1   0.0000
   247 H153      0.8704    0.4165    8.0818   H         1 RES1   0.0000
   248 H154     -1.0666    0.9432    6.4000   H         1 RES1   0.0000
   249 H155     -1.0984    2.5319    7.1662   H         1 RES1   0.0000
   250 H156     -1.5942    1.5088    9.3431   H         1 RES1   0.0000
   251 H157     -1.3667   -0.1051    8.6689   H         1 RES1   0.0000
   252 H158     -3.7440    0.3500    8.8230   H         1 RES1   0.0000
   253 H159     -3.2847    0.2723    7.1208   H         1 RES1   0.0000
   254 H160     -3.6669    2.8414    8.7344   H         1 RES1   0.0000
   255 H161     -4.8401    2.1760    7.6016   H         1 RES1   0.0000
   256 H162     -3.2915    2.7704    7.0122   H         1 RES1   0.0000
   257 C82       2.0521    7.2360    4.5246   C.3       1 RES1   0.0000
   258 C83       2.9467    6.1083    4.0232   C.3       1 RES1   0.0000
   259 C84       4.3045    6.6174    3.5476   C.3       1 RES1   0.0000
   260 C85       5.1988    5.5255    2.9511   C.3       1 RES1   0.0000
   261 C86       5.7528    4.5300    3.9834   C.3       1 RES1   0.0000
   262 C87       5.0209    3.1844    4.0745   C.3       1 RES1   0.0000
   263 C88       5.3761    2.2441    2.9219   C.3       1 RES1   0.0000
   264 C89       5.0178    0.7681    3.1739   C.3       1 RES1   0.0000
   265 N7        3.6428    0.5034    2.7793   N.am      1 RES1   0.0000
   266 C90       2.7516   -0.0836    3.7564   C.3       1 RES1   0.0000
   267 C91       3.2713    0.3177    1.4787   C.2       1 RES1   0.0000
   268 O7        2.2021    0.7510    1.0337   O.2       1 RES1   0.0000
   269 C92       4.1151   -0.6568    0.6762   C.3       1 RES1   0.0000
   270 C93       4.6337   -0.1024   -0.6552   C.3       1 RES1   0.0000
   271 C94       5.3757    1.1984   -0.3350   C.3       1 RES1   0.0000
   272 C95       6.5273    1.6174   -1.2477   C.3       1 RES1   0.0000
   273 C96       6.1548    2.1892   -2.6146   C.3       1 RES1   0.0000
   274 C97       5.8609    1.1144   -3.6562   C.3       1 RES1   0.0000
   275 C98       5.5322    1.6920   -5.0271   C.3       1 RES1   0.0000
   276 C99       3.1507   -1.8419    0.5058   C.2       1 RES1   0.0000
   277 O8        1.9585   -1.6523    0.2154   O.2       1 RES1   0.0000
   278 N8        3.6195   -3.0811    0.6866   N.am      1 RES1   0.0000
   279 C100      2.6939   -4.1317    0.3023   C.3       1 RES1   0.0000
   280 C101      4.9771   -3.3630    1.1749   C.3       1 RES1   0.0000
   281 C102      5.3705   -4.7964    1.5582   C.3       1 RES1   0.0000
   282 C103      4.8672   -5.2746    2.9265   C.3       1 RES1   0.0000
   283 C104      3.3802   -5.6049    2.9271   C.3       1 RES1   0.0000
   284 C105      2.8564   -6.3755    4.1374   C.3       1 RES1   0.0000
   285 C106      1.3903   -6.7122    3.8595   C.3       1 RES1   0.0000
   286 C107      0.6758   -7.5335    4.9282   C.3       1 RES1   0.0000
   287 C108     -0.7719   -7.7820    4.5116   C.3       1 RES1   0.0000
   288 H163      1.0855    6.8519    4.8461   H         1 RES1   0.0000
   289 H164      1.8847    7.9698    3.7404   H         1 RES1   0.0000
   290 H165      2.5154    7.7413    5.3665   H         1 RES1   0.0000
   291 H166      2.4532    5.6076    3.1828   H         1 RES1   0.0000
   292 H167      3.0920    5.3818    4.8262   H         1 RES1   0.0000
   293 H168      4.8228    7.0925    4.3813   H         1 RES1   0.0000
   294 H169      4.1356    7.3875    2.7925   H         1 RES1   0.0000
   295 H170      6.0363    6.0283    2.4675   H         1 RES1   0.0000
   296 H171      4.6511    4.9926    2.1709   H         1 RES1   0.0000
   297 H172      5.7344    5.0058    4.9644   H         1 RES1   0.0000
   298 H173      6.7992    4.3229    3.7546   H         1 RES1   0.0000
   299 H174      3.9448    3.3452    4.0935   H         1 RES1   0.0000
   300 H175      5.3083    2.7086    5.0139   H         1 RES1   0.0000
   301 H176      6.4485    2.3205    2.7384   H         1 RES1   0.0000
   302 H177      4.8592    2.5707    2.0211   H         1 RES1   0.0000
   303 H178      5.1258    0.5402    4.2339   H         1 RES1   0.0000
   304 H179      5.7304    0.1333    2.6401   H         1 RES1   0.0000
   305 H180      2.9971    0.2941    4.7407   H         1 RES1   0.0000
   306 H181      2.8702   -1.1730    3.7491   H         1 RES1   0.0000
   307 H182      1.7221    0.1307    3.4884   H         1 RES1   0.0000
   308 H183      4.9714   -0.9591    1.2724   H         1 RES1   0.0000
   309 H184      3.7979    0.0493   -1.3339   H         1 RES1   0.0000
   310 H185      5.3167   -0.8279   -1.0945   H         1 RES1   0.0000
   311 H186      5.8304    1.0593    0.6426   H         1 RES1   0.0000
   312 H187      4.6599    2.0182   -0.2448   H         1 RES1   0.0000
   313 H188      7.2017    0.7694   -1.3703   H         1 RES1   0.0000
   314 H189      7.0762    2.3899   -0.7064   H         1 RES1   0.0000
   315 H190      6.9954    2.7815   -2.9813   H         1 RES1   0.0000
   316 H191      5.3073    2.8674   -2.4996   H         1 RES1   0.0000
   317 H192      5.0462    0.4697   -3.3146   H         1 RES1   0.0000
   318 H193      6.7497    0.4939   -3.7506   H         1 RES1   0.0000
   319 H194      4.6612    2.3419   -4.9870   H         1 RES1   0.0000
   320 H195      5.3341    0.8903   -5.7353   H         1 RES1   0.0000
   321 H196      6.3716    2.2725   -5.3983   H         1 RES1   0.0000
   322 H197      1.8939   -4.2323    1.0355   H         1 RES1   0.0000
   323 H198      3.2134   -5.0754    0.1857   H         1 RES1   0.0000
   324 H199      2.2222   -3.8493   -0.6376   H         1 RES1   0.0000
   325 H200      5.1296   -2.7734    2.0825   H         1 RES1   0.0000
   326 H201      5.6865   -3.0181    0.4161   H         1 RES1   0.0000
   327 H202      6.4628   -4.7939    1.5987   H         1 RES1   0.0000
   328 H203      5.0953   -5.5122    0.7859   H         1 RES1   0.0000
   329 H204      5.0846   -4.5125    3.6769   H         1 RES1   0.0000
   330 H205      5.4246   -6.1696    3.2049   H         1 RES1   0.0000
   331 H206      3.1666   -6.2185    2.0492   H         1 RES1   0.0000
   332 H207      2.8078   -4.6784    2.8473   H         1 RES1   0.0000
   333 H208      2.9499   -5.7848    5.0499   H         1 RES1   0.0000
   334 H209      3.4269   -7.2934    4.2765   H         1 RES1   0.0000
   335 H210      1.3457   -7.2779    2.9235   H         1 RES1   0.0000
   336 H211      0.8383   -5.7743    3.7077   H         1 RES1   0.0000
   337 H212      0.6978   -7.0140    5.8878   H         1 RES1   0.0000
   338 H213      1.1896   -8.4867    5.0594   H         1 RES1   0.0000
   339 H214     -1.2942   -6.8358    4.3666   H         1 RES1   0.0000
   340 H215     -1.2973   -8.3549    5.2699   H         1 RES1   0.0000
   341 H216     -0.8057   -8.3360    3.5754   H         1 RES1   0.0000
@<TRIPOS>BOND
     1     1    13    1
     2     1    22    1
     3     1    98    1
     4     1   107    1
     5     1   183    1
     6     1   192    1
     7     1   268    1
     8     1   277    1
     9     2     3    1
    10     2    33    1
    11     2    34    1
    12     2    35    1
    13     3     4    1
    14     3    36    1
    15     3    37    1
    16     4     5    1
    17     4    38    1
    18     4    39    1
    19     5     6    1
    20     5    40    1
    21     5    41    1
    22     6     7    1
    23     6    42    1
    24     6    43    1
    25     7     8    1
    26     7    44    1
    27     7    45    1
    28     8     9    1
    29     8    46    1
    30     8    47    1
    31     9    10    1
    32     9    48    1
    33     9    49    1
    34    10    11    1
    35    10    12    1
    36    11    50    1
    37    11    51    1
    38    11    52    1
    39    12    13    2
    40    12    14    1
    41    14    15    1
    42    14    21    1
    43    14    53    1
    44    15    16    1
    45    15    54    1
    46    15    55    1
    47    16    17    1
    48    16    56    1
    49    16    57    1
    50    17    18    1
    51    17    58    1
    52    17    59    1
    53    18    19    1
    54    18    60    1
    55    18    61    1
    56    19    20    1
    57    19    62    1
    58    19    63    1
    59    20    64    1
    60    20    65    1
    61    20    66    1
    62    21    22    2
    63    21    23    1
    64    23    24    1
    65    23    25    1
    66    24    67    1
    67    24    68    1
    68    24    69    1
    69    25    26    1
    70    25    70    1
    71    25    71    1
    72    26    27    1
    73    26    72    1
    74    26    73    1
    75    27    28    1
    76    27    74    1
    77    27    75    1
    78    28    29    1
    79    28    76    1
    80    28    77    1
    81    29    30    1
    82    29    78    1
    83    29    79    1
    84    30    31    1
    85    30    80    1
    86    30    81    1
    87    31    32    1
    88    31    82    1
    89    31    83    1
    90    32    84    1
    91    32    85    1
    92    32    86    1
    93    87    88    1
    94    87   118    1
    95    87   119    1
    96    87   120    1
    97    88    89    1
    98    88   121    1
    99    88   122    1
   100    89    90    1
   101    89   123    1
   102    89   124    1
   103    90    91    1
   104    90   125    1
   105    90   126    1
   106    91    92    1
   107    91   127    1
   108    91   128    1
   109    92    93    1
   110    92   129    1
   111    92   130    1
   112    93    94    1
   113    93   131    1
   114    93   132    1
   115    94    95    1
   116    94   133    1
   117    94   134    1
   118    95    96    1
   119    95    97    1
   120    96   135    1
   121    96   136    1
   122    96   137    1
   123    97    98    2
   124    97    99    1
   125    99   100    1
   126    99   106    1
   127    99   138    1
   128   100   101    1
   129   100   139    1
   130   100   140    1
   131   101   102    1
   132   101   141    1
   133   101   142    1
   134   102   103    1
   135   102   143    1
   136   102   144    1
   137   103   104    1
   138   103   145    1
   139   103   146    1
   140   104   105    1
   141   104   147    1
   142   104   148    1
   143   105   149    1
   144   105   150    1
   145   105   151    1
   146   106   107    2
   147   106   108    1
   148   108   109    1
   149   108   110    1
   150   109   152    1
   151   109   153    1
   152   109   154    1
   153   110   111    1
   154   110   155    1
   155   110   156    1
   156   111   112    1
   157   111   157    1
   158   111   158    1
   159   112   113    1
   160   112   159    1
   161   112   160    1
   162   113   114    1
   163   113   161    1
   164   113   162    1
   165   114   115    1
   166   114   163    1
   167   114   164    1
   168   115   116    1
   169   115   165    1
   170   115   166    1
   171   116   117    1
   172   116   167    1
   173   116   168    1
   174   117   169    1
   175   117   170    1
   176   117   171    1
   177   172   173    1
   178   172   203    1
   179   172   204    1
   180   172   205    1
   181   173   174    1
   182   173   206    1
   183   173   207    1
   184   174   175    1
   185   174   208    1
   186   174   209    1
   187   175   176    1
   188   175   210    1
   189   175   211    1
   190   176   177    1
   191   176   212    1
   192   176   213    1
   193   177   178    1
   194   177   214    1
   195   177   215    1
   196   178   179    1
   197   178   216    1
   198   178   217    1
   199   179   180    1
   200   179   218    1
   201   179   219    1
   202   180   181    1
   203   180   182    1
   204   181   220    1
   205   181   221    1
   206   181   222    1
   207   182   183    2
   208   182   184    1
   209   184   185    1
   210   184   191    1
   211   184   223    1
   212   185   186    1
   213   185   224    1
   214   185   225    1
   215   186   187    1
   216   186   226    1
   217   186   227    1
   218   187   188    1
   219   187   228    1
   220   187   229    1
   221   188   189    1
   222   188   230    1
   223   188   231    1
   224   189   190    1
   225   189   232    1
   226   189   233    1
   227   190   234    1
   228   190   235    1
   229   190   236    1
   230   191   192    2
   231   191   193    1
   232   193   194    1
   233   193   195    1
   234   194   237    1
   235   194   238    1
   236   194   239    1
   237   195   196    1
   238   195   240    1
   239   195   241    1
   240   196   197    1
   241   196   242    1
   242   196   243    1
   243   197   198    1
   244   197   244    1
   245   197   245    1
   246   198   199    1
   247   198   246    1
   248   198   247    1
   249   199   200    1
   250   199   248    1
   251   199   249    1
   252   200   201    1
   253   200   250    1
   254   200   251    1
   255   201   202    1
   256   201   252    1
   257   201   253    1
   258   202   254    1
   259   202   255    1
   260   202   256    1
   261   257   258    1
   262   257   288    1
   263   257   289    1
   264   257   290    1
   265   258   259    1
   266   258   291    1
   267   258   292    1
   268   259   260    1
   269   259   293    1
   270   259   294    1
   271   260   261    1
   272   260   295    1
   273   260   296    1
   274   261   262    1
   275   261   297    1
   276   261   298    1
   277   262   263    1
   278   262   299    1
   279   262   300    1
   280   263   264    1
   281   263   301    1
   282   263   302    1
   283   264   265    1
   284   264   303    1
   285   264   304    1
   286   265   266    1
   287   265   267    1
   288   266   305    1
   289   266   306    1
   290   266   307    1
   291   267   268    2
   292   267   269    1
   293   269   270    1
   294   269   276    1
   295   269   308    1
   296   270   271    1
   297   270   309    1
   298   270   310    1
   299   271   272    1
   300   271   311    1
   301   271   312    1
   302   272   273    1
   303   272   313    1
   304   272   314    1
   305   273   274    1
   306   273   315    1
   307   273   316    1
   308   274   275    1
   309   274   317    1
   310   274   318    1
   311   275   319    1
   312   275   320    1
   313   275   321    1
   314   276   277    2
   315   276   278    1
   316   278   279    1
   317   278   280    1
   318   279   322    1
   319   279   323    1
   320   279   324    1
   321   280   281    1
   322   280   325    1
   323   280   326    1
   324   281   282    1
   325   281   327    1
   326   281   328    1
   327   282   283    1
   328   282   329    1
   329   282   330    1
   330   283   284    1
   331   283   331    1
   332   283   332    1
   333   284   285    1
   334   284   333    1
   335   284   334    1
   336   285   286    1
   337   285   335    1
   338   285   336    1
   339   286   287    1
   340   286   337    1
   341   286   338    1
   342   287   339    1
   343   287   340    1
   344   287   341    1
@<TRIPOS>SUBSTRUCTURE
     1 RES1      341 GROUP             0 ****  ****    0  
