@<TRIPOS>MOLECULE
am_c3_9H2O_c0_0_nunpairedes_0_charge_3 Charge: 3 Unpaired_Electrons: 0 XTB_Unpaired_Electrons: 0 XTB_Charge: 3
   196   222     1     0     0
SMALL
NoCharges
****
Generated from Architector

@<TRIPOS>ATOM
     1 La1      -0.0380    0.0015    0.0393   La        1 RES1   0.0000
     2 C1       -4.4335    3.4547    5.3971   C.3       1 RES1   0.0000
     3 C2       -2.9544    3.2870    5.1535   C.3       1 RES1   0.0000
     4 C3       -2.1574    4.6167    5.0459   C.3       1 RES1   0.0000
     5 C4       -0.6893    4.2021    5.2229   C.3       1 RES1   0.0000
     6 C5       -0.7715    2.6650    5.4100   C.3       1 RES1   0.0000
     7 C6       -1.1802    2.1984    4.0611   C.ar      1 RES1   0.0000
     8 N1       -0.4998    1.7177    3.0567   N.ar      1 RES1   0.0000
     9 N2       -1.1860    1.3806    1.9595   N.ar      1 RES1   0.0000
    10 C7       -2.5032    1.5182    1.9368   C.ar      1 RES1   0.0000
    11 C8       -3.2423    0.9109    0.8195   C.ar      1 RES1   0.0000
    12 C9       -4.5908    1.2083    0.6209   C.ar      1 RES1   0.0000
    13 C10      -5.2593    0.5947   -0.4256   C.ar      1 RES1   0.0000
    14 C11      -4.5774   -0.3204   -1.2098   C.ar      1 RES1   0.0000
    15 C12      -3.2351   -0.5707   -0.9366   C.ar      1 RES1   0.0000
    16 C13      -2.4899   -1.5832   -1.7131   C.ar      1 RES1   0.0000
    17 N3       -1.1762   -1.6349   -1.5463   N.ar      1 RES1   0.0000
    18 N4       -0.4607   -2.5986   -2.1297   N.ar      1 RES1   0.0000
    19 C14      -1.1174   -3.4921   -2.8129   C.ar      1 RES1   0.0000
    20 C15      -2.5266   -3.3819   -3.0299   C.ar      1 RES1   0.0000
    21 N5       -3.2138   -2.4088   -2.4913   N.ar      1 RES1   0.0000
    22 C16      -2.9312   -4.5518   -3.8542   C.3       1 RES1   0.0000
    23 C17      -4.4076   -4.8583   -3.9264   C.3       1 RES1   0.0000
    24 C18      -2.2761   -4.2729   -5.2372   C.3       1 RES1   0.0000
    25 C19      -0.7684   -4.4187   -4.9901   C.3       1 RES1   0.0000
    26 C20      -0.6864   -4.7458   -3.4821   C.3       1 RES1   0.0000
    27 C21      -1.9564   -5.6169   -3.2444   C.3       1 RES1   0.0000
    28 C22      -1.9410   -6.9477   -3.9792   C.3       1 RES1   0.0000
    29 C23      -2.2177   -5.8841   -1.7593   C.3       1 RES1   0.0000
    30 N6       -2.5775    0.0455    0.0496   N.ar      1 RES1   0.0000
    31 N7       -3.2301    2.1758    2.8619   N.ar      1 RES1   0.0000
    32 C24      -2.5622    2.5397    3.9236   C.ar      1 RES1   0.0000
    33 C25      -2.1042    2.5022    6.2016   C.3       1 RES1   0.0000
    34 C26      -2.5707    1.0550    6.3301   C.3       1 RES1   0.0000
    35 C27      -2.0570    3.1065    7.5973   C.3       1 RES1   0.0000
    36 H1       -4.8758    4.0770    4.6224   H         1 RES1   0.0000
    37 H2       -4.9306    2.4880    5.3800   H         1 RES1   0.0000
    38 H3       -4.6006    3.9261    6.3620   H         1 RES1   0.0000
    39 H4       -2.3380    5.1154    4.0948   H         1 RES1   0.0000
    40 H5       -2.4896    5.2819    5.8389   H         1 RES1   0.0000
    41 H6       -0.0707    4.4558    4.3620   H         1 RES1   0.0000
    42 H7       -0.2380    4.6627    6.0985   H         1 RES1   0.0000
    43 H8        0.1225    2.2207    5.8330   H         1 RES1   0.0000
    44 H9       -5.0815    1.8964    1.2859   H         1 RES1   0.0000
    45 H10      -6.2967    0.8181   -0.6190   H         1 RES1   0.0000
    46 H11      -5.0565   -0.8522   -2.0124   H         1 RES1   0.0000
    47 H12      -4.9354   -4.0402   -4.4124   H         1 RES1   0.0000
    48 H13      -4.5716   -5.7682   -4.4986   H         1 RES1   0.0000
    49 H14      -4.8159   -4.9864   -2.9279   H         1 RES1   0.0000
    50 H15      -2.6435   -5.0038   -5.9535   H         1 RES1   0.0000
    51 H16      -2.5463   -3.2858   -5.6102   H         1 RES1   0.0000
    52 H17      -0.3390   -5.2287   -5.5732   H         1 RES1   0.0000
    53 H18      -0.2125   -3.5114   -5.2247   H         1 RES1   0.0000
    54 H19       0.2710   -5.1511   -3.1673   H         1 RES1   0.0000
    55 H20      -1.7750   -6.8390   -5.0448   H         1 RES1   0.0000
    56 H21      -1.1535   -7.5817   -3.5771   H         1 RES1   0.0000
    57 H22      -2.8856   -7.4652   -3.8329   H         1 RES1   0.0000
    58 H23      -2.2528   -4.9661   -1.1710   H         1 RES1   0.0000
    59 H24      -3.1663   -6.4015   -1.6377   H         1 RES1   0.0000
    60 H25      -1.4326   -6.5175   -1.3510   H         1 RES1   0.0000
    61 H26      -2.7152    0.5999    5.3502   H         1 RES1   0.0000
    62 H27      -1.8473    0.4827    6.9099   H         1 RES1   0.0000
    63 H28      -3.5202    1.0200    6.8585   H         1 RES1   0.0000
    64 H29      -1.7439    4.1427    7.6064   H         1 RES1   0.0000
    65 H30      -3.0361    3.0440    8.0642   H         1 RES1   0.0000
    66 H31      -1.3616    2.5387    8.2120   H         1 RES1   0.0000
    67 C28       6.0261    1.9924    4.1212   C.3       1 RES1   0.0000
    68 C29       5.1470    0.7711    4.0149   C.3       1 RES1   0.0000
    69 C30       4.6263    0.2567    5.3850   C.3       1 RES1   0.0000
    70 C31       4.1511   -1.1747    5.1069   C.3       1 RES1   0.0000
    71 C32       4.4134   -1.3503    3.5948   C.3       1 RES1   0.0000
    72 C33       3.4497   -0.4322    2.9366   C.ar      1 RES1   0.0000
    73 N8        2.3871   -0.6573    2.2136   N.ar      1 RES1   0.0000
    74 N9        1.8181    0.4051    1.6383   N.ar      1 RES1   0.0000
    75 C34       2.2972    1.6260    1.8389   C.ar      1 RES1   0.0000
    76 C35       1.7211    2.7181    1.0311   C.ar      1 RES1   0.0000
    77 C36       2.0853    4.0480    1.2470   C.ar      1 RES1   0.0000
    78 C37       1.5787    5.0212    0.3997   C.ar      1 RES1   0.0000
    79 C38       0.7683    4.6378   -0.6572   C.ar      1 RES1   0.0000
    80 C39       0.4359    3.2929   -0.7912   C.ar      1 RES1   0.0000
    81 C40      -0.3804    2.8260   -1.9311   C.ar      1 RES1   0.0000
    82 N10      -0.8494    1.5877   -1.8897   N.ar      1 RES1   0.0000
    83 N11      -1.4533    1.0576   -2.9613   N.ar      1 RES1   0.0000
    84 C41      -1.5424    1.8095   -4.0229   C.ar      1 RES1   0.0000
    85 C42      -1.1382    3.1822   -4.0019   C.ar      1 RES1   0.0000
    86 N12      -0.5554    3.6917   -2.9486   N.ar      1 RES1   0.0000
    87 C43      -1.4702    3.7564   -5.3353   C.3       1 RES1   0.0000
    88 C44      -0.8459    5.0876   -5.6792   C.3       1 RES1   0.0000
    89 C45      -3.0260    3.7704   -5.3451   C.3       1 RES1   0.0000
    90 C46      -3.4288    2.2903   -5.4038   C.3       1 RES1   0.0000
    91 C47      -2.0701    1.5515   -5.3909   C.3       1 RES1   0.0000
    92 C48      -1.1585    2.5048   -6.2221   C.3       1 RES1   0.0000
    93 C49      -1.5597    2.6518   -7.6816   C.3       1 RES1   0.0000
    94 C50       0.3125    2.0920   -6.1658   C.3       1 RES1   0.0000
    95 N13       0.8845    2.3610    0.0512   N.ar      1 RES1   0.0000
    96 N14       3.3255    1.9323    2.6536   N.ar      1 RES1   0.0000
    97 C51       3.9174    0.8957    3.1883   C.ar      1 RES1   0.0000
    98 C52       5.7238   -0.5395    3.3735   C.3       1 RES1   0.0000
    99 C53       6.0779   -0.3762    1.8926   C.3       1 RES1   0.0000
   100 C54       6.9283   -1.1190    4.0973   C.3       1 RES1   0.0000
   101 H32       5.4880    2.7911    4.6275   H         1 RES1   0.0000
   102 H33       6.3141    2.3428    3.1342   H         1 RES1   0.0000
   103 H34       6.9201    1.7565    4.6930   H         1 RES1   0.0000
   104 H35       3.8273    0.8931    5.7642   H         1 RES1   0.0000
   105 H36       5.4400    0.2825    6.1053   H         1 RES1   0.0000
   106 H37       3.0982   -1.3133    5.3396   H         1 RES1   0.0000
   107 H38       4.7131   -1.9120    5.6738   H         1 RES1   0.0000
   108 H39       4.3960   -2.3824    3.2584   H         1 RES1   0.0000
   109 H40       2.7553    4.2885    2.0540   H         1 RES1   0.0000
   110 H41       1.8258    6.0609    0.5479   H         1 RES1   0.0000
   111 H42       0.4068    5.3465   -1.3835   H         1 RES1   0.0000
   112 H43      -1.2145    5.8548   -5.0017   H         1 RES1   0.0000
   113 H44      -1.1039    5.3716   -6.6963   H         1 RES1   0.0000
   114 H45       0.2356    5.0394   -5.5862   H         1 RES1   0.0000
   115 H46      -3.3644    4.3198   -6.2199   H         1 RES1   0.0000
   116 H47      -3.4214    4.2771   -4.4656   H         1 RES1   0.0000
   117 H48      -3.9684    2.0541   -6.3173   H         1 RES1   0.0000
   118 H49      -4.0484    1.9874   -4.5605   H         1 RES1   0.0000
   119 H50      -2.1219    0.5134   -5.6993   H         1 RES1   0.0000
   120 H51      -2.5891    2.9639   -7.8078   H         1 RES1   0.0000
   121 H52      -1.4258    1.7049   -8.1995   H         1 RES1   0.0000
   122 H53      -0.9201    3.3846   -8.1680   H         1 RES1   0.0000
   123 H54       0.6474    1.9589   -5.1359   H         1 RES1   0.0000
   124 H55       0.9250    2.8534   -6.6447   H         1 RES1   0.0000
   125 H56       0.4624    1.1541   -6.6976   H         1 RES1   0.0000
   126 H57       5.2591    0.0512    1.3124   H         1 RES1   0.0000
   127 H58       6.3291   -1.3427    1.4604   H         1 RES1   0.0000
   128 H59       6.9421    0.2752    1.7890   H         1 RES1   0.0000
   129 H60       6.7549   -1.2502    5.1589   H         1 RES1   0.0000
   130 H61       7.7885   -0.4676    3.9686   H         1 RES1   0.0000
   131 H62       7.1799   -2.0888    3.6727   H         1 RES1   0.0000
   132 C55      -0.1437   -5.5844    5.2388   C.3       1 RES1   0.0000
   133 C56      -0.8618   -4.2791    5.0043   C.3       1 RES1   0.0000
   134 C57      -2.4113   -4.4016    5.0685   C.3       1 RES1   0.0000
   135 C58      -2.9137   -2.9644    5.2592   C.3       1 RES1   0.0000
   136 C59      -1.6077   -2.1415    5.2533   C.3       1 RES1   0.0000
   137 C60      -1.1247   -2.2561    3.8562   C.ar      1 RES1   0.0000
   138 N15      -1.1569   -1.4239    2.8546   N.ar      1 RES1   0.0000
   139 N16      -0.5052   -1.7849    1.7462   N.ar      1 RES1   0.0000
   140 C61       0.1562   -2.9369    1.7105   C.ar      1 RES1   0.0000
   141 C62       1.0833   -3.1575    0.5883   C.ar      1 RES1   0.0000
   142 C63       1.6118   -4.4238    0.3349   C.ar      1 RES1   0.0000
   143 C64       2.4850   -4.5744   -0.7295   C.ar      1 RES1   0.0000
   144 C65       2.8220   -3.4630   -1.4870   C.ar      1 RES1   0.0000
   145 C66       2.2550   -2.2342   -1.1597   C.ar      1 RES1   0.0000
   146 C67       2.5924   -1.0198   -1.9294   C.ar      1 RES1   0.0000
   147 N17       1.8858    0.0762   -1.6922   N.ar      1 RES1   0.0000
   148 N18       2.2526    1.2472   -2.2301   N.ar      1 RES1   0.0000
   149 C68       3.3296    1.2483   -2.9644   C.ar      1 RES1   0.0000
   150 C69       3.9934    0.0301   -3.3158   C.ar      1 RES1   0.0000
   151 N19       3.6189   -1.1083   -2.7977   N.ar      1 RES1   0.0000
   152 C70       5.1290    0.3975   -4.2042   C.3       1 RES1   0.0000
   153 C71       6.1677   -0.6686   -4.4529   C.3       1 RES1   0.0000
   154 C72       4.4456    0.9177   -5.5006   C.3       1 RES1   0.0000
   155 C73       3.8035    2.2498   -5.0938   C.3       1 RES1   0.0000
   156 C74       4.1135    2.3502   -3.5845   C.3       1 RES1   0.0000
   157 C75       5.5427    1.7334   -3.4929   C.3       1 RES1   0.0000
   158 C76       6.6073    2.5256   -4.2344   C.3       1 RES1   0.0000
   159 C77       6.0019    1.5366   -2.0456   C.3       1 RES1   0.0000
   160 N20       1.4053   -2.0869   -0.1435   N.ar      1 RES1   0.0000
   161 N21       0.0589   -3.9119    2.6355   N.ar      1 RES1   0.0000
   162 C78      -0.5980   -3.5785    3.7141   C.ar      1 RES1   0.0000
   163 C79      -0.5961   -3.0749    5.9704   C.3       1 RES1   0.0000
   164 C80       0.8366   -2.5437    5.8944   C.3       1 RES1   0.0000
   165 C81      -0.9317   -3.3360    7.4303   C.3       1 RES1   0.0000
   166 H63      -0.4938   -6.3285    4.5273   H         1 RES1   0.0000
   167 H64       0.9280   -5.4586    5.1129   H         1 RES1   0.0000
   168 H65      -0.3513   -5.9432    6.2441   H         1 RES1   0.0000
   169 H66      -2.8045   -4.8601    4.1623   H         1 RES1   0.0000
   170 H67      -2.6790   -5.0364    5.9097   H         1 RES1   0.0000
   171 H68      -3.5851   -2.6415    4.4641   H         1 RES1   0.0000
   172 H69      -3.4374   -2.8354    6.2022   H         1 RES1   0.0000
   173 H70      -1.7025   -1.1393    5.6447   H         1 RES1   0.0000
   174 H71       1.3334   -5.2475    0.9701   H         1 RES1   0.0000
   175 H72       2.8956   -5.5421   -0.9687   H         1 RES1   0.0000
   176 H73       3.5081   -3.5223   -2.3152   H         1 RES1   0.0000
   177 H74       5.7192   -1.5022   -4.9892   H         1 RES1   0.0000
   178 H75       6.9783   -0.2668   -5.0554   H         1 RES1   0.0000
   179 H76       6.5681   -1.0380   -3.5131   H         1 RES1   0.0000
   180 H77       5.1997    1.0467   -6.2724   H         1 RES1   0.0000
   181 H78       3.7149    0.2002   -5.8735   H         1 RES1   0.0000
   182 H79       4.2468    3.0918   -5.6190   H         1 RES1   0.0000
   183 H80       2.7327    2.2680   -5.2721   H         1 RES1   0.0000
   184 H81       3.9610    3.3384   -3.1648   H         1 RES1   0.0000
   185 H82       6.3695    2.6670   -5.2817   H         1 RES1   0.0000
   186 H83       6.7254    3.5052   -3.7765   H         1 RES1   0.0000
   187 H84       7.5630    2.0114   -4.1694   H         1 RES1   0.0000
   188 H85       5.2772    0.9800   -1.4505   H         1 RES1   0.0000
   189 H86       6.9458    0.9973   -2.0225   H         1 RES1   0.0000
   190 H87       6.1537    2.5041   -1.5718   H         1 RES1   0.0000
   191 H88       1.1387   -2.3364    4.8679   H         1 RES1   0.0000
   192 H89       0.9195   -1.6245    6.4728   H         1 RES1   0.0000
   193 H90       1.5246   -3.2724    6.3159   H         1 RES1   0.0000
   194 H91      -1.9326   -3.7271    7.5677   H         1 RES1   0.0000
   195 H92      -0.2242   -4.0440    7.8538   H         1 RES1   0.0000
   196 H93      -0.8488   -2.4111    7.9986   H         1 RES1   0.0000
@<TRIPOS>BOND
     1     1     9    1
     2     1    17    1
     3     1    30    1
     4     1    74    1
     5     1    82    1
     6     1    95    1
     7     1   139    1
     8     1   147    1
     9     1   160    1
    10     2     3    1
    11     2    36    1
    12     2    37    1
    13     2    38    1
    14     3     4    1
    15     3    32    1
    16     3    33    1
    17     4     5    1
    18     4    39    1
    19     4    40    1
    20     5     6    1
    21     5    41    1
    22     5    42    1
    23     6     7    1
    24     6    33    1
    25     6    43    1
    26     7     8    1
    27     7    32    2
    28     8     9    2
    29     9    10    1
    30    10    11    1
    31    10    31    2
    32    11    12    1
    33    11    30    2
    34    12    13    2
    35    12    44    1
    36    13    14    1
    37    13    45    1
    38    14    15    2
    39    14    46    1
    40    15    16    1
    41    15    30    1
    42    16    17    1
    43    16    21    2
    44    17    18    2
    45    18    19    1
    46    19    20    2
    47    19    26    1
    48    20    21    1
    49    20    22    1
    50    22    23    1
    51    22    24    1
    52    22    27    1
    53    23    47    1
    54    23    48    1
    55    23    49    1
    56    24    25    1
    57    24    50    1
    58    24    51    1
    59    25    26    1
    60    25    52    1
    61    25    53    1
    62    26    27    1
    63    26    54    1
    64    27    28    1
    65    27    29    1
    66    28    55    1
    67    28    56    1
    68    28    57    1
    69    29    58    1
    70    29    59    1
    71    29    60    1
    72    31    32    1
    73    33    34    1
    74    33    35    1
    75    34    61    1
    76    34    62    1
    77    34    63    1
    78    35    64    1
    79    35    65    1
    80    35    66    1
    81    67    68    1
    82    67   101    1
    83    67   102    1
    84    67   103    1
    85    68    69    1
    86    68    97    1
    87    68    98    1
    88    69    70    1
    89    69   104    1
    90    69   105    1
    91    70    71    1
    92    70   106    1
    93    70   107    1
    94    71    72    1
    95    71    98    1
    96    71   108    1
    97    72    73    1
    98    72    97    2
    99    73    74    2
   100    74    75    1
   101    75    76    1
   102    75    96    2
   103    76    77    1
   104    76    95    2
   105    77    78    2
   106    77   109    1
   107    78    79    1
   108    78   110    1
   109    79    80    2
   110    79   111    1
   111    80    81    1
   112    80    95    1
   113    81    82    1
   114    81    86    2
   115    82    83    2
   116    83    84    1
   117    84    85    2
   118    84    91    1
   119    85    86    1
   120    85    87    1
   121    87    88    1
   122    87    89    1
   123    87    92    1
   124    88   112    1
   125    88   113    1
   126    88   114    1
   127    89    90    1
   128    89   115    1
   129    89   116    1
   130    90    91    1
   131    90   117    1
   132    90   118    1
   133    91    92    1
   134    91   119    1
   135    92    93    1
   136    92    94    1
   137    93   120    1
   138    93   121    1
   139    93   122    1
   140    94   123    1
   141    94   124    1
   142    94   125    1
   143    96    97    1
   144    98    99    1
   145    98   100    1
   146    99   126    1
   147    99   127    1
   148    99   128    1
   149   100   129    1
   150   100   130    1
   151   100   131    1
   152   132   133    1
   153   132   166    1
   154   132   167    1
   155   132   168    1
   156   133   134    1
   157   133   162    1
   158   133   163    1
   159   134   135    1
   160   134   169    1
   161   134   170    1
   162   135   136    1
   163   135   171    1
   164   135   172    1
   165   136   137    1
   166   136   163    1
   167   136   173    1
   168   137   138    1
   169   137   162    2
   170   138   139    2
   171   139   140    1
   172   140   141    1
   173   140   161    2
   174   141   142    1
   175   141   160    2
   176   142   143    2
   177   142   174    1
   178   143   144    1
   179   143   175    1
   180   144   145    2
   181   144   176    1
   182   145   146    1
   183   145   160    1
   184   146   147    1
   185   146   151    2
   186   147   148    2
   187   148   149    1
   188   149   150    2
   189   149   156    1
   190   150   151    1
   191   150   152    1
   192   152   153    1
   193   152   154    1
   194   152   157    1
   195   153   177    1
   196   153   178    1
   197   153   179    1
   198   154   155    1
   199   154   180    1
   200   154   181    1
   201   155   156    1
   202   155   182    1
   203   155   183    1
   204   156   157    1
   205   156   184    1
   206   157   158    1
   207   157   159    1
   208   158   185    1
   209   158   186    1
   210   158   187    1
   211   159   188    1
   212   159   189    1
   213   159   190    1
   214   161   162    1
   215   163   164    1
   216   163   165    1
   217   164   191    1
   218   164   192    1
   219   164   193    1
   220   165   194    1
   221   165   195    1
   222   165   196    1
@<TRIPOS>SUBSTRUCTURE
     1 RES1      196 GROUP             0 ****  ****    0  
