@<TRIPOS>MOLECULE
YEMSEP_geometry_0_nunpairedes_0_charge_2 Charge: 2 Unpaired_Electrons: 2 XTB_Unpaired_Electrons: 0 XTB_Charge: 2
   119   129     1     0     0
SMALL
NoCharges
****
Generated from Architector

@<TRIPOS>ATOM
     1 Tm1      -0.1153    0.0145    0.1419   Tm        1 RES1   0.0000
     2 C1        1.5727   -1.4300   -5.0671   C.3       1 RES1   0.0000
     3 C2        2.2454   -0.3495   -4.2354   C.3       1 RES1   0.0000
     4 N1        2.8421   -0.9143   -3.0219   N.am      1 RES1   0.0000
     5 C3        2.3596   -0.5491   -1.8364   C.2       1 RES1   0.0000
     6 O1        1.4557    0.3019   -1.7169   O.2       1 RES1   0.0000
     7 C4        2.9331   -1.0850   -0.5517   C.ar      1 RES1   0.0000
     8 C5        4.2532   -1.4579   -0.3170   C.ar      1 RES1   0.0000
     9 C6        4.6177   -1.7585    0.9877   C.ar      1 RES1   0.0000
    10 C7        3.7073   -1.6145    2.0233   C.ar      1 RES1   0.0000
    11 C8        2.4190   -1.1926    1.7150   C.ar      1 RES1   0.0000
    12 C9        1.3547   -0.7079    2.6726   C.2       1 RES1   0.0000
    13 O2        0.6065    0.1951    2.2333   O.2       1 RES1   0.0000
    14 N2        1.2641   -1.1390    3.9157   N.am      1 RES1   0.0000
    15 C10       0.2428   -0.5623    4.7942   C.3       1 RES1   0.0000
    16 C11      -0.9532   -1.4961    4.9027   C.3       1 RES1   0.0000
    17 C12       2.0304   -2.2057    4.4722   C.ar      1 RES1   0.0000
    18 C13       2.7799   -1.8947    5.6012   C.ar      1 RES1   0.0000
    19 C14       3.4900   -2.8775    6.2580   C.ar      1 RES1   0.0000
    20 C15       3.4702   -4.1716    5.7614   C.ar      1 RES1   0.0000
    21 C16       2.7372   -4.4703    4.6293   C.ar      1 RES1   0.0000
    22 C17       1.9834   -3.5050    3.9613   C.ar      1 RES1   0.0000
    23 C18       1.1499   -3.8951    2.7734   C.3       1 RES1   0.0000
    24 N3        2.0532   -0.9770    0.4481   N.ar      1 RES1   0.0000
    25 C19       3.7566   -2.0040   -3.1739   C.ar      1 RES1   0.0000
    26 C20       3.3717   -3.2612   -2.7101   C.ar      1 RES1   0.0000
    27 C21       4.2129   -4.3465   -2.8564   C.ar      1 RES1   0.0000
    28 C22       5.4435   -4.1880   -3.4741   C.ar      1 RES1   0.0000
    29 C23       5.8146   -2.9441   -3.9336   C.ar      1 RES1   0.0000
    30 C24       4.9960   -1.8273   -3.7908   C.ar      1 RES1   0.0000
    31 C25       5.5093   -0.5141   -4.2995   C.3       1 RES1   0.0000
    32 H1        1.1830   -1.0122   -5.9902   H         1 RES1   0.0000
    33 H2        0.7506   -1.8623   -4.5052   H         1 RES1   0.0000
    34 H3        2.2807   -2.2141   -5.3222   H         1 RES1   0.0000
    35 H4        1.5222    0.3997   -3.9076   H         1 RES1   0.0000
    36 H5        3.0192    0.1453   -4.8216   H         1 RES1   0.0000
    37 H6        4.9798   -1.4892   -1.1096   H         1 RES1   0.0000
    38 H7        5.6199   -2.0830    1.2008   H         1 RES1   0.0000
    39 H8        4.0077   -1.8052    3.0388   H         1 RES1   0.0000
    40 H9       -0.0475    0.4021    4.3749   H         1 RES1   0.0000
    41 H10       0.6881   -0.4063    5.7770   H         1 RES1   0.0000
    42 H11      -1.3793   -1.6859    3.9217   H         1 RES1   0.0000
    43 H12      -1.7180   -1.0482    5.5288   H         1 RES1   0.0000
    44 H13      -0.6553   -2.4421    5.3457   H         1 RES1   0.0000
    45 H14       2.8052   -0.8692    5.9477   H         1 RES1   0.0000
    46 H15       4.0468   -2.6335    7.1466   H         1 RES1   0.0000
    47 H16       4.0246   -4.9465    6.2650   H         1 RES1   0.0000
    48 H17       2.7272   -5.4785    4.2522   H         1 RES1   0.0000
    49 H18       0.5376   -4.7601    3.0222   H         1 RES1   0.0000
    50 H19       1.7829   -4.1811    1.9328   H         1 RES1   0.0000
    51 H20       0.4876   -3.0931    2.4489   H         1 RES1   0.0000
    52 H21       2.4016   -3.3705   -2.2385   H         1 RES1   0.0000
    53 H22       3.9118   -5.3190   -2.5035   H         1 RES1   0.0000
    54 H23       6.1092   -5.0297   -3.5915   H         1 RES1   0.0000
    55 H24       6.7626   -2.8064   -4.4243   H         1 RES1   0.0000
    56 H25       6.5530   -0.3989   -4.0174   H         1 RES1   0.0000
    57 H26       4.9536    0.3343   -3.9103   H         1 RES1   0.0000
    58 H27       5.4701   -0.5101   -5.3886   H         1 RES1   0.0000
    59 C26      -0.5062    4.1017    2.2081   C.3       1 RES1   0.0000
    60 C27       0.0003    4.6024    0.8632   C.3       1 RES1   0.0000
    61 N4       -0.8325    4.1100   -0.2393   N.am      1 RES1   0.0000
    62 C28      -0.6751    2.8423   -0.5915   C.2       1 RES1   0.0000
    63 O3        0.1673    2.1248   -0.0038   O.2       1 RES1   0.0000
    64 C29      -1.3980    2.2177   -1.7616   C.ar      1 RES1   0.0000
    65 C30      -1.9410    2.8392   -2.8846   C.ar      1 RES1   0.0000
    66 C31      -2.4182    2.0310   -3.9067   C.ar      1 RES1   0.0000
    67 C32      -2.3096    0.6501   -3.8319   C.ar      1 RES1   0.0000
    68 C33      -1.7473    0.1015   -2.6831   C.ar      1 RES1   0.0000
    69 C34      -1.3511   -1.3259   -2.3999   C.2       1 RES1   0.0000
    70 O4       -0.5258   -1.5078   -1.4719   O.2       1 RES1   0.0000
    71 N5       -1.7474   -2.3511   -3.1444   N.am      1 RES1   0.0000
    72 C35      -1.1024   -3.6486   -2.9148   C.3       1 RES1   0.0000
    73 C36      -1.5399   -4.2959   -1.6087   C.3       1 RES1   0.0000
    74 C37      -2.8197   -2.3085   -4.0791   C.ar      1 RES1   0.0000
    75 C38      -2.5201   -2.6715   -5.3882   C.ar      1 RES1   0.0000
    76 C39      -3.5135   -2.7100   -6.3444   C.ar      1 RES1   0.0000
    77 C40      -4.8086   -2.3641   -5.9900   C.ar      1 RES1   0.0000
    78 C41      -5.0988   -2.0084   -4.6875   C.ar      1 RES1   0.0000
    79 C42      -4.1235   -1.9851   -3.6910   C.ar      1 RES1   0.0000
    80 C43      -4.4977   -1.6496   -2.2771   C.3       1 RES1   0.0000
    81 N6       -1.3368    0.8884   -1.6896   N.ar      1 RES1   0.0000
    82 C44      -1.9130    4.9235   -0.6820   C.ar      1 RES1   0.0000
    83 C45      -3.2127    4.4447   -0.5102   C.ar      1 RES1   0.0000
    84 C46      -4.2872    5.2259   -0.8822   C.ar      1 RES1   0.0000
    85 C47      -4.0739    6.4873   -1.4149   C.ar      1 RES1   0.0000
    86 C48      -2.7856    6.9542   -1.5727   C.ar      1 RES1   0.0000
    87 C49      -1.6800    6.1875   -1.2222   C.ar      1 RES1   0.0000
    88 C50      -0.3176    6.7753   -1.4478   C.3       1 RES1   0.0000
    89 H28       0.0963    4.5299    3.0038   H         1 RES1   0.0000
    90 H29      -0.4451    3.0153    2.2591   H         1 RES1   0.0000
    91 H30      -1.5363    4.4148    2.3502   H         1 RES1   0.0000
    92 H31       1.0187    4.2515    0.6842   H         1 RES1   0.0000
    93 H32      -0.0252    5.6894    0.8432   H         1 RES1   0.0000
    94 H33      -1.9919    3.9108   -2.9696   H         1 RES1   0.0000
    95 H34      -2.8753    2.4784   -4.7730   H         1 RES1   0.0000
    96 H35      -2.6581    0.0392   -4.6474   H         1 RES1   0.0000
    97 H36      -0.0206   -3.4905   -2.9090   H         1 RES1   0.0000
    98 H37      -1.3600   -4.2897   -3.7571   H         1 RES1   0.0000
    99 H38      -1.2403   -3.6886   -0.7570   H         1 RES1   0.0000
   100 H39      -1.0777   -5.2748   -1.5179   H         1 RES1   0.0000
   101 H40      -2.6177   -4.4198   -1.5995   H         1 RES1   0.0000
   102 H41      -1.4936   -2.9096   -5.6402   H         1 RES1   0.0000
   103 H42      -3.2799   -3.0042   -7.3537   H         1 RES1   0.0000
   104 H43      -5.5907   -2.3826   -6.7316   H         1 RES1   0.0000
   105 H44      -6.1078   -1.7474   -4.4201   H         1 RES1   0.0000
   106 H45      -5.3490   -2.2504   -1.9620   H         1 RES1   0.0000
   107 H46      -4.7931   -0.6046   -2.1837   H         1 RES1   0.0000
   108 H47      -3.6782   -1.8363   -1.5852   H         1 RES1   0.0000
   109 H48      -3.3531    3.4652   -0.0657   H         1 RES1   0.0000
   110 H49      -5.2943    4.8663   -0.7392   H         1 RES1   0.0000
   111 H50      -4.9090    7.1086   -1.6991   H         1 RES1   0.0000
   112 H51      -2.6069    7.9395   -1.9661   H         1 RES1   0.0000
   113 H52      -0.2633    7.1969   -2.4490   H         1 RES1   0.0000
   114 H53       0.4821    6.0498   -1.3338   H         1 RES1   0.0000
   115 H54      -0.1624    7.5975   -0.7491   H         1 RES1   0.0000
   116 N7       -2.2393   -0.6837    1.2077   N.3       1 RES1   0.0000
   117 O5       -3.3089   -1.0841    1.5346   O.2       1 RES1   0.0000
   118 O6       -2.0568    0.5002    0.8748   O.co2     1 RES1   0.0000
   119 O7       -1.2500   -1.4412    1.1585   O.co2     1 RES1   0.0000
@<TRIPOS>BOND
     1     1     6    1
     2     1    13    1
     3     1    24    1
     4     1    63    1
     5     1    70    1
     6     1    81    1
     7     1   118    1
     8     1   119    1
     9     2     3    1
    10     2    32    1
    11     2    33    1
    12     2    34    1
    13     3     4    1
    14     3    35    1
    15     3    36    1
    16     4     5    1
    17     4    25    1
    18     5     6    2
    19     5     7    1
    20     7     8    1
    21     7    24    2
    22     8     9    2
    23     8    37    1
    24     9    10    1
    25     9    38    1
    26    10    11    2
    27    10    39    1
    28    11    12    1
    29    11    24    1
    30    12    13    2
    31    12    14    1
    32    14    15    1
    33    14    17    1
    34    15    16    1
    35    15    40    1
    36    15    41    1
    37    16    42    1
    38    16    43    1
    39    16    44    1
    40    17    18    1
    41    17    22    2
    42    18    19    2
    43    18    45    1
    44    19    20    1
    45    19    46    1
    46    20    21    2
    47    20    47    1
    48    21    22    1
    49    21    48    1
    50    22    23    1
    51    23    49    1
    52    23    50    1
    53    23    51    1
    54    25    26    1
    55    25    30    2
    56    26    27    2
    57    26    52    1
    58    27    28    1
    59    27    53    1
    60    28    29    2
    61    28    54    1
    62    29    30    1
    63    29    55    1
    64    30    31    1
    65    31    56    1
    66    31    57    1
    67    31    58    1
    68    59    60    1
    69    59    89    1
    70    59    90    1
    71    59    91    1
    72    60    61    1
    73    60    92    1
    74    60    93    1
    75    61    62    1
    76    61    82    1
    77    62    63    2
    78    62    64    1
    79    64    65    1
    80    64    81    2
    81    65    66    2
    82    65    94    1
    83    66    67    1
    84    66    95    1
    85    67    68    2
    86    67    96    1
    87    68    69    1
    88    68    81    1
    89    69    70    2
    90    69    71    1
    91    71    72    1
    92    71    74    1
    93    72    73    1
    94    72    97    1
    95    72    98    1
    96    73    99    1
    97    73   100    1
    98    73   101    1
    99    74    75    1
   100    74    79    2
   101    75    76    2
   102    75   102    1
   103    76    77    1
   104    76   103    1
   105    77    78    2
   106    77   104    1
   107    78    79    1
   108    78   105    1
   109    79    80    1
   110    80   106    1
   111    80   107    1
   112    80   108    1
   113    82    83    1
   114    82    87    2
   115    83    84    2
   116    83   109    1
   117    84    85    1
   118    84   110    1
   119    85    86    2
   120    85   111    1
   121    86    87    1
   122    86   112    1
   123    87    88    1
   124    88   113    1
   125    88   114    1
   126    88   115    1
   127   116   117    2
   128   116   118    1
   129   116   119    1
@<TRIPOS>SUBSTRUCTURE
     1 RES1      119 GROUP             0 ****  ****    0  
