@<TRIPOS>MOLECULE
ICIGOT_geomtry_0_nunpairedes_0_charge_2 Charge: 2 Unpaired_Electrons: 2 XTB_Unpaired_Electrons: 0 XTB_Charge: 2
   231   235     1     0     0
SMALL
NoCharges
****
Generated from Architector

@<TRIPOS>ATOM
     1 Tm1      -0.2457   -0.0233   -0.1048   Tm        1 RES1   0.0000
     2 C1       -5.7780   -3.1568   -1.3786   C.3       1 RES1   0.0000
     3 C2       -4.9232   -3.7341   -2.5028   C.3       1 RES1   0.0000
     4 C3       -3.8496   -2.7775   -3.0249   C.3       1 RES1   0.0000
     5 C4       -4.4331   -1.4638   -3.5319   C.3       1 RES1   0.0000
     6 C5       -3.3659   -0.4717   -3.9945   C.3       1 RES1   0.0000
     7 C6       -3.9723    0.8891   -4.3543   C.3       1 RES1   0.0000
     8 C7       -4.4942    1.6612   -3.1339   C.3       1 RES1   0.0000
     9 C8       -3.3925    2.4363   -2.4040   C.3       1 RES1   0.0000
    10 N1       -3.4425    2.3684   -0.9379   N.am      1 RES1   0.0000
    11 C9       -4.7206    2.6139   -0.2946   C.3       1 RES1   0.0000
    12 C10      -5.0385    4.0968   -0.0981   C.3       1 RES1   0.0000
    13 C11      -4.1362    4.7175    0.9623   C.3       1 RES1   0.0000
    14 C12      -4.4433    6.1701    1.3105   C.3       1 RES1   0.0000
    15 C13      -3.5889    6.6426    2.4932   C.3       1 RES1   0.0000
    16 C14      -2.0927    6.3322    2.3859   C.3       1 RES1   0.0000
    17 C15      -1.4275    6.8761    1.1222   C.3       1 RES1   0.0000
    18 C16       0.0206    6.4122    0.9980   C.3       1 RES1   0.0000
    19 C17      -2.3228    2.0758   -0.3000   C.2       1 RES1   0.0000
    20 O1       -1.3021    1.6751   -0.9202   O.2       1 RES1   0.0000
    21 C18      -2.1514    2.2237    1.2275   C.3       1 RES1   0.0000
    22 O2       -0.8452    1.7083    1.4626   O.3       1 RES1   0.0000
    23 C19      -0.4937    1.3315    2.7871   C.3       1 RES1   0.0000
    24 C20       0.9748    0.8842    2.6184   C.2       1 RES1   0.0000
    25 O3        1.3904    0.7421    1.4441   O.2       1 RES1   0.0000
    26 N2        1.7581    0.7513    3.6851   N.am      1 RES1   0.0000
    27 C21       3.1981    0.9601    3.5753   C.3       1 RES1   0.0000
    28 C22       3.5907    2.2851    4.2471   C.3       1 RES1   0.0000
    29 C23       3.0194    3.5366    3.5720   C.3       1 RES1   0.0000
    30 C24       3.9138    4.1726    2.5029   C.3       1 RES1   0.0000
    31 C25       4.2714    3.2695    1.3168   C.3       1 RES1   0.0000
    32 C26       5.5860    2.5121    1.5020   C.3       1 RES1   0.0000
    33 C27       5.9317    1.6624    0.2827   C.3       1 RES1   0.0000
    34 C28       7.2295    0.8878    0.4784   C.3       1 RES1   0.0000
    35 C29       1.2422    0.3337    4.9785   C.3       1 RES1   0.0000
    36 C30       1.0466   -1.1950    5.0254   C.3       1 RES1   0.0000
    37 C31       2.3287   -1.9962    5.2867   C.3       1 RES1   0.0000
    38 C32       2.2987   -3.4409    4.7693   C.3       1 RES1   0.0000
    39 C33       1.5823   -4.4797    5.6404   C.3       1 RES1   0.0000
    40 C34       0.0702   -4.5817    5.4341   C.3       1 RES1   0.0000
    41 C35      -0.4696   -5.9472    5.8652   C.3       1 RES1   0.0000
    42 C36      -1.9568   -6.1079    5.5705   C.3       1 RES1   0.0000
    43 H1       -6.4432   -3.9242   -0.9861   H         1 RES1   0.0000
    44 H2       -6.3924   -2.3322   -1.7310   H         1 RES1   0.0000
    45 H3       -5.1465   -2.7916   -0.5693   H         1 RES1   0.0000
    46 H4       -5.5698   -4.0423   -3.3263   H         1 RES1   0.0000
    47 H5       -4.4326   -4.6354   -2.1279   H         1 RES1   0.0000
    48 H6       -3.3065   -3.2690   -3.8347   H         1 RES1   0.0000
    49 H7       -3.1352   -2.5708   -2.2259   H         1 RES1   0.0000
    50 H8       -5.0111   -1.0159   -2.7268   H         1 RES1   0.0000
    51 H9       -5.1047   -1.6728   -4.3651   H         1 RES1   0.0000
    52 H10      -2.8628   -0.8794   -4.8754   H         1 RES1   0.0000
    53 H11      -2.6108   -0.3404   -3.2139   H         1 RES1   0.0000
    54 H12      -4.8049    0.7175   -5.0389   H         1 RES1   0.0000
    55 H13      -3.2390    1.4984   -4.8886   H         1 RES1   0.0000
    56 H14      -4.9427    0.9415   -2.4532   H         1 RES1   0.0000
    57 H15      -5.2666    2.3553   -3.4645   H         1 RES1   0.0000
    58 H16      -3.4443    3.4958   -2.6738   H         1 RES1   0.0000
    59 H17      -2.4146    2.0500   -2.6940   H         1 RES1   0.0000
    60 H18      -4.7341    2.0851    0.6576   H         1 RES1   0.0000
    61 H19      -5.4838    2.1636   -0.9285   H         1 RES1   0.0000
    62 H20      -6.0846    4.1905    0.1968   H         1 RES1   0.0000
    63 H21      -4.9106    4.6129   -1.0500   H         1 RES1   0.0000
    64 H22      -3.1130    4.6777    0.5882   H         1 RES1   0.0000
    65 H23      -4.2141    4.1256    1.8786   H         1 RES1   0.0000
    66 H24      -5.4955    6.2751    1.5816   H         1 RES1   0.0000
    67 H25      -4.2630    6.7981    0.4380   H         1 RES1   0.0000
    68 H26      -3.9648    6.1693    3.4033   H         1 RES1   0.0000
    69 H27      -3.7186    7.7184    2.6048   H         1 RES1   0.0000
    70 H28      -1.9359    5.2499    2.4401   H         1 RES1   0.0000
    71 H29      -1.5944    6.7634    3.2565   H         1 RES1   0.0000
    72 H30      -1.4650    7.9661    1.1452   H         1 RES1   0.0000
    73 H31      -1.9763    6.5471    0.2375   H         1 RES1   0.0000
    74 H32       0.6070    6.7301    1.8569   H         1 RES1   0.0000
    75 H33       0.4734    6.8305    0.1028   H         1 RES1   0.0000
    76 H34       0.0730    5.3249    0.9308   H         1 RES1   0.0000
    77 H35      -2.9135    1.6709    1.7891   H         1 RES1   0.0000
    78 H36      -2.1734    3.2784    1.5259   H         1 RES1   0.0000
    79 H37      -1.1540    0.5285    3.1407   H         1 RES1   0.0000
    80 H38      -0.5495    2.1916    3.4726   H         1 RES1   0.0000
    81 H39       3.4552    0.9617    2.5192   H         1 RES1   0.0000
    82 H40       3.7286    0.1481    4.0718   H         1 RES1   0.0000
    83 H41       4.6771    2.3616    4.2714   H         1 RES1   0.0000
    84 H42       3.2571    2.2582    5.2856   H         1 RES1   0.0000
    85 H43       2.8544    4.2936    4.3428   H         1 RES1   0.0000
    86 H44       2.0446    3.3066    3.1322   H         1 RES1   0.0000
    87 H45       4.8312    4.5330    2.9708   H         1 RES1   0.0000
    88 H46       3.3857    5.0524    2.1273   H         1 RES1   0.0000
    89 H47       4.3808    3.8971    0.4307   H         1 RES1   0.0000
    90 H48       3.4432    2.5819    1.1203   H         1 RES1   0.0000
    91 H49       5.5543    1.8627    2.3766   H         1 RES1   0.0000
    92 H50       6.3809    3.2416    1.6601   H         1 RES1   0.0000
    93 H51       6.0240    2.3082   -0.5940   H         1 RES1   0.0000
    94 H52       5.1112    0.9566    0.0965   H         1 RES1   0.0000
    95 H53       8.0546    1.5708    0.6605   H         1 RES1   0.0000
    96 H54       7.4664    0.2993   -0.4052   H         1 RES1   0.0000
    97 H55       7.1543    0.2151    1.3307   H         1 RES1   0.0000
    98 H56       0.2911    0.8307    5.1650   H         1 RES1   0.0000
    99 H57       1.9430    0.6356    5.7556   H         1 RES1   0.0000
   100 H58       0.6165   -1.5015    4.0701   H         1 RES1   0.0000
   101 H59       0.3257   -1.4168    5.8122   H         1 RES1   0.0000
   102 H60       2.5482   -2.0037    6.3545   H         1 RES1   0.0000
   103 H61       3.1652   -1.5073    4.7872   H         1 RES1   0.0000
   104 H62       3.3378   -3.7640    4.6833   H         1 RES1   0.0000
   105 H63       1.8780   -3.4472    3.7592   H         1 RES1   0.0000
   106 H64       1.8036   -4.2794    6.6874   H         1 RES1   0.0000
   107 H65       2.0142   -5.4558    5.4064   H         1 RES1   0.0000
   108 H66      -0.1519   -4.4420    4.3727   H         1 RES1   0.0000
   109 H67      -0.4490   -3.7982    5.9885   H         1 RES1   0.0000
   110 H68      -0.2966   -6.0869    6.9332   H         1 RES1   0.0000
   111 H69       0.0835   -6.7305    5.3392   H         1 RES1   0.0000
   112 H70      -2.5407   -5.3391    6.0712   H         1 RES1   0.0000
   113 H71      -2.3051   -7.0760    5.9192   H         1 RES1   0.0000
   114 H72      -2.1516   -6.0468    4.5002   H         1 RES1   0.0000
   115 C37      -3.8259   -7.5704   -4.3387   C.3       1 RES1   0.0000
   116 C38      -2.7746   -6.7434   -3.6112   C.3       1 RES1   0.0000
   117 C39      -1.7190   -7.5898   -2.9005   C.3       1 RES1   0.0000
   118 C40      -0.8438   -6.7031   -2.0192   C.3       1 RES1   0.0000
   119 C41       0.4548   -7.3671   -1.5729   C.3       1 RES1   0.0000
   120 C42       1.2664   -6.4209   -0.6823   C.3       1 RES1   0.0000
   121 C43       0.8857   -6.5448    0.7973   C.3       1 RES1   0.0000
   122 C44       1.1025   -5.2599    1.5967   C.3       1 RES1   0.0000
   123 N3        0.1381   -4.1862    1.3454   N.am      1 RES1   0.0000
   124 C45      -1.2460   -4.6098    1.6422   C.3       1 RES1   0.0000
   125 C46      -2.4453   -3.6482    1.6088   C.3       1 RES1   0.0000
   126 C47      -2.9538   -3.1298    2.9624   C.3       1 RES1   0.0000
   127 C48      -2.0728   -2.0567    3.6007   C.3       1 RES1   0.0000
   128 C49      -2.7871   -1.2045    4.6561   C.3       1 RES1   0.0000
   129 C50      -3.8902   -0.3121    4.0868   C.3       1 RES1   0.0000
   130 C51      -4.3278    0.8006    5.0443   C.3       1 RES1   0.0000
   131 C52      -3.2989    1.9067    5.2672   C.3       1 RES1   0.0000
   132 C53       0.5226   -2.9818    0.9594   C.2       1 RES1   0.0000
   133 O4       -0.1721   -1.9555    1.0786   O.2       1 RES1   0.0000
   134 C54       1.9028   -2.7642    0.2714   C.3       1 RES1   0.0000
   135 O5        1.7225   -1.5490   -0.4507   O.3       1 RES1   0.0000
   136 C55       2.7202   -1.1586   -1.3962   C.3       1 RES1   0.0000
   137 C56       1.9347   -0.3059   -2.4143   C.2       1 RES1   0.0000
   138 O6        0.7841    0.0425   -2.0699   O.2       1 RES1   0.0000
   139 N4        2.4343    0.0014   -3.5996   N.am      1 RES1   0.0000
   140 C57       1.5445    0.6144   -4.5839   C.3       1 RES1   0.0000
   141 C58       1.3059   -0.2269   -5.8449   C.3       1 RES1   0.0000
   142 C59       0.3009   -1.3845   -5.7118   C.3       1 RES1   0.0000
   143 C60       0.9326   -2.7696   -5.5538   C.3       1 RES1   0.0000
   144 C61       1.5403   -3.0019   -4.1732   C.3       1 RES1   0.0000
   145 C62       1.9396   -4.4545   -3.9171   C.3       1 RES1   0.0000
   146 C63       3.0200   -4.9914   -4.8562   C.3       1 RES1   0.0000
   147 C64       4.3454   -4.2402   -4.7685   C.3       1 RES1   0.0000
   148 C65       3.8309   -0.1349   -3.9720   C.3       1 RES1   0.0000
   149 C66       4.7750    0.8852   -3.3220   C.3       1 RES1   0.0000
   150 C67       4.3915    2.3570   -3.5057   C.3       1 RES1   0.0000
   151 C68       3.3525    2.8589   -2.4996   C.3       1 RES1   0.0000
   152 C69       3.2262    4.3847   -2.4952   C.3       1 RES1   0.0000
   153 C70       2.5649    4.9847   -3.7367   C.3       1 RES1   0.0000
   154 C71       1.1234    4.5371   -3.9903   C.3       1 RES1   0.0000
   155 C72       0.1659    4.8656   -2.8491   C.3       1 RES1   0.0000
   156 H73      -4.5292   -6.9140   -4.8460   H         1 RES1   0.0000
   157 H74      -4.3822   -8.1852   -3.6355   H         1 RES1   0.0000
   158 H75      -3.3678   -8.2234   -5.0768   H         1 RES1   0.0000
   159 H76      -3.2748   -6.1093   -2.8745   H         1 RES1   0.0000
   160 H77      -2.2740   -6.0804   -4.3235   H         1 RES1   0.0000
   161 H78      -1.1046   -8.1032   -3.6419   H         1 RES1   0.0000
   162 H79      -2.2056   -8.3499   -2.2879   H         1 RES1   0.0000
   163 H80      -1.4270   -6.3870   -1.1495   H         1 RES1   0.0000
   164 H81      -0.5845   -5.7988   -2.5776   H         1 RES1   0.0000
   165 H82       1.0356   -7.6214   -2.4593   H         1 RES1   0.0000
   166 H83       0.2553   -8.2956   -1.0378   H         1 RES1   0.0000
   167 H84       1.0860   -5.4002   -1.0302   H         1 RES1   0.0000
   168 H85       2.3323   -6.6285   -0.7883   H         1 RES1   0.0000
   169 H86       1.4979   -7.3247    1.2544   H         1 RES1   0.0000
   170 H87      -0.1496   -6.8677    0.8903   H         1 RES1   0.0000
   171 H88       2.1075   -4.8879    1.4134   H         1 RES1   0.0000
   172 H89       1.0316   -5.4976    2.6617   H         1 RES1   0.0000
   173 H90      -1.2154   -5.1055    2.6153   H         1 RES1   0.0000
   174 H91      -1.4521   -5.3713    0.8860   H         1 RES1   0.0000
   175 H92      -3.2734   -4.2175    1.1793   H         1 RES1   0.0000
   176 H93      -2.2583   -2.8138    0.9373   H         1 RES1   0.0000
   177 H94      -3.0681   -3.9711    3.6488   H         1 RES1   0.0000
   178 H95      -3.9478   -2.7122    2.7954   H         1 RES1   0.0000
   179 H96      -1.6986   -1.4082    2.8025   H         1 RES1   0.0000
   180 H97      -1.2193   -2.5456    4.0708   H         1 RES1   0.0000
   181 H98      -2.0384   -0.5767    5.1434   H         1 RES1   0.0000
   182 H99      -3.2127   -1.8553    5.4191   H         1 RES1   0.0000
   183 H100     -4.7694   -0.9191    3.8704   H         1 RES1   0.0000
   184 H101     -3.5562    0.1203    3.1387   H         1 RES1   0.0000
   185 H102     -4.5838    0.3594    6.0085   H         1 RES1   0.0000
   186 H103     -5.2361    1.2579    4.6460   H         1 RES1   0.0000
   187 H104     -2.4230    1.5449    5.8025   H         1 RES1   0.0000
   188 H105     -3.7445    2.6981    5.8654   H         1 RES1   0.0000
   189 H106     -2.9787    2.3381    4.3191   H         1 RES1   0.0000
   190 H107      2.1384   -3.5905   -0.4127   H         1 RES1   0.0000
   191 H108      2.7126   -2.6484    1.0082   H         1 RES1   0.0000
   192 H109      3.1888   -2.0278   -1.8785   H         1 RES1   0.0000
   193 H110      3.4984   -0.5633   -0.8948   H         1 RES1   0.0000
   194 H111      1.9744    1.5709   -4.8846   H         1 RES1   0.0000
   195 H112      0.5903    0.7934   -4.0867   H         1 RES1   0.0000
   196 H113      2.2503   -0.6134   -6.2301   H         1 RES1   0.0000
   197 H114      0.9252    0.4672   -6.5977   H         1 RES1   0.0000
   198 H115     -0.3016   -1.4065   -6.6222   H         1 RES1   0.0000
   199 H116     -0.3791   -1.1965   -4.8789   H         1 RES1   0.0000
   200 H117      1.6951   -2.8950   -6.3244   H         1 RES1   0.0000
   201 H118      0.1603   -3.5199   -5.7319   H         1 RES1   0.0000
   202 H119      0.8100   -2.6956   -3.4140   H         1 RES1   0.0000
   203 H120      2.4229   -2.3745   -4.0701   H         1 RES1   0.0000
   204 H121      1.0585   -5.0909   -4.0086   H         1 RES1   0.0000
   205 H122      2.3030   -4.5409   -2.8890   H         1 RES1   0.0000
   206 H123      2.6556   -4.9625   -5.8832   H         1 RES1   0.0000
   207 H124      3.1965   -6.0395   -4.6041   H         1 RES1   0.0000
   208 H125      4.2483   -3.2177   -5.1280   H         1 RES1   0.0000
   209 H126      5.0903   -4.7379   -5.3841   H         1 RES1   0.0000
   210 H127      4.7148   -4.2206   -3.7433   H         1 RES1   0.0000
   211 H128      3.8901   -0.0166   -5.0538   H         1 RES1   0.0000
   212 H129      4.1880   -1.1383   -3.7277   H         1 RES1   0.0000
   213 H130      5.7558    0.7210   -3.7765   H         1 RES1   0.0000
   214 H131      4.8740    0.6762   -2.2569   H         1 RES1   0.0000
   215 H132      4.0676    2.5273   -4.5328   H         1 RES1   0.0000
   216 H133      5.2980    2.9467   -3.3555   H         1 RES1   0.0000
   217 H134      3.6733    2.5443   -1.5028   H         1 RES1   0.0000
   218 H135      2.3684    2.4233   -2.6744   H         1 RES1   0.0000
   219 H136      4.2231    4.8200   -2.3984   H         1 RES1   0.0000
   220 H137      2.6572    4.6822   -1.6139   H         1 RES1   0.0000
   221 H138      3.1657    4.7464   -4.6157   H         1 RES1   0.0000
   222 H139      2.5702    6.0711   -3.6306   H         1 RES1   0.0000
   223 H140      1.0901    3.4624   -4.1810   H         1 RES1   0.0000
   224 H141      0.7745    5.0370   -4.8976   H         1 RES1   0.0000
   225 H142      0.4050    4.2902   -1.9566   H         1 RES1   0.0000
   226 H143     -0.8536    4.6237   -3.1431   H         1 RES1   0.0000
   227 H144      0.2109    5.9250   -2.6080   H         1 RES1   0.0000
   228 N5       -2.5347   -0.6051   -0.4164   N.3       1 RES1   0.0000
   229 O7       -3.6511   -0.4017   -0.7663   O.2       1 RES1   0.0000
   230 O8       -2.1943   -0.3618    0.7491   O.co2     1 RES1   0.0000
   231 O9       -1.6732   -1.0821   -1.1619   O.co2     1 RES1   0.0000
@<TRIPOS>BOND
     1     1    20    1
     2     1    22    1
     3     1    25    1
     4     1   133    1
     5     1   135    1
     6     1   138    1
     7     1   230    1
     8     1   231    1
     9     2     3    1
    10     2    43    1
    11     2    44    1
    12     2    45    1
    13     3     4    1
    14     3    46    1
    15     3    47    1
    16     4     5    1
    17     4    48    1
    18     4    49    1
    19     5     6    1
    20     5    50    1
    21     5    51    1
    22     6     7    1
    23     6    52    1
    24     6    53    1
    25     7     8    1
    26     7    54    1
    27     7    55    1
    28     8     9    1
    29     8    56    1
    30     8    57    1
    31     9    10    1
    32     9    58    1
    33     9    59    1
    34    10    11    1
    35    10    19    1
    36    11    12    1
    37    11    60    1
    38    11    61    1
    39    12    13    1
    40    12    62    1
    41    12    63    1
    42    13    14    1
    43    13    64    1
    44    13    65    1
    45    14    15    1
    46    14    66    1
    47    14    67    1
    48    15    16    1
    49    15    68    1
    50    15    69    1
    51    16    17    1
    52    16    70    1
    53    16    71    1
    54    17    18    1
    55    17    72    1
    56    17    73    1
    57    18    74    1
    58    18    75    1
    59    18    76    1
    60    19    20    2
    61    19    21    1
    62    21    22    1
    63    21    77    1
    64    21    78    1
    65    22    23    1
    66    23    24    1
    67    23    79    1
    68    23    80    1
    69    24    25    2
    70    24    26    1
    71    26    27    1
    72    26    35    1
    73    27    28    1
    74    27    81    1
    75    27    82    1
    76    28    29    1
    77    28    83    1
    78    28    84    1
    79    29    30    1
    80    29    85    1
    81    29    86    1
    82    30    31    1
    83    30    87    1
    84    30    88    1
    85    31    32    1
    86    31    89    1
    87    31    90    1
    88    32    33    1
    89    32    91    1
    90    32    92    1
    91    33    34    1
    92    33    93    1
    93    33    94    1
    94    34    95    1
    95    34    96    1
    96    34    97    1
    97    35    36    1
    98    35    98    1
    99    35    99    1
   100    36    37    1
   101    36   100    1
   102    36   101    1
   103    37    38    1
   104    37   102    1
   105    37   103    1
   106    38    39    1
   107    38   104    1
   108    38   105    1
   109    39    40    1
   110    39   106    1
   111    39   107    1
   112    40    41    1
   113    40   108    1
   114    40   109    1
   115    41    42    1
   116    41   110    1
   117    41   111    1
   118    42   112    1
   119    42   113    1
   120    42   114    1
   121   115   116    1
   122   115   156    1
   123   115   157    1
   124   115   158    1
   125   116   117    1
   126   116   159    1
   127   116   160    1
   128   117   118    1
   129   117   161    1
   130   117   162    1
   131   118   119    1
   132   118   163    1
   133   118   164    1
   134   119   120    1
   135   119   165    1
   136   119   166    1
   137   120   121    1
   138   120   167    1
   139   120   168    1
   140   121   122    1
   141   121   169    1
   142   121   170    1
   143   122   123    1
   144   122   171    1
   145   122   172    1
   146   123   124    1
   147   123   132    1
   148   124   125    1
   149   124   173    1
   150   124   174    1
   151   125   126    1
   152   125   175    1
   153   125   176    1
   154   126   127    1
   155   126   177    1
   156   126   178    1
   157   127   128    1
   158   127   179    1
   159   127   180    1
   160   128   129    1
   161   128   181    1
   162   128   182    1
   163   129   130    1
   164   129   183    1
   165   129   184    1
   166   130   131    1
   167   130   185    1
   168   130   186    1
   169   131   187    1
   170   131   188    1
   171   131   189    1
   172   132   133    2
   173   132   134    1
   174   134   135    1
   175   134   190    1
   176   134   191    1
   177   135   136    1
   178   136   137    1
   179   136   192    1
   180   136   193    1
   181   137   138    2
   182   137   139    1
   183   139   140    1
   184   139   148    1
   185   140   141    1
   186   140   194    1
   187   140   195    1
   188   141   142    1
   189   141   196    1
   190   141   197    1
   191   142   143    1
   192   142   198    1
   193   142   199    1
   194   143   144    1
   195   143   200    1
   196   143   201    1
   197   144   145    1
   198   144   202    1
   199   144   203    1
   200   145   146    1
   201   145   204    1
   202   145   205    1
   203   146   147    1
   204   146   206    1
   205   146   207    1
   206   147   208    1
   207   147   209    1
   208   147   210    1
   209   148   149    1
   210   148   211    1
   211   148   212    1
   212   149   150    1
   213   149   213    1
   214   149   214    1
   215   150   151    1
   216   150   215    1
   217   150   216    1
   218   151   152    1
   219   151   217    1
   220   151   218    1
   221   152   153    1
   222   152   219    1
   223   152   220    1
   224   153   154    1
   225   153   221    1
   226   153   222    1
   227   154   155    1
   228   154   223    1
   229   154   224    1
   230   155   225    1
   231   155   226    1
   232   155   227    1
   233   228   229    2
   234   228   230    1
   235   228   231    1
@<TRIPOS>SUBSTRUCTURE
     1 RES1      231 GROUP             0 ****  ****    0  
