@<TRIPOS>MOLECULE
ICIGOT_geomtry_0_nunpairedes_0_charge_3 Charge: 3 Unpaired_Electrons: 2 XTB_Unpaired_Electrons: 0 XTB_Charge: 3
   145   158     1     0     0
SMALL
NoCharges
****
Generated from Architector

@<TRIPOS>ATOM
     1 Tm1      -0.1477   -0.0073   -0.0009   Tm        1 RES1   0.0000
     2 C1       -2.0848    1.3040    5.7328   C.3       1 RES1   0.0000
     3 C2       -3.0206    0.5890    4.7585   C.3       1 RES1   0.0000
     4 N1       -2.3941   -0.3809    3.8461   N.am      1 RES1   0.0000
     5 C3       -1.7664    0.1058    2.7743   C.2       1 RES1   0.0000
     6 O1       -1.4849   -0.5634    1.7466   O.2       1 RES1   0.0000
     7 C4       -1.0283    1.4344    2.8411   C.ar      1 RES1   0.0000
     8 C5       -1.2627    2.7225    3.3169   C.ar      1 RES1   0.0000
     9 C6       -0.1653    3.5679    3.4625   C.ar      1 RES1   0.0000
    10 C7        1.1232    3.1470    3.1335   C.ar      1 RES1   0.0000
    11 C8        1.2538    1.8844    2.5641   C.ar      1 RES1   0.0000
    12 C9        2.4425    1.0643    2.2196   C.ar      1 RES1   0.0000
    13 C10       3.6807    1.1032    2.8587   C.ar      1 RES1   0.0000
    14 C11       4.4841   -0.0305    2.7927   C.ar      1 RES1   0.0000
    15 C12       4.0221   -1.1661    2.1429   C.ar      1 RES1   0.0000
    16 C13       2.8276   -1.0779    1.4342   C.ar      1 RES1   0.0000
    17 C14       2.2264   -2.1449    0.5681   C.2       1 RES1   0.0000
    18 O2        1.4637   -1.7449   -0.3554   O.2       1 RES1   0.0000
    19 N2        2.5201   -3.4251    0.7540   N.am      1 RES1   0.0000
    20 C15       2.2444   -4.3862   -0.3149   C.3       1 RES1   0.0000
    21 C16       1.0208   -5.2595   -0.0754   C.3       1 RES1   0.0000
    22 C17       2.8829   -3.9757    2.0353   C.ar      1 RES1   0.0000
    23 C18       4.0644   -4.6977    2.1819   C.ar      1 RES1   0.0000
    24 C19       4.3898   -5.3036    3.3919   C.ar      1 RES1   0.0000
    25 C20       5.6463   -6.0889    3.5696   C.3       1 RES1   0.0000
    26 C21       3.4985   -5.1738    4.4555   C.ar      1 RES1   0.0000
    27 C22       2.3189   -4.4747    4.3049   C.ar      1 RES1   0.0000
    28 C23       1.9792   -3.8654    3.0988   C.ar      1 RES1   0.0000
    29 C24       0.6461   -3.1898    2.9481   C.3       1 RES1   0.0000
    30 N3        2.0925    0.0347    1.4283   N.ar      1 RES1   0.0000
    31 N4        0.1869    1.1001    2.4180   N.ar      1 RES1   0.0000
    32 C25      -2.5940   -1.8026    4.0461   C.ar      1 RES1   0.0000
    33 C26      -2.7301   -2.6299    2.9324   C.ar      1 RES1   0.0000
    34 C27      -2.9467   -3.9982    3.0105   C.ar      1 RES1   0.0000
    35 C28      -3.0763   -4.8319    1.7725   C.3       1 RES1   0.0000
    36 C29      -3.0614   -4.5634    4.2694   C.ar      1 RES1   0.0000
    37 C30      -2.8807   -3.7698    5.3841   C.ar      1 RES1   0.0000
    38 C31      -2.6189   -2.4016    5.3191   C.ar      1 RES1   0.0000
    39 C32      -2.3059   -1.7086    6.6100   C.3       1 RES1   0.0000
    40 H1       -2.5137    2.2650    6.0024   H         1 RES1   0.0000
    41 H2       -1.1093    1.4705    5.2920   H         1 RES1   0.0000
    42 H3       -1.9438    0.7383    6.6403   H         1 RES1   0.0000
    43 H4       -3.5141    1.3447    4.1451   H         1 RES1   0.0000
    44 H5       -3.8030    0.0532    5.2915   H         1 RES1   0.0000
    45 H6       -2.2464    3.0710    3.5852   H         1 RES1   0.0000
    46 H7       -0.3124    4.5544    3.8793   H         1 RES1   0.0000
    47 H8        1.9847    3.7643    3.3313   H         1 RES1   0.0000
    48 H9        3.9779    1.9484    3.4614   H         1 RES1   0.0000
    49 H10       5.4409   -0.0445    3.2883   H         1 RES1   0.0000
    50 H11       4.5743   -2.0899    2.1627   H         1 RES1   0.0000
    51 H12       3.1283   -5.0224   -0.4086   H         1 RES1   0.0000
    52 H13       2.1156   -3.8131   -1.2363   H         1 RES1   0.0000
    53 H14       0.1198   -4.6530   -0.0127   H         1 RES1   0.0000
    54 H15       0.9155   -5.9450   -0.9111   H         1 RES1   0.0000
    55 H16       1.1301   -5.8457    0.8331   H         1 RES1   0.0000
    56 H17       4.7444   -4.7859    1.3461   H         1 RES1   0.0000
    57 H18       6.2407   -6.1150    2.6615   H         1 RES1   0.0000
    58 H19       5.4108   -7.1119    3.8596   H         1 RES1   0.0000
    59 H20       6.2474   -5.6659    4.3736   H         1 RES1   0.0000
    60 H21       3.7246   -5.6501    5.3998   H         1 RES1   0.0000
    61 H22       1.6294   -4.4255    5.1350   H         1 RES1   0.0000
    62 H23       0.0438   -3.3384    3.8388   H         1 RES1   0.0000
    63 H24       0.0935   -3.6134    2.1122   H         1 RES1   0.0000
    64 H25       0.7234   -2.1112    2.7853   H         1 RES1   0.0000
    65 H26      -2.6496   -2.1904    1.9603   H         1 RES1   0.0000
    66 H27      -3.9182   -4.4948    1.1720   H         1 RES1   0.0000
    67 H28      -3.2469   -5.8721    2.0307   H         1 RES1   0.0000
    68 H29      -2.1761   -4.7769    1.1607   H         1 RES1   0.0000
    69 H30      -3.2725   -5.6162    4.3774   H         1 RES1   0.0000
    70 H31      -2.9362   -4.2359    6.3552   H         1 RES1   0.0000
    71 H32      -2.2563   -2.4280    7.4205   H         1 RES1   0.0000
    72 H33      -3.0648   -0.9846    6.8927   H         1 RES1   0.0000
    73 H34      -1.3337   -1.2238    6.5488   H         1 RES1   0.0000
    74 C33      -2.7459   -3.9506   -4.3153   C.3       1 RES1   0.0000
    75 C34      -3.0189   -4.0717   -2.8194   C.3       1 RES1   0.0000
    76 N5       -3.0938   -2.8053   -2.0831   N.am      1 RES1   0.0000
    77 C35      -1.9968   -2.1288   -1.7489   C.2       1 RES1   0.0000
    78 O3       -2.0062   -1.1980   -0.9009   O.2       1 RES1   0.0000
    79 C36      -0.6727   -2.2494   -2.4947   C.ar      1 RES1   0.0000
    80 C37      -0.0035   -3.2465   -3.2063   C.ar      1 RES1   0.0000
    81 C38       1.1604   -2.8922   -3.8869   C.ar      1 RES1   0.0000
    82 C39       1.6354   -1.5825   -3.8860   C.ar      1 RES1   0.0000
    83 C40       0.9132   -0.6478   -3.1496   C.ar      1 RES1   0.0000
    84 C41       0.9810    0.8360   -3.1000   C.ar      1 RES1   0.0000
    85 C42       1.5187    1.7001   -4.0515   C.ar      1 RES1   0.0000
    86 C43       1.0582    3.0128   -4.0783   C.ar      1 RES1   0.0000
    87 C44       0.0567    3.4199   -3.2066   C.ar      1 RES1   0.0000
    88 C45      -0.2921    2.5448   -2.1848   C.ar      1 RES1   0.0000
    89 C46      -1.0678    2.8852   -0.9536   C.2       1 RES1   0.0000
    90 O4       -0.6205    2.3506    0.0986   O.2       1 RES1   0.0000
    91 N6       -2.0781    3.7416   -0.9443   N.am      1 RES1   0.0000
    92 C47      -2.4578    4.3279    0.3455   C.3       1 RES1   0.0000
    93 C48      -3.6345    3.6252    1.0055   C.3       1 RES1   0.0000
    94 C49      -3.0673    3.8850   -1.9837   C.ar      1 RES1   0.0000
    95 C50      -3.4235    5.1631   -2.4051   C.ar      1 RES1   0.0000
    96 C51      -4.5443    5.3766   -3.1993   C.ar      1 RES1   0.0000
    97 C52      -5.0006    6.7459   -3.5778   C.3       1 RES1   0.0000
    98 C53      -5.2931    4.2685   -3.5903   C.ar      1 RES1   0.0000
    99 C54      -4.9193    2.9974   -3.2063   C.ar      1 RES1   0.0000
   100 C55      -3.8119    2.7703   -2.3904   C.ar      1 RES1   0.0000
   101 C56      -3.5124    1.3778   -1.9129   C.3       1 RES1   0.0000
   102 N7        0.2094    1.3137   -2.1086   N.ar      1 RES1   0.0000
   103 N8       -0.1637   -1.0238   -2.4611   N.ar      1 RES1   0.0000
   104 C57      -4.3771   -2.4187   -1.5287   C.ar      1 RES1   0.0000
   105 C58      -4.4334   -2.1305   -0.1684   C.ar      1 RES1   0.0000
   106 C59      -5.6085   -1.7669    0.4730   C.ar      1 RES1   0.0000
   107 C60      -5.6541   -1.4759    1.9410   C.3       1 RES1   0.0000
   108 C61      -6.7641   -1.7008   -0.2908   C.ar      1 RES1   0.0000
   109 C62      -6.7170   -1.9702   -1.6427   C.ar      1 RES1   0.0000
   110 C63      -5.5432   -2.3267   -2.3009   C.ar      1 RES1   0.0000
   111 C64      -5.6118   -2.5690   -3.7755   C.3       1 RES1   0.0000
   112 H35      -2.4419   -4.9178   -4.7044   H         1 RES1   0.0000
   113 H36      -1.9654   -3.2283   -4.5223   H         1 RES1   0.0000
   114 H37      -3.6280   -3.6394   -4.8544   H         1 RES1   0.0000
   115 H38      -2.2399   -4.6778   -2.3505   H         1 RES1   0.0000
   116 H39      -3.9656   -4.5859   -2.6547   H         1 RES1   0.0000
   117 H40      -0.3522   -4.2630   -3.2627   H         1 RES1   0.0000
   118 H41       1.6747   -3.6422   -4.4722   H         1 RES1   0.0000
   119 H42       2.5226   -1.2995   -4.4314   H         1 RES1   0.0000
   120 H43       2.2504    1.3560   -4.7667   H         1 RES1   0.0000
   121 H44       1.4606    3.7015   -4.8011   H         1 RES1   0.0000
   122 H45      -0.3999    4.3919   -3.2771   H         1 RES1   0.0000
   123 H46      -2.7088    5.3747    0.1616   H         1 RES1   0.0000
   124 H47      -1.5758    4.2725    0.9888   H         1 RES1   0.0000
   125 H48      -3.3883    2.5854    1.2079   H         1 RES1   0.0000
   126 H49      -3.8684    4.1208    1.9417   H         1 RES1   0.0000
   127 H50      -4.5161    3.6707    0.3736   H         1 RES1   0.0000
   128 H51      -2.8298    6.0079   -2.0880   H         1 RES1   0.0000
   129 H52      -4.3483    7.5190   -3.1827   H         1 RES1   0.0000
   130 H53      -6.0064    6.9096   -3.1918   H         1 RES1   0.0000
   131 H54      -5.0590    6.8508   -4.6601   H         1 RES1   0.0000
   132 H55      -6.1883    4.4157   -4.1787   H         1 RES1   0.0000
   133 H56      -5.5354    2.1622   -3.5051   H         1 RES1   0.0000
   134 H57      -4.2768    0.6887   -2.2599   H         1 RES1   0.0000
   135 H58      -3.5040    1.3254   -0.8238   H         1 RES1   0.0000
   136 H59      -2.5517    1.0078   -2.2784   H         1 RES1   0.0000
   137 H60      -3.5190   -2.1908    0.3901   H         1 RES1   0.0000
   138 H61      -5.3670   -2.3528    2.5170   H         1 RES1   0.0000
   139 H62      -6.6609   -1.1978    2.2345   H         1 RES1   0.0000
   140 H63      -4.9844   -0.6590    2.2045   H         1 RES1   0.0000
   141 H64      -7.7024   -1.4422    0.1729   H         1 RES1   0.0000
   142 H65      -7.6288   -1.9040   -2.2137   H         1 RES1   0.0000
   143 H66      -6.5720   -2.2492   -4.1657   H         1 RES1   0.0000
   144 H67      -5.5310   -3.6302   -3.9998   H         1 RES1   0.0000
   145 H68      -4.8361   -2.0170   -4.3005   H         1 RES1   0.0000
@<TRIPOS>BOND
     1     1     6    1
     2     1    18    1
     3     1    30    1
     4     1    31    1
     5     1    78    1
     6     1    90    1
     7     1   102    1
     8     1   103    1
     9     2     3    1
    10     2    40    1
    11     2    41    1
    12     2    42    1
    13     3     4    1
    14     3    43    1
    15     3    44    1
    16     4     5    1
    17     4    32    1
    18     5     6    2
    19     5     7    1
    20     7     8    1
    21     7    31    2
    22     8     9    2
    23     8    45    1
    24     9    10    1
    25     9    46    1
    26    10    11    2
    27    10    47    1
    28    11    12    1
    29    11    31    1
    30    12    13    1
    31    12    30    2
    32    13    14    2
    33    13    48    1
    34    14    15    1
    35    14    49    1
    36    15    16    2
    37    15    50    1
    38    16    17    1
    39    16    30    1
    40    17    18    2
    41    17    19    1
    42    19    20    1
    43    19    22    1
    44    20    21    1
    45    20    51    1
    46    20    52    1
    47    21    53    1
    48    21    54    1
    49    21    55    1
    50    22    23    1
    51    22    28    2
    52    23    24    2
    53    23    56    1
    54    24    25    1
    55    24    26    1
    56    25    57    1
    57    25    58    1
    58    25    59    1
    59    26    27    2
    60    26    60    1
    61    27    28    1
    62    27    61    1
    63    28    29    1
    64    29    62    1
    65    29    63    1
    66    29    64    1
    67    32    33    1
    68    32    38    2
    69    33    34    2
    70    33    65    1
    71    34    35    1
    72    34    36    1
    73    35    66    1
    74    35    67    1
    75    35    68    1
    76    36    37    2
    77    36    69    1
    78    37    38    1
    79    37    70    1
    80    38    39    1
    81    39    71    1
    82    39    72    1
    83    39    73    1
    84    74    75    1
    85    74   112    1
    86    74   113    1
    87    74   114    1
    88    75    76    1
    89    75   115    1
    90    75   116    1
    91    76    77    1
    92    76   104    1
    93    77    78    2
    94    77    79    1
    95    79    80    1
    96    79   103    2
    97    80    81    2
    98    80   117    1
    99    81    82    1
   100    81   118    1
   101    82    83    2
   102    82   119    1
   103    83    84    1
   104    83   103    1
   105    84    85    1
   106    84   102    2
   107    85    86    2
   108    85   120    1
   109    86    87    1
   110    86   121    1
   111    87    88    2
   112    87   122    1
   113    88    89    1
   114    88   102    1
   115    89    90    2
   116    89    91    1
   117    91    92    1
   118    91    94    1
   119    92    93    1
   120    92   123    1
   121    92   124    1
   122    93   125    1
   123    93   126    1
   124    93   127    1
   125    94    95    1
   126    94   100    2
   127    95    96    2
   128    95   128    1
   129    96    97    1
   130    96    98    1
   131    97   129    1
   132    97   130    1
   133    97   131    1
   134    98    99    2
   135    98   132    1
   136    99   100    1
   137    99   133    1
   138   100   101    1
   139   101   134    1
   140   101   135    1
   141   101   136    1
   142   104   105    1
   143   104   110    2
   144   105   106    2
   145   105   137    1
   146   106   107    1
   147   106   108    1
   148   107   138    1
   149   107   139    1
   150   107   140    1
   151   108   109    2
   152   108   141    1
   153   109   110    1
   154   109   142    1
   155   110   111    1
   156   111   143    1
   157   111   144    1
   158   111   145    1
@<TRIPOS>SUBSTRUCTURE
     1 RES1      145 GROUP             0 ****  ****    0  
