@<TRIPOS>MOLECULE
YEMSEP_geometry_0_nunpairedes_0_charge_2 Charge: 2 Unpaired_Electrons: 2 XTB_Unpaired_Electrons: 0 XTB_Charge: 2
   131   143     1     0     0
SMALL
NoCharges
****
Generated from Architector

@<TRIPOS>ATOM
     1 Tm1       0.0071    0.1128   -0.1018   Tm        1 RES1   0.0000
     2 C1        4.4342    1.0952    3.2906   C.3       1 RES1   0.0000
     3 C2        3.5009    0.5231    4.3498   C.3       1 RES1   0.0000
     4 C3        4.2294   -0.4108    5.3171   C.3       1 RES1   0.0000
     5 C4        4.6505   -1.7342    4.6745   C.3       1 RES1   0.0000
     6 C5        3.4732   -2.6922    4.4910   C.3       1 RES1   0.0000
     7 C6        3.7994   -3.8431    3.5302   C.3       1 RES1   0.0000
     8 C7        3.1771   -3.6620    2.1442   C.3       1 RES1   0.0000
     9 C8        3.8989   -2.6085    1.2940   C.3       1 RES1   0.0000
    10 N1        3.4071   -2.6880   -0.0845   N.am      1 RES1   0.0000
    11 C9        2.2261   -2.1068   -0.3314   C.2       1 RES1   0.0000
    12 O1        1.7853   -1.2148    0.4347   O.2       1 RES1   0.0000
    13 C10       1.2833   -2.5888   -1.4018   C.ar      1 RES1   0.0000
    14 C11       1.4193   -3.7325   -2.2064   C.ar      1 RES1   0.0000
    15 C12       0.4007   -4.0770   -3.0659   C.ar      1 RES1   0.0000
    16 C13      -0.8001   -3.3439   -3.0735   C.ar      1 RES1   0.0000
    17 C14      -1.9104   -3.6392   -3.9199   C.ar      1 RES1   0.0000
    18 C15      -3.0675   -2.9347   -3.8156   C.ar      1 RES1   0.0000
    19 C16      -3.2269   -1.9108   -2.8319   C.ar      1 RES1   0.0000
    20 C17      -4.4213   -1.1930   -2.6542   C.ar      1 RES1   0.0000
    21 C18      -4.5003   -0.2577   -1.6465   C.ar      1 RES1   0.0000
    22 C19      -3.3963   -0.0685   -0.8099   C.ar      1 RES1   0.0000
    23 N2       -2.2503   -0.7051   -0.9613   N.ar      1 RES1   0.0000
    24 C20      -2.1500   -1.5958   -1.9733   C.ar      1 RES1   0.0000
    25 C21      -0.8937   -2.2810   -2.1459   C.ar      1 RES1   0.0000
    26 N3        0.1404   -1.8988   -1.3810   N.ar      1 RES1   0.0000
    27 C22       4.2185   -3.3400   -1.0465   C.ar      1 RES1   0.0000
    28 C23       4.9779   -4.4547   -0.7090   C.ar      1 RES1   0.0000
    29 C24       5.7650   -5.0732   -1.6622   C.ar      1 RES1   0.0000
    30 C25       5.8155   -4.6008   -2.9693   C.ar      1 RES1   0.0000
    31 C26       6.6193   -5.3090   -4.0064   C.3       1 RES1   0.0000
    32 C27       5.0782   -3.4620   -3.2915   C.ar      1 RES1   0.0000
    33 C28       4.3036   -2.8264   -2.3428   C.ar      1 RES1   0.0000
    34 H1        3.8664    1.6473    2.5467   H         1 RES1   0.0000
    35 H2        4.9815    0.3070    2.7781   H         1 RES1   0.0000
    36 H3        5.1590    1.7688    3.7419   H         1 RES1   0.0000
    37 H4        2.6786   -0.0046    3.8607   H         1 RES1   0.0000
    38 H5        3.0623    1.3464    4.9163   H         1 RES1   0.0000
    39 H6        3.5837   -0.6184    6.1741   H         1 RES1   0.0000
    40 H7        5.1179    0.0996    5.6922   H         1 RES1   0.0000
    41 H8        5.4056   -2.2084    5.3040   H         1 RES1   0.0000
    42 H9        5.1173   -1.5425    3.7070   H         1 RES1   0.0000
    43 H10       2.6091   -2.1434    4.1083   H         1 RES1   0.0000
    44 H11       3.1906   -3.0948    5.4649   H         1 RES1   0.0000
    45 H12       3.4314   -4.7832    3.9425   H         1 RES1   0.0000
    46 H13       4.8825   -3.9398    3.4342   H         1 RES1   0.0000
    47 H14       2.1269   -3.3744    2.2469   H         1 RES1   0.0000
    48 H15       3.1928   -4.6202    1.6203   H         1 RES1   0.0000
    49 H16       4.9756   -2.7760    1.2920   H         1 RES1   0.0000
    50 H17       3.6882   -1.6102    1.6814   H         1 RES1   0.0000
    51 H18       2.3131   -4.3332   -2.1528   H         1 RES1   0.0000
    52 H19       0.5033   -4.9272   -3.7239   H         1 RES1   0.0000
    53 H20      -1.8108   -4.4325   -4.6450   H         1 RES1   0.0000
    54 H21      -3.9080   -3.1481   -4.4631   H         1 RES1   0.0000
    55 H22      -5.2595   -1.3884   -3.3047   H         1 RES1   0.0000
    56 H23      -5.3884    0.3283   -1.4815   H         1 RES1   0.0000
    57 H24      -3.4458    0.6311    0.0175   H         1 RES1   0.0000
    58 H25       4.9424   -4.8687    0.2867   H         1 RES1   0.0000
    59 H26       6.3366   -5.9458   -1.3849   H         1 RES1   0.0000
    60 H27       7.1719   -6.1417   -3.5823   H         1 RES1   0.0000
    61 H28       7.3250   -4.6370   -4.4917   H         1 RES1   0.0000
    62 H29       5.9648   -5.7008   -4.7840   H         1 RES1   0.0000
    63 H30       5.1114   -3.0663   -4.2953   H         1 RES1   0.0000
    64 H31       3.7452   -1.9373   -2.6017   H         1 RES1   0.0000
    65 C29      -1.2992    0.7425   -5.5066   C.3       1 RES1   0.0000
    66 C30      -0.8527    2.0150   -6.2243   C.3       1 RES1   0.0000
    67 C31      -0.6573    3.2068   -5.2861   C.3       1 RES1   0.0000
    68 C32       0.4349    3.0258   -4.2321   C.3       1 RES1   0.0000
    69 C33       1.8503    3.2280   -4.7699   C.3       1 RES1   0.0000
    70 C34       2.9031    2.7092   -3.7907   C.3       1 RES1   0.0000
    71 C35       2.8198    3.3739   -2.4160   C.3       1 RES1   0.0000
    72 C36       3.7631    2.6737   -1.4360   C.3       1 RES1   0.0000
    73 N4        3.3467    2.8844   -0.0458   N.am      1 RES1   0.0000
    74 C37       2.2507    2.2254    0.3205   C.2       1 RES1   0.0000
    75 O2        1.6567    1.5008   -0.5231   O.2       1 RES1   0.0000
    76 C38       1.6302    2.2296    1.6951   C.ar      1 RES1   0.0000
    77 C39       1.7301    3.2018    2.7031   C.ar      1 RES1   0.0000
    78 C40       1.0332    3.0139    3.8779   C.ar      1 RES1   0.0000
    79 C41       0.2103    1.8849    4.0464   C.ar      1 RES1   0.0000
    80 C42      -0.5523    1.6270    5.2219   C.ar      1 RES1   0.0000
    81 C43      -1.3558    0.5336    5.2971   C.ar      1 RES1   0.0000
    82 C44      -1.4938   -0.3685    4.1974   C.ar      1 RES1   0.0000
    83 C45      -2.3778   -1.4618    4.2119   C.ar      1 RES1   0.0000
    84 C46      -2.5025   -2.2415    3.0858   C.ar      1 RES1   0.0000
    85 C47      -1.7466   -1.9261    1.9562   C.ar      1 RES1   0.0000
    86 N5       -0.9016   -0.9076    1.9045   N.ar      1 RES1   0.0000
    87 C48      -0.7630   -0.1419    3.0108   C.ar      1 RES1   0.0000
    88 C49       0.1321    0.9888    2.9583   C.ar      1 RES1   0.0000
    89 N6        0.8385    1.1695    1.8402   N.ar      1 RES1   0.0000
    90 C50       4.3058    3.5431    0.7851   C.ar      1 RES1   0.0000
    91 C51       5.5236    2.8958    0.9792   C.ar      1 RES1   0.0000
    92 C52       6.4861    3.4554    1.7890   C.ar      1 RES1   0.0000
    93 C53       6.2593    4.6764    2.4218   C.ar      1 RES1   0.0000
    94 C54       7.2894    5.2237    3.3482   C.3       1 RES1   0.0000
    95 C55       5.0694    5.3447    2.1658   C.ar      1 RES1   0.0000
    96 C56       4.1029    4.8015    1.3354   C.ar      1 RES1   0.0000
    97 H32      -1.5686   -0.0219   -6.2333   H         1 RES1   0.0000
    98 H33      -2.1669    0.9455   -4.8795   H         1 RES1   0.0000
    99 H34      -0.5074    0.3439   -4.8733   H         1 RES1   0.0000
   100 H35      -1.6154    2.2912   -6.9549   H         1 RES1   0.0000
   101 H36       0.0708    1.8187   -6.7714   H         1 RES1   0.0000
   102 H37      -1.5997    3.4028   -4.7685   H         1 RES1   0.0000
   103 H38      -0.4207    4.0897   -5.8842   H         1 RES1   0.0000
   104 H39       0.3590    2.0275   -3.7953   H         1 RES1   0.0000
   105 H40       0.2457    3.7538   -3.4433   H         1 RES1   0.0000
   106 H41       2.0190    4.2879   -4.9691   H         1 RES1   0.0000
   107 H42       1.9654    2.6850   -5.7102   H         1 RES1   0.0000
   108 H43       3.9021    2.8564   -4.2066   H         1 RES1   0.0000
   109 H44       2.7445    1.6333   -3.6624   H         1 RES1   0.0000
   110 H45       1.8007    3.2804   -2.0428   H         1 RES1   0.0000
   111 H46       3.0542    4.4379   -2.4800   H         1 RES1   0.0000
   112 H47       4.7838    3.0346   -1.5476   H         1 RES1   0.0000
   113 H48       3.7389    1.5942   -1.6309   H         1 RES1   0.0000
   114 H49       2.3373    4.0788    2.5586   H         1 RES1   0.0000
   115 H50       1.0998    3.7387    4.6729   H         1 RES1   0.0000
   116 H51      -0.4844    2.3266    6.0403   H         1 RES1   0.0000
   117 H52      -1.9394    0.3390    6.1858   H         1 RES1   0.0000
   118 H53      -2.9539   -1.6580    5.1024   H         1 RES1   0.0000
   119 H54      -3.1904   -3.0701    3.0446   H         1 RES1   0.0000
   120 H55      -1.8379   -2.5163    1.0510   H         1 RES1   0.0000
   121 H56       5.6990    1.9398    0.5069   H         1 RES1   0.0000
   122 H57       7.4194    2.9413    1.9563   H         1 RES1   0.0000
   123 H58       7.4840    4.5163    4.1539   H         1 RES1   0.0000
   124 H59       6.9809    6.1672    3.7874   H         1 RES1   0.0000
   125 H60       8.2318    5.3782    2.8249   H         1 RES1   0.0000
   126 H61       4.8898    6.3022    2.6267   H         1 RES1   0.0000
   127 H62       3.2120    5.3673    1.1067   H         1 RES1   0.0000
   128 N7       -0.8923    2.0505   -1.0918   N.3       1 RES1   0.0000
   129 O3       -0.9684    3.1625   -1.4889   O.2       1 RES1   0.0000
   130 O4       -0.5659    1.1070   -1.8228   O.co2     1 RES1   0.0000
   131 O5       -1.1533    1.7809    0.1000   O.co2     1 RES1   0.0000
@<TRIPOS>BOND
     1     1    12    1
     2     1    23    1
     3     1    26    1
     4     1    75    1
     5     1    86    1
     6     1    89    1
     7     1   130    1
     8     1   131    1
     9     2     3    1
    10     2    34    1
    11     2    35    1
    12     2    36    1
    13     3     4    1
    14     3    37    1
    15     3    38    1
    16     4     5    1
    17     4    39    1
    18     4    40    1
    19     5     6    1
    20     5    41    1
    21     5    42    1
    22     6     7    1
    23     6    43    1
    24     6    44    1
    25     7     8    1
    26     7    45    1
    27     7    46    1
    28     8     9    1
    29     8    47    1
    30     8    48    1
    31     9    10    1
    32     9    49    1
    33     9    50    1
    34    10    11    1
    35    10    27    1
    36    11    12    2
    37    11    13    1
    38    13    14    1
    39    13    26    2
    40    14    15    2
    41    14    51    1
    42    15    16    1
    43    15    52    1
    44    16    17    1
    45    16    25    2
    46    17    18    2
    47    17    53    1
    48    18    19    1
    49    18    54    1
    50    19    20    1
    51    19    24    2
    52    20    21    2
    53    20    55    1
    54    21    22    1
    55    21    56    1
    56    22    23    2
    57    22    57    1
    58    23    24    1
    59    24    25    1
    60    25    26    1
    61    27    28    1
    62    27    33    2
    63    28    29    2
    64    28    58    1
    65    29    30    1
    66    29    59    1
    67    30    31    1
    68    30    32    2
    69    31    60    1
    70    31    61    1
    71    31    62    1
    72    32    33    1
    73    32    63    1
    74    33    64    1
    75    65    66    1
    76    65    97    1
    77    65    98    1
    78    65    99    1
    79    66    67    1
    80    66   100    1
    81    66   101    1
    82    67    68    1
    83    67   102    1
    84    67   103    1
    85    68    69    1
    86    68   104    1
    87    68   105    1
    88    69    70    1
    89    69   106    1
    90    69   107    1
    91    70    71    1
    92    70   108    1
    93    70   109    1
    94    71    72    1
    95    71   110    1
    96    71   111    1
    97    72    73    1
    98    72   112    1
    99    72   113    1
   100    73    74    1
   101    73    90    1
   102    74    75    2
   103    74    76    1
   104    76    77    1
   105    76    89    2
   106    77    78    2
   107    77   114    1
   108    78    79    1
   109    78   115    1
   110    79    80    1
   111    79    88    2
   112    80    81    2
   113    80   116    1
   114    81    82    1
   115    81   117    1
   116    82    83    1
   117    82    87    2
   118    83    84    2
   119    83   118    1
   120    84    85    1
   121    84   119    1
   122    85    86    2
   123    85   120    1
   124    86    87    1
   125    87    88    1
   126    88    89    1
   127    90    91    1
   128    90    96    2
   129    91    92    2
   130    91   121    1
   131    92    93    1
   132    92   122    1
   133    93    94    1
   134    93    95    2
   135    94   123    1
   136    94   124    1
   137    94   125    1
   138    95    96    1
   139    95   126    1
   140    96   127    1
   141   128   129    2
   142   128   130    1
   143   128   131    1
@<TRIPOS>SUBSTRUCTURE
     1 RES1      131 GROUP             0 ****  ****    0  
