@<TRIPOS>MOLECULE
ICIGOT_geomtry_0_nunpairedes_0_charge_2 Charge: 2 Unpaired_Electrons: 2 XTB_Unpaired_Electrons: 0 XTB_Charge: 2
   233   239     1     0     0
SMALL
NoCharges
****
Generated from Architector

@<TRIPOS>ATOM
     1 Tm1      -0.2620   -0.1898    0.3138   Tm        1 RES1   0.0000
     2 C1        8.4202   -1.5466    1.7147   C.3       1 RES1   0.0000
     3 C2        6.9182   -1.4600    1.4987   C.3       1 RES1   0.0000
     4 C3        6.1115   -1.7468    2.7658   C.3       1 RES1   0.0000
     5 C4        6.2290   -0.6665    3.8387   C.3       1 RES1   0.0000
     6 C5        5.4413   -1.0115    5.1065   C.3       1 RES1   0.0000
     7 C6        3.9494   -1.2990    4.9066   C.3       1 RES1   0.0000
     8 C7        3.1584   -0.0871    4.4114   C.3       1 RES1   0.0000
     9 C8        2.8277    0.9065    5.5323   C.3       1 RES1   0.0000
    10 C9        3.5763    2.2363    5.4580   C.3       1 RES1   0.0000
    11 C10       3.1263    3.1301    4.2951   C.3       1 RES1   0.0000
    12 C11       3.9674    2.9906    3.0161   C.3       1 RES1   0.0000
    13 C12       3.2070    2.5408    1.7675   C.3       1 RES1   0.0000
    14 N1        1.9921    3.3048    1.4766   N.am      1 RES1   0.0000
    15 C13       2.1287    4.7391    1.2798   C.3       1 RES1   0.0000
    16 C14       2.4949    5.0530   -0.1711   C.3       1 RES1   0.0000
    17 C15       2.7008    6.5422   -0.4401   C.3       1 RES1   0.0000
    18 C16       3.1347    6.8088   -1.8833   C.3       1 RES1   0.0000
    19 C17       2.0282    6.5804   -2.9191   C.3       1 RES1   0.0000
    20 C18       1.9101    5.1481   -3.4601   C.3       1 RES1   0.0000
    21 C19       0.4522    4.8223   -3.7679   C.3       1 RES1   0.0000
    22 C20       0.2723    3.4053   -4.3079   C.3       1 RES1   0.0000
    23 C21      -0.2024    2.4004   -3.2558   C.3       1 RES1   0.0000
    24 C22      -0.3750    1.0263   -3.8974   C.3       1 RES1   0.0000
    25 C23      -0.7542   -0.0997   -2.9380   C.3       1 RES1   0.0000
    26 C24      -0.0220   -1.3881   -3.3182   C.3       1 RES1   0.0000
    27 C25       0.8920    2.6116    1.2377   C.2       1 RES1   0.0000
    28 O1        0.8820    1.3598    1.2894   O.2       1 RES1   0.0000
    29 C26      -0.4280    3.3059    0.8792   C.3       1 RES1   0.0000
    30 O2       -1.4336    2.3058    0.7648   O.3       1 RES1   0.0000
    31 C27      -2.4180    2.3286    1.8131   C.3       1 RES1   0.0000
    32 C28      -3.5958    3.2453    1.4832   C.3       1 RES1   0.0000
    33 C29      -4.6941    3.0032    2.5118   C.3       1 RES1   0.0000
    34 C30      -5.1610    1.5586    2.4306   C.3       1 RES1   0.0000
    35 N2       -4.0517    0.6204    2.5248   N.am      1 RES1   0.0000
    36 C31      -4.3733   -0.7187    3.0004   C.3       1 RES1   0.0000
    37 C32      -4.5240   -1.7404    1.8808   C.3       1 RES1   0.0000
    38 C33      -5.8051   -1.6161    1.0419   C.3       1 RES1   0.0000
    39 C34      -5.6108   -0.9084   -0.3010   C.3       1 RES1   0.0000
    40 C35      -6.7814   -1.1383   -1.2574   C.3       1 RES1   0.0000
    41 C36      -6.4693   -0.6569   -2.6712   C.3       1 RES1   0.0000
    42 C37      -2.8217    0.8797    2.1147   C.2       1 RES1   0.0000
    43 O3       -1.9110    0.0283    2.0766   O.2       1 RES1   0.0000
    44 H1        8.9468   -1.3514    0.7853   H         1 RES1   0.0000
    45 H2        8.6826   -2.5403    2.0614   H         1 RES1   0.0000
    46 H3        8.7494   -0.8286    2.4577   H         1 RES1   0.0000
    47 H4        6.6352   -2.1859    0.7313   H         1 RES1   0.0000
    48 H5        6.6608   -0.4667    1.1238   H         1 RES1   0.0000
    49 H6        6.4385   -2.7008    3.1845   H         1 RES1   0.0000
    50 H7        5.0558   -1.8445    2.4923   H         1 RES1   0.0000
    51 H8        5.9016    0.2927    3.4302   H         1 RES1   0.0000
    52 H9        7.2752   -0.5458    4.1171   H         1 RES1   0.0000
    53 H10       5.5342   -0.1803    5.8061   H         1 RES1   0.0000
    54 H11       5.9059   -1.8892    5.5647   H         1 RES1   0.0000
    55 H12       3.5438   -1.6371    5.8623   H         1 RES1   0.0000
    56 H13       3.8289   -2.1280    4.2080   H         1 RES1   0.0000
    57 H14       2.2361   -0.4243    3.9333   H         1 RES1   0.0000
    58 H15       3.7391    0.4130    3.6435   H         1 RES1   0.0000
    59 H16       3.0503    0.4424    6.4945   H         1 RES1   0.0000
    60 H17       1.7563    1.1188    5.5355   H         1 RES1   0.0000
    61 H18       4.6519    2.0626    5.4062   H         1 RES1   0.0000
    62 H19       3.3799    2.7644    6.3914   H         1 RES1   0.0000
    63 H20       3.1886    4.1670    4.6275   H         1 RES1   0.0000
    64 H21       2.0731    2.9286    4.0829   H         1 RES1   0.0000
    65 H22       4.7556    2.2499    3.1611   H         1 RES1   0.0000
    66 H23       4.4818    3.9297    2.8187   H         1 RES1   0.0000
    67 H24       2.8977    1.4956    1.8734   H         1 RES1   0.0000
    68 H25       3.8744    2.6141    0.9017   H         1 RES1   0.0000
    69 H26       2.9201    5.0702    1.9495   H         1 RES1   0.0000
    70 H27       1.2066    5.2444    1.5711   H         1 RES1   0.0000
    71 H28       1.7091    4.6572   -0.8119   H         1 RES1   0.0000
    72 H29       3.4229    4.5260   -0.4080   H         1 RES1   0.0000
    73 H30       3.4825    6.9174    0.2235   H         1 RES1   0.0000
    74 H31       1.7874    7.0969   -0.2156   H         1 RES1   0.0000
    75 H32       4.0011    6.1828   -2.1067   H         1 RES1   0.0000
    76 H33       3.4652    7.8462   -1.9410   H         1 RES1   0.0000
    77 H34       2.1933    7.2520   -3.7625   H         1 RES1   0.0000
    78 H35       1.0679    6.8577   -2.4768   H         1 RES1   0.0000
    79 H36       2.2978    4.4120   -2.7534   H         1 RES1   0.0000
    80 H37       2.4946    5.0460   -4.3764   H         1 RES1   0.0000
    81 H38       0.0881    5.5538   -4.4864   H         1 RES1   0.0000
    82 H39      -0.1482    4.9455   -2.8650   H         1 RES1   0.0000
    83 H40       1.2180    3.0641   -4.7315   H         1 RES1   0.0000
    84 H41      -0.4542    3.4286   -5.1170   H         1 RES1   0.0000
    85 H42      -1.1611    2.7306   -2.8519   H         1 RES1   0.0000
    86 H43       0.5052    2.3411   -2.4157   H         1 RES1   0.0000
    87 H44       0.5455    0.7494   -4.4032   H         1 RES1   0.0000
    88 H45      -1.1444    1.0898   -4.6623   H         1 RES1   0.0000
    89 H46      -1.8351   -0.2418   -2.9848   H         1 RES1   0.0000
    90 H47      -0.4944    0.2369   -1.9073   H         1 RES1   0.0000
    91 H48      -0.2116   -1.6219   -4.3639   H         1 RES1   0.0000
    92 H49      -0.3369   -2.2435   -2.7309   H         1 RES1   0.0000
    93 H50       1.0491   -1.2698   -3.1703   H         1 RES1   0.0000
    94 H51      -0.3324    3.7817   -0.1024   H         1 RES1   0.0000
    95 H52      -0.6957    4.0720    1.6164   H         1 RES1   0.0000
    96 H53      -1.9383    2.6553    2.7542   H         1 RES1   0.0000
    97 H54      -3.9613    3.0275    0.4764   H         1 RES1   0.0000
    98 H55      -3.2776    4.2889    1.5178   H         1 RES1   0.0000
    99 H56      -5.5403    3.6722    2.3457   H         1 RES1   0.0000
   100 H57      -4.3066    3.1916    3.5153   H         1 RES1   0.0000
   101 H58      -5.7066    1.3687    1.4979   H         1 RES1   0.0000
   102 H59      -5.8484    1.3603    3.2552   H         1 RES1   0.0000
   103 H60      -5.2985   -0.6573    3.5707   H         1 RES1   0.0000
   104 H61      -3.5700   -1.0278    3.6724   H         1 RES1   0.0000
   105 H62      -4.5011   -2.7210    2.3534   H         1 RES1   0.0000
   106 H63      -3.6518   -1.6629    1.2337   H         1 RES1   0.0000
   107 H64      -6.5957   -1.1322    1.6199   H         1 RES1   0.0000
   108 H65      -6.1527   -2.6256    0.8218   H         1 RES1   0.0000
   109 H66      -4.7276   -1.3190   -0.7830   H         1 RES1   0.0000
   110 H67      -5.4428    0.1627   -0.1663   H         1 RES1   0.0000
   111 H68      -7.6806   -0.6401   -0.8915   H         1 RES1   0.0000
   112 H69      -6.9863   -2.2103   -1.2944   H         1 RES1   0.0000
   113 H70      -6.2586    0.4111   -2.6903   H         1 RES1   0.0000
   114 H71      -7.3162   -0.8456   -3.3267   H         1 RES1   0.0000
   115 H72      -5.6028   -1.1862   -3.0625   H         1 RES1   0.0000
   116 C38      -3.9215    3.5744   -4.1769   C.3       1 RES1   0.0000
   117 C39      -4.0400    2.0857   -4.4934   C.3       1 RES1   0.0000
   118 C40      -3.8587    1.7238   -5.9723   C.3       1 RES1   0.0000
   119 C41      -2.5519    2.2334   -6.5769   C.3       1 RES1   0.0000
   120 C42      -2.0838    1.5430   -7.8629   C.3       1 RES1   0.0000
   121 C43      -1.7428    0.0475   -7.7730   C.3       1 RES1   0.0000
   122 C44      -0.3391   -0.3413   -7.2562   C.3       1 RES1   0.0000
   123 C45       0.8615    0.3447   -7.9402   C.3       1 RES1   0.0000
   124 C46       1.9238    0.9263   -6.9829   C.3       1 RES1   0.0000
   125 C47       2.5705   -0.0838   -6.0229   C.3       1 RES1   0.0000
   126 C48       3.6780    0.5070   -5.1248   C.3       1 RES1   0.0000
   127 C49       3.1942    1.1363   -3.7953   C.3       1 RES1   0.0000
   128 N3        3.6811    0.4268   -2.6038   N.am      1 RES1   0.0000
   129 C50       5.1130    0.5590   -2.3274   C.3       1 RES1   0.0000
   130 C51       5.4173    2.0551   -2.1037   C.3       1 RES1   0.0000
   131 C52       6.4325    2.3834   -1.0055   C.3       1 RES1   0.0000
   132 C53       6.3563    3.8798   -0.6727   C.3       1 RES1   0.0000
   133 C54       6.8418    4.2807    0.7246   C.3       1 RES1   0.0000
   134 C55       6.4219    5.7198    1.0509   C.3       1 RES1   0.0000
   135 C56       6.7953    6.1882    2.4630   C.3       1 RES1   0.0000
   136 C57       5.9594    7.3984    2.9094   C.3       1 RES1   0.0000
   137 C58       4.4923    7.0423    3.1820   C.3       1 RES1   0.0000
   138 C59       3.7954    8.0775    4.0649   C.3       1 RES1   0.0000
   139 C60       2.3830    7.6530    4.4792   C.3       1 RES1   0.0000
   140 C61       1.3274    7.9099    3.4062   C.3       1 RES1   0.0000
   141 C62       2.8588    0.0818   -1.6035   C.2       1 RES1   0.0000
   142 O4        1.7081    0.5119   -1.4252   O.2       1 RES1   0.0000
   143 C63       3.3554   -0.9961   -0.6252   C.3       1 RES1   0.0000
   144 O5        2.2007   -1.4172    0.0887   O.3       1 RES1   0.0000
   145 C64       1.9995   -2.8174    0.3339   C.3       1 RES1   0.0000
   146 C65       3.2415   -3.6662    0.5906   C.3       1 RES1   0.0000
   147 C66       2.7681   -5.0248    1.0934   C.3       1 RES1   0.0000
   148 C67       2.0025   -4.8893    2.4005   C.3       1 RES1   0.0000
   149 N4        1.0428   -3.7999    2.3982   N.am      1 RES1   0.0000
   150 C68       0.0477   -3.8523    3.4661   C.3       1 RES1   0.0000
   151 C69      -0.2271   -2.5063    4.1360   C.3       1 RES1   0.0000
   152 C70      -0.5327   -2.6827    5.6219   C.3       1 RES1   0.0000
   153 C71       0.7584   -2.6706    6.4379   C.3       1 RES1   0.0000
   154 C72       0.5534   -3.0066    7.9097   C.3       1 RES1   0.0000
   155 C73       1.8216   -2.7492    8.7129   C.3       1 RES1   0.0000
   156 C74       1.0601   -2.7924    1.5515   C.2       1 RES1   0.0000
   157 O6        0.3352   -1.7890    1.6970   O.2       1 RES1   0.0000
   158 H73      -4.1128    3.7423   -3.1160   H         1 RES1   0.0000
   159 H74      -4.6493    4.1522   -4.7409   H         1 RES1   0.0000
   160 H75      -2.9264    3.9519   -4.4069   H         1 RES1   0.0000
   161 H76      -5.0241    1.7340   -4.1701   H         1 RES1   0.0000
   162 H77      -3.2968    1.5488   -3.8983   H         1 RES1   0.0000
   163 H78      -4.7007    2.1096   -6.5448   H         1 RES1   0.0000
   164 H79      -3.8850    0.6372   -6.0483   H         1 RES1   0.0000
   165 H80      -1.7626    2.1327   -5.8432   H         1 RES1   0.0000
   166 H81      -2.6489    3.3024   -6.7747   H         1 RES1   0.0000
   167 H82      -1.1991    2.0835   -8.2007   H         1 RES1   0.0000
   168 H83      -2.8537    1.6880   -8.6218   H         1 RES1   0.0000
   169 H84      -1.8887   -0.3838   -8.7623   H         1 RES1   0.0000
   170 H85      -2.4697   -0.4407   -7.1232   H         1 RES1   0.0000
   171 H86      -0.2382   -1.4273   -7.3702   H         1 RES1   0.0000
   172 H87      -0.3009   -0.1389   -6.1892   H         1 RES1   0.0000
   173 H88       0.4996    1.1787   -8.5452   H         1 RES1   0.0000
   174 H89       1.3390   -0.3528   -8.6286   H         1 RES1   0.0000
   175 H90       1.4605    1.7354   -6.4159   H         1 RES1   0.0000
   176 H91       2.7133    1.3601   -7.6020   H         1 RES1   0.0000
   177 H92       3.0077   -0.8816   -6.6223   H         1 RES1   0.0000
   178 H93       1.8022   -0.5491   -5.4043   H         1 RES1   0.0000
   179 H94       4.2200    1.2532   -5.7112   H         1 RES1   0.0000
   180 H95       4.3993   -0.2749   -4.8779   H         1 RES1   0.0000
   181 H96       2.1139    1.1261   -3.7258   H         1 RES1   0.0000
   182 H97       3.5079    2.1777   -3.7483   H         1 RES1   0.0000
   183 H98       5.7048    0.1568   -3.1482   H         1 RES1   0.0000
   184 H99       5.3475   -0.0147   -1.4346   H         1 RES1   0.0000
   185 H100      4.4743    2.5366   -1.8242   H         1 RES1   0.0000
   186 H101      5.7404    2.4900   -3.0492   H         1 RES1   0.0000
   187 H102      7.4394    2.1230   -1.3217   H         1 RES1   0.0000
   188 H103      6.2193    1.7820   -0.1175   H         1 RES1   0.0000
   189 H104      5.3131    4.1921   -0.7608   H         1 RES1   0.0000
   190 H105      6.9235    4.4421   -1.4150   H         1 RES1   0.0000
   191 H106      7.9264    4.1933    0.7814   H         1 RES1   0.0000
   192 H107      6.4259    3.6099    1.4849   H         1 RES1   0.0000
   193 H108      5.3410    5.8057    0.9291   H         1 RES1   0.0000
   194 H109      6.8794    6.4025    0.3346   H         1 RES1   0.0000
   195 H110      7.8518    6.4646    2.4848   H         1 RES1   0.0000
   196 H111      6.6585    5.3769    3.1861   H         1 RES1   0.0000
   197 H112      6.0141    8.1783    2.1458   H         1 RES1   0.0000
   198 H113      6.3943    7.8093    3.8249   H         1 RES1   0.0000
   199 H114      4.4644    6.0690    3.6853   H         1 RES1   0.0000
   200 H115      3.9494    6.9658    2.2358   H         1 RES1   0.0000
   201 H116      3.7500    9.0263    3.5268   H         1 RES1   0.0000
   202 H117      4.3986    8.2303    4.9631   H         1 RES1   0.0000
   203 H118      2.0960    8.2044    5.3747   H         1 RES1   0.0000
   204 H119      2.3879    6.5912    4.7443   H         1 RES1   0.0000
   205 H120      1.1882    8.9792    3.2611   H         1 RES1   0.0000
   206 H121      0.3718    7.4844    3.7124   H         1 RES1   0.0000
   207 H122      1.6139    7.4757    2.4496   H         1 RES1   0.0000
   208 H123      4.0781   -0.5810    0.0856   H         1 RES1   0.0000
   209 H124      3.8365   -1.8105   -1.1687   H         1 RES1   0.0000
   210 H125      1.4123   -3.2433   -0.5038   H         1 RES1   0.0000
   211 H126      3.8892   -3.1948    1.3325   H         1 RES1   0.0000
   212 H127      3.8129   -3.8124   -0.3266   H         1 RES1   0.0000
   213 H128      3.6236   -5.6827    1.2466   H         1 RES1   0.0000
   214 H129      2.1310   -5.4843    0.3390   H         1 RES1   0.0000
   215 H130      2.7071   -4.7109    3.2229   H         1 RES1   0.0000
   216 H131      1.4626   -5.8180    2.6016   H         1 RES1   0.0000
   217 H132      0.4215   -4.5542    4.2129   H         1 RES1   0.0000
   218 H133     -0.8808   -4.2542    3.0461   H         1 RES1   0.0000
   219 H134     -1.0456   -1.9958    3.6319   H         1 RES1   0.0000
   220 H135      0.6473   -1.8616    4.0473   H         1 RES1   0.0000
   221 H136     -1.0789   -3.6127    5.7825   H         1 RES1   0.0000
   222 H137     -1.1665   -1.8651    5.9668   H         1 RES1   0.0000
   223 H138      1.1910   -1.6705    6.3745   H         1 RES1   0.0000
   224 H139      1.4817   -3.3695    6.0129   H         1 RES1   0.0000
   225 H140      0.2486   -4.0478    8.0179   H         1 RES1   0.0000
   226 H141     -0.2539   -2.3858    8.2961   H         1 RES1   0.0000
   227 H142      2.6600   -3.3053    8.2993   H         1 RES1   0.0000
   228 H143      1.6873   -3.0488    9.7473   H         1 RES1   0.0000
   229 H144      2.0669   -1.6901    8.6915   H         1 RES1   0.0000
   230 N5       -1.9699   -1.6250   -0.7636   N.3       1 RES1   0.0000
   231 O7       -2.7874   -2.3350   -1.2486   O.2       1 RES1   0.0000
   232 O8       -0.8150   -2.0327   -0.5525   O.co2     1 RES1   0.0000
   233 O9       -2.2169   -0.4441   -0.4661   O.co2     1 RES1   0.0000
@<TRIPOS>BOND
     1     1    28    1
     2     1    30    1
     3     1    43    1
     4     1   142    1
     5     1   144    1
     6     1   157    1
     7     1   232    1
     8     1   233    1
     9     2     3    1
    10     2    44    1
    11     2    45    1
    12     2    46    1
    13     3     4    1
    14     3    47    1
    15     3    48    1
    16     4     5    1
    17     4    49    1
    18     4    50    1
    19     5     6    1
    20     5    51    1
    21     5    52    1
    22     6     7    1
    23     6    53    1
    24     6    54    1
    25     7     8    1
    26     7    55    1
    27     7    56    1
    28     8     9    1
    29     8    57    1
    30     8    58    1
    31     9    10    1
    32     9    59    1
    33     9    60    1
    34    10    11    1
    35    10    61    1
    36    10    62    1
    37    11    12    1
    38    11    63    1
    39    11    64    1
    40    12    13    1
    41    12    65    1
    42    12    66    1
    43    13    14    1
    44    13    67    1
    45    13    68    1
    46    14    15    1
    47    14    27    1
    48    15    16    1
    49    15    69    1
    50    15    70    1
    51    16    17    1
    52    16    71    1
    53    16    72    1
    54    17    18    1
    55    17    73    1
    56    17    74    1
    57    18    19    1
    58    18    75    1
    59    18    76    1
    60    19    20    1
    61    19    77    1
    62    19    78    1
    63    20    21    1
    64    20    79    1
    65    20    80    1
    66    21    22    1
    67    21    81    1
    68    21    82    1
    69    22    23    1
    70    22    83    1
    71    22    84    1
    72    23    24    1
    73    23    85    1
    74    23    86    1
    75    24    25    1
    76    24    87    1
    77    24    88    1
    78    25    26    1
    79    25    89    1
    80    25    90    1
    81    26    91    1
    82    26    92    1
    83    26    93    1
    84    27    28    2
    85    27    29    1
    86    29    30    1
    87    29    94    1
    88    29    95    1
    89    30    31    1
    90    31    32    1
    91    31    42    1
    92    31    96    1
    93    32    33    1
    94    32    97    1
    95    32    98    1
    96    33    34    1
    97    33    99    1
    98    33   100    1
    99    34    35    1
   100    34   101    1
   101    34   102    1
   102    35    36    1
   103    35    42    1
   104    36    37    1
   105    36   103    1
   106    36   104    1
   107    37    38    1
   108    37   105    1
   109    37   106    1
   110    38    39    1
   111    38   107    1
   112    38   108    1
   113    39    40    1
   114    39   109    1
   115    39   110    1
   116    40    41    1
   117    40   111    1
   118    40   112    1
   119    41   113    1
   120    41   114    1
   121    41   115    1
   122    42    43    2
   123   116   117    1
   124   116   158    1
   125   116   159    1
   126   116   160    1
   127   117   118    1
   128   117   161    1
   129   117   162    1
   130   118   119    1
   131   118   163    1
   132   118   164    1
   133   119   120    1
   134   119   165    1
   135   119   166    1
   136   120   121    1
   137   120   167    1
   138   120   168    1
   139   121   122    1
   140   121   169    1
   141   121   170    1
   142   122   123    1
   143   122   171    1
   144   122   172    1
   145   123   124    1
   146   123   173    1
   147   123   174    1
   148   124   125    1
   149   124   175    1
   150   124   176    1
   151   125   126    1
   152   125   177    1
   153   125   178    1
   154   126   127    1
   155   126   179    1
   156   126   180    1
   157   127   128    1
   158   127   181    1
   159   127   182    1
   160   128   129    1
   161   128   141    1
   162   129   130    1
   163   129   183    1
   164   129   184    1
   165   130   131    1
   166   130   185    1
   167   130   186    1
   168   131   132    1
   169   131   187    1
   170   131   188    1
   171   132   133    1
   172   132   189    1
   173   132   190    1
   174   133   134    1
   175   133   191    1
   176   133   192    1
   177   134   135    1
   178   134   193    1
   179   134   194    1
   180   135   136    1
   181   135   195    1
   182   135   196    1
   183   136   137    1
   184   136   197    1
   185   136   198    1
   186   137   138    1
   187   137   199    1
   188   137   200    1
   189   138   139    1
   190   138   201    1
   191   138   202    1
   192   139   140    1
   193   139   203    1
   194   139   204    1
   195   140   205    1
   196   140   206    1
   197   140   207    1
   198   141   142    2
   199   141   143    1
   200   143   144    1
   201   143   208    1
   202   143   209    1
   203   144   145    1
   204   145   146    1
   205   145   156    1
   206   145   210    1
   207   146   147    1
   208   146   211    1
   209   146   212    1
   210   147   148    1
   211   147   213    1
   212   147   214    1
   213   148   149    1
   214   148   215    1
   215   148   216    1
   216   149   150    1
   217   149   156    1
   218   150   151    1
   219   150   217    1
   220   150   218    1
   221   151   152    1
   222   151   219    1
   223   151   220    1
   224   152   153    1
   225   152   221    1
   226   152   222    1
   227   153   154    1
   228   153   223    1
   229   153   224    1
   230   154   155    1
   231   154   225    1
   232   154   226    1
   233   155   227    1
   234   155   228    1
   235   155   229    1
   236   156   157    2
   237   230   231    2
   238   230   232    1
   239   230   233    1
@<TRIPOS>SUBSTRUCTURE
     1 RES1      233 GROUP             0 ****  ****    0  
