@<TRIPOS>MOLECULE
ICIGOT_geomtry_0_nunpairedes_0_charge_3 Charge: 3 Unpaired_Electrons: 2 XTB_Unpaired_Electrons: 0 XTB_Charge: 3
   145   158     1     0     0
SMALL
NoCharges
****
Generated from Architector

@<TRIPOS>ATOM
     1 Tm1      -0.2303    0.0401    0.0564   Tm        1 RES1   0.0000
     2 C1        1.8207    2.1041    5.1737   C.3       1 RES1   0.0000
     3 C2        2.2759    3.1806    4.1988   C.3       1 RES1   0.0000
     4 N1        1.5425    3.1048    2.9395   N.am      1 RES1   0.0000
     5 C3        1.4898    2.0889    2.0901   C.2       1 RES1   0.0000
     6 O1        0.5476    1.9759    1.2681   O.2       1 RES1   0.0000
     7 C4        2.5937    1.0829    1.9211   C.ar      1 RES1   0.0000
     8 C5        3.9525    1.2515    2.1809   C.ar      1 RES1   0.0000
     9 C6        4.8328    0.2854    1.7201   C.ar      1 RES1   0.0000
    10 C7        4.3584   -0.8548    1.0913   C.ar      1 RES1   0.0000
    11 C8        2.9861   -0.9725    0.9166   C.ar      1 RES1   0.0000
    12 C9        2.2739   -2.2279    0.6192   C.ar      1 RES1   0.0000
    13 C10       2.8298   -3.4935    0.4654   C.ar      1 RES1   0.0000
    14 C11       1.9743   -4.5852    0.5557   C.ar      1 RES1   0.0000
    15 C12       0.6346   -4.4100    0.8922   C.ar      1 RES1   0.0000
    16 C13       0.1595   -3.1062    1.0476   C.ar      1 RES1   0.0000
    17 C14      -1.1591   -2.5526    1.5435   C.2       1 RES1   0.0000
    18 O2       -1.3046   -1.3036    1.4767   O.2       1 RES1   0.0000
    19 N2       -2.1018   -3.3354    2.0422   N.am      1 RES1   0.0000
    20 C15      -3.3735   -2.7145    2.4073   C.3       1 RES1   0.0000
    21 C16      -3.4358   -2.4341    3.8997   C.3       1 RES1   0.0000
    22 C17      -1.8367   -4.6432    2.5385   C.ar      1 RES1   0.0000
    23 C18      -2.6485   -5.6915    2.1147   C.ar      1 RES1   0.0000
    24 C19      -2.4517   -6.9655    2.6034   C.ar      1 RES1   0.0000
    25 C20      -1.4364   -7.2196    3.5187   C.ar      1 RES1   0.0000
    26 C21      -1.1880   -8.5914    4.0418   C.3       1 RES1   0.0000
    27 C22      -0.6526   -6.1543    3.9461   C.ar      1 RES1   0.0000
    28 C23      -0.8269   -4.8558    3.4860   C.ar      1 RES1   0.0000
    29 C24       0.0382   -3.7645    4.0484   C.3       1 RES1   0.0000
    30 N3        0.9617   -2.0734    0.8069   N.ar      1 RES1   0.0000
    31 N4        2.1502    0.0172    1.2591   N.ar      1 RES1   0.0000
    32 C25       0.9507    4.3393    2.4917   C.ar      1 RES1   0.0000
    33 C26       1.7974    5.1026    1.6887   C.ar      1 RES1   0.0000
    34 C27       1.4146    6.3556    1.2655   C.ar      1 RES1   0.0000
    35 C28       0.1664    6.8630    1.6166   C.ar      1 RES1   0.0000
    36 C29      -0.2215    8.2321    1.1617   C.3       1 RES1   0.0000
    37 C30      -0.6662    6.0747    2.3970   C.ar      1 RES1   0.0000
    38 C31      -0.3039    4.8097    2.8604   C.ar      1 RES1   0.0000
    39 C32      -1.2475    4.0390    3.7359   C.3       1 RES1   0.0000
    40 H1        2.4159    2.1817    6.0776   H         1 RES1   0.0000
    41 H2        1.9501    1.1083    4.7549   H         1 RES1   0.0000
    42 H3        0.7754    2.2446    5.4349   H         1 RES1   0.0000
    43 H4        3.3500    3.1076    4.0222   H         1 RES1   0.0000
    44 H5        2.0680    4.1730    4.6103   H         1 RES1   0.0000
    45 H6        4.3405    2.1176    2.6876   H         1 RES1   0.0000
    46 H7        5.8876    0.4228    1.8792   H         1 RES1   0.0000
    47 H8        5.0364   -1.6179    0.7511   H         1 RES1   0.0000
    48 H9        3.8859   -3.6251    0.3003   H         1 RES1   0.0000
    49 H10       2.3612   -5.5830    0.4111   H         1 RES1   0.0000
    50 H11      -0.0073   -5.2650    1.0230   H         1 RES1   0.0000
    51 H12      -4.1689   -3.3974    2.1080   H         1 RES1   0.0000
    52 H13      -3.4423   -1.7861    1.8357   H         1 RES1   0.0000
    53 H14      -3.3532   -3.3596    4.4626   H         1 RES1   0.0000
    54 H15      -4.3845   -1.9663    4.1371   H         1 RES1   0.0000
    55 H16      -2.6341   -1.7621    4.1960   H         1 RES1   0.0000
    56 H17      -3.4325   -5.5085    1.3950   H         1 RES1   0.0000
    57 H18      -3.0980   -7.7655    2.2863   H         1 RES1   0.0000
    58 H19      -1.8929   -9.3038    3.6206   H         1 RES1   0.0000
    59 H20      -1.2776   -8.5974    5.1272   H         1 RES1   0.0000
    60 H21      -0.1717   -8.9022    3.7995   H         1 RES1   0.0000
    61 H22       0.1074   -6.3499    4.6845   H         1 RES1   0.0000
    62 H23       1.0855   -3.9567    3.8086   H         1 RES1   0.0000
    63 H24      -0.0677   -3.7678    5.1327   H         1 RES1   0.0000
    64 H25      -0.2217   -2.7732    3.6777   H         1 RES1   0.0000
    65 H26       2.7768    4.7219    1.4276   H         1 RES1   0.0000
    66 H27       2.0991    6.9541    0.6865   H         1 RES1   0.0000
    67 H28       0.4775    8.9574    1.5789   H         1 RES1   0.0000
    68 H29      -1.2261    8.4980    1.4807   H         1 RES1   0.0000
    69 H30      -0.1548    8.2974    0.0745   H         1 RES1   0.0000
    70 H31      -1.6264    6.4702    2.6896   H         1 RES1   0.0000
    71 H32      -2.1752    4.5992    3.8435   H         1 RES1   0.0000
    72 H33      -0.8202    3.9020    4.7290   H         1 RES1   0.0000
    73 H34      -1.4605    3.0514    3.3215   H         1 RES1   0.0000
    74 C33      -3.8671   -3.2709   -1.5088   C.3       1 RES1   0.0000
    75 C34      -2.5656   -4.0456   -1.3620   C.3       1 RES1   0.0000
    76 N5       -1.4922   -3.5820   -2.2401   N.am      1 RES1   0.0000
    77 C35      -1.0100   -2.3602   -2.0517   C.2       1 RES1   0.0000
    78 O3       -1.4729   -1.5941   -1.1704   O.2       1 RES1   0.0000
    79 C36       0.1147   -1.8071   -2.8877   C.ar      1 RES1   0.0000
    80 C37       0.5237   -2.1839   -4.1668   C.ar      1 RES1   0.0000
    81 C38       1.5525   -1.4676   -4.7619   C.ar      1 RES1   0.0000
    82 C39       2.0319   -0.3120   -4.1666   C.ar      1 RES1   0.0000
    83 C40       1.4561    0.0871   -2.9660   C.ar      1 RES1   0.0000
    84 C41       1.3751    1.4967   -2.5447   C.ar      1 RES1   0.0000
    85 C42       2.0355    2.5598   -3.1503   C.ar      1 RES1   0.0000
    86 C43       1.5585    3.8387   -2.9016   C.ar      1 RES1   0.0000
    87 C44       0.4264    4.0319   -2.1191   C.ar      1 RES1   0.0000
    88 C45      -0.1874    2.9114   -1.5556   C.ar      1 RES1   0.0000
    89 C46      -1.4327    2.8243   -0.6997   C.2       1 RES1   0.0000
    90 O4       -1.6402    1.7436   -0.0946   O.2       1 RES1   0.0000
    91 N6       -2.2386    3.8722   -0.6280   N.am      1 RES1   0.0000
    92 C47      -3.2141    3.9958    0.4561   C.3       1 RES1   0.0000
    93 C48      -4.1671    2.8172    0.6017   C.3       1 RES1   0.0000
    94 C49      -2.3630    4.7560   -1.7393   C.ar      1 RES1   0.0000
    95 C50      -2.2461    6.1302   -1.5539   C.ar      1 RES1   0.0000
    96 C51      -2.4731    6.9885   -2.6122   C.ar      1 RES1   0.0000
    97 C52      -2.8191    6.4902   -3.8627   C.ar      1 RES1   0.0000
    98 C53      -3.0932    7.3908   -5.0165   C.3       1 RES1   0.0000
    99 C54      -2.9239    5.1120   -4.0220   C.ar      1 RES1   0.0000
   100 C55      -2.7005    4.2180   -2.9889   C.ar      1 RES1   0.0000
   101 C56      -2.9150    2.7450   -3.1986   C.3       1 RES1   0.0000
   102 N7        0.3333    1.6969   -1.7279   N.ar      1 RES1   0.0000
   103 N8        0.6116   -0.7148   -2.3005   N.ar      1 RES1   0.0000
   104 C57      -0.8284   -4.5462   -3.0509   C.ar      1 RES1   0.0000
   105 C58       0.5409   -4.7446   -2.8422   C.ar      1 RES1   0.0000
   106 C59       1.2653   -5.5637   -3.6802   C.ar      1 RES1   0.0000
   107 C60       0.6367   -6.2310   -4.7307   C.ar      1 RES1   0.0000
   108 C61       1.4246   -7.0382   -5.7055   C.3       1 RES1   0.0000
   109 C62      -0.7383   -6.1046   -4.8473   C.ar      1 RES1   0.0000
   110 C63      -1.5049   -5.2771   -4.0334   C.ar      1 RES1   0.0000
   111 C64      -2.9792   -5.1867   -4.2856   C.3       1 RES1   0.0000
   112 H35      -4.6043   -3.7095   -0.8438   H         1 RES1   0.0000
   113 H36      -4.2521   -3.3231   -2.5220   H         1 RES1   0.0000
   114 H37      -3.7251   -2.2279   -1.2405   H         1 RES1   0.0000
   115 H38      -2.7095   -5.1026   -1.5793   H         1 RES1   0.0000
   116 H39      -2.1945   -3.9422   -0.3391   H         1 RES1   0.0000
   117 H40       0.0586   -2.9977   -4.6952   H         1 RES1   0.0000
   118 H41       1.9142   -1.7711   -5.7302   H         1 RES1   0.0000
   119 H42       2.7612    0.3037   -4.6627   H         1 RES1   0.0000
   120 H43       2.8782    2.3977   -3.8014   H         1 RES1   0.0000
   121 H44       2.0509    4.6831   -3.3561   H         1 RES1   0.0000
   122 H45       0.0483    5.0270   -1.9532   H         1 RES1   0.0000
   123 H46      -3.7793    4.9095    0.2686   H         1 RES1   0.0000
   124 H47      -2.6277    4.1107    1.3700   H         1 RES1   0.0000
   125 H48      -4.7158    2.6401   -0.3190   H         1 RES1   0.0000
   126 H49      -4.8764    3.0556    1.3877   H         1 RES1   0.0000
   127 H50      -3.6254    1.9146    0.8731   H         1 RES1   0.0000
   128 H51      -1.9758    6.5235   -0.5836   H         1 RES1   0.0000
   129 H52      -2.4063    8.0533   -2.4645   H         1 RES1   0.0000
   130 H53      -2.9569    8.4335   -4.7408   H         1 RES1   0.0000
   131 H54      -4.1156    7.2405   -5.3620   H         1 RES1   0.0000
   132 H55      -2.4344    7.1431   -5.8485   H         1 RES1   0.0000
   133 H56      -3.2252    4.7345   -4.9844   H         1 RES1   0.0000
   134 H57      -3.2714    2.5725   -4.2114   H         1 RES1   0.0000
   135 H58      -3.6617    2.3750   -2.4956   H         1 RES1   0.0000
   136 H59      -2.0015    2.1634   -3.0553   H         1 RES1   0.0000
   137 H60       1.0408   -4.2456   -2.0197   H         1 RES1   0.0000
   138 H61       2.3269   -5.6784   -3.5373   H         1 RES1   0.0000
   139 H62       1.9947   -7.8089   -5.1881   H         1 RES1   0.0000
   140 H63       2.1321   -6.3915   -6.2272   H         1 RES1   0.0000
   141 H64       0.7801   -7.5102   -6.4431   H         1 RES1   0.0000
   142 H65      -1.2347   -6.6577   -5.6261   H         1 RES1   0.0000
   143 H66      -3.2270   -5.7564   -5.1785   H         1 RES1   0.0000
   144 H67      -3.2857   -4.1512   -4.4268   H         1 RES1   0.0000
   145 H68      -3.5517   -5.6092   -3.4598   H         1 RES1   0.0000
@<TRIPOS>BOND
     1     1     6    1
     2     1    18    1
     3     1    30    1
     4     1    31    1
     5     1    78    1
     6     1    90    1
     7     1   102    1
     8     1   103    1
     9     2     3    1
    10     2    40    1
    11     2    41    1
    12     2    42    1
    13     3     4    1
    14     3    43    1
    15     3    44    1
    16     4     5    1
    17     4    32    1
    18     5     6    2
    19     5     7    1
    20     7     8    1
    21     7    31    2
    22     8     9    2
    23     8    45    1
    24     9    10    1
    25     9    46    1
    26    10    11    2
    27    10    47    1
    28    11    12    1
    29    11    31    1
    30    12    13    1
    31    12    30    2
    32    13    14    2
    33    13    48    1
    34    14    15    1
    35    14    49    1
    36    15    16    2
    37    15    50    1
    38    16    17    1
    39    16    30    1
    40    17    18    2
    41    17    19    1
    42    19    20    1
    43    19    22    1
    44    20    21    1
    45    20    51    1
    46    20    52    1
    47    21    53    1
    48    21    54    1
    49    21    55    1
    50    22    23    1
    51    22    28    2
    52    23    24    2
    53    23    56    1
    54    24    25    1
    55    24    57    1
    56    25    26    1
    57    25    27    2
    58    26    58    1
    59    26    59    1
    60    26    60    1
    61    27    28    1
    62    27    61    1
    63    28    29    1
    64    29    62    1
    65    29    63    1
    66    29    64    1
    67    32    33    1
    68    32    38    2
    69    33    34    2
    70    33    65    1
    71    34    35    1
    72    34    66    1
    73    35    36    1
    74    35    37    2
    75    36    67    1
    76    36    68    1
    77    36    69    1
    78    37    38    1
    79    37    70    1
    80    38    39    1
    81    39    71    1
    82    39    72    1
    83    39    73    1
    84    74    75    1
    85    74   112    1
    86    74   113    1
    87    74   114    1
    88    75    76    1
    89    75   115    1
    90    75   116    1
    91    76    77    1
    92    76   104    1
    93    77    78    2
    94    77    79    1
    95    79    80    1
    96    79   103    2
    97    80    81    2
    98    80   117    1
    99    81    82    1
   100    81   118    1
   101    82    83    2
   102    82   119    1
   103    83    84    1
   104    83   103    1
   105    84    85    1
   106    84   102    2
   107    85    86    2
   108    85   120    1
   109    86    87    1
   110    86   121    1
   111    87    88    2
   112    87   122    1
   113    88    89    1
   114    88   102    1
   115    89    90    2
   116    89    91    1
   117    91    92    1
   118    91    94    1
   119    92    93    1
   120    92   123    1
   121    92   124    1
   122    93   125    1
   123    93   126    1
   124    93   127    1
   125    94    95    1
   126    94   100    2
   127    95    96    2
   128    95   128    1
   129    96    97    1
   130    96   129    1
   131    97    98    1
   132    97    99    2
   133    98   130    1
   134    98   131    1
   135    98   132    1
   136    99   100    1
   137    99   133    1
   138   100   101    1
   139   101   134    1
   140   101   135    1
   141   101   136    1
   142   104   105    1
   143   104   110    2
   144   105   106    2
   145   105   137    1
   146   106   107    1
   147   106   138    1
   148   107   108    1
   149   107   109    2
   150   108   139    1
   151   108   140    1
   152   108   141    1
   153   109   110    1
   154   109   142    1
   155   110   111    1
   156   111   143    1
   157   111   144    1
   158   111   145    1
@<TRIPOS>SUBSTRUCTURE
     1 RES1      145 GROUP             0 ****  ****    0  
