@<TRIPOS>MOLECULE
ICIGOT_geomtry_0_nunpairedes_0_charge_3 Charge: 3 Unpaired_Electrons: 2 XTB_Unpaired_Electrons: 0 XTB_Charge: 3
   173   176     1     0     0
SMALL
NoCharges
****
Generated from Architector

@<TRIPOS>ATOM
     1 Tm1      -0.0800    0.0429    0.0280   Tm        1 RES1   0.0000
     2 C1        4.6215   -4.0192   -2.8681   C.3       1 RES1   0.0000
     3 C2        3.7232   -4.6612   -3.9209   C.3       1 RES1   0.0000
     4 C3        2.5394   -3.7759   -4.3066   C.3       1 RES1   0.0000
     5 C4        1.5305   -4.4816   -5.2113   C.3       1 RES1   0.0000
     6 C5        0.3384   -3.5924   -5.5861   C.3       1 RES1   0.0000
     7 C6       -0.5726   -3.2988   -4.3932   C.3       1 RES1   0.0000
     8 C7       -1.8644   -2.5606   -4.7417   C.3       1 RES1   0.0000
     9 C8       -1.7125   -1.0575   -5.0472   C.3       1 RES1   0.0000
    10 N1       -0.7766   -0.3648   -4.1661   N.am      1 RES1   0.0000
    11 C9        0.5013    0.1012   -4.7218   C.3       1 RES1   0.0000
    12 C10       0.5081    1.6302   -4.8455   C.3       1 RES1   0.0000
    13 C11       1.7201    2.1279   -5.6232   C.3       1 RES1   0.0000
    14 C12      -1.0116   -0.1029   -2.8990   C.2       1 RES1   0.0000
    15 O1       -0.1129    0.3207   -2.1255   O.2       1 RES1   0.0000
    16 C13      -2.4194   -0.2575   -2.2999   C.3       1 RES1   0.0000
    17 O2       -2.2798    0.0474   -0.9174   O.3       1 RES1   0.0000
    18 C14      -3.3576    0.7179   -0.2630   C.3       1 RES1   0.0000
    19 C15      -2.6793    1.6608    0.7529   C.2       1 RES1   0.0000
    20 O3       -1.4444    1.4941    0.9278   O.2       1 RES1   0.0000
    21 N2       -3.3397    2.6502    1.3181   N.am      1 RES1   0.0000
    22 C16      -2.5549    3.7606    1.8537   C.3       1 RES1   0.0000
    23 C17      -1.8474    4.5250    0.7303   C.3       1 RES1   0.0000
    24 C18      -2.8080    5.1131   -0.2963   C.3       1 RES1   0.0000
    25 C19      -4.7888    2.6998    1.4439   C.3       1 RES1   0.0000
    26 C20      -5.2717    2.9997    2.8778   C.3       1 RES1   0.0000
    27 C21      -4.4788    2.3425    4.0100   C.3       1 RES1   0.0000
    28 C22      -4.2619    0.8358    3.8926   C.3       1 RES1   0.0000
    29 C23      -5.5609    0.0318    3.8900   C.3       1 RES1   0.0000
    30 C24      -5.3283   -1.4774    3.9673   C.3       1 RES1   0.0000
    31 C25      -4.5403   -2.0214    2.7772   C.3       1 RES1   0.0000
    32 C26      -4.3974   -3.5339    2.8518   C.3       1 RES1   0.0000
    33 H1        5.3747   -4.7291   -2.5395   H         1 RES1   0.0000
    34 H2        4.0419   -3.7090   -1.9953   H         1 RES1   0.0000
    35 H3        5.1371   -3.1508   -3.2673   H         1 RES1   0.0000
    36 H4        3.3442   -5.6056   -3.5309   H         1 RES1   0.0000
    37 H5        4.3131   -4.8839   -4.8088   H         1 RES1   0.0000
    38 H6        2.9010   -2.8927   -4.8321   H         1 RES1   0.0000
    39 H7        2.0416   -3.4474   -3.3842   H         1 RES1   0.0000
    40 H8        1.1718   -5.3874   -4.7187   H         1 RES1   0.0000
    41 H9        2.0388   -4.7843   -6.1286   H         1 RES1   0.0000
    42 H10      -0.2385   -4.1059   -6.3555   H         1 RES1   0.0000
    43 H11       0.7161   -2.6652   -6.0191   H         1 RES1   0.0000
    44 H12      -0.0294   -2.7127   -3.6495   H         1 RES1   0.0000
    45 H13      -0.8427   -4.2572   -3.9448   H         1 RES1   0.0000
    46 H14      -2.5722   -2.7004   -3.9239   H         1 RES1   0.0000
    47 H15      -2.3088   -3.0246   -5.6215   H         1 RES1   0.0000
    48 H16      -2.6998   -0.5920   -4.9868   H         1 RES1   0.0000
    49 H17      -1.3512   -0.9288   -6.0660   H         1 RES1   0.0000
    50 H18       0.6438   -0.3490   -5.7018   H         1 RES1   0.0000
    51 H19       1.3197   -0.2160   -4.0675   H         1 RES1   0.0000
    52 H20       0.5086    2.0672   -3.8446   H         1 RES1   0.0000
    53 H21      -0.3978    1.9532   -5.3609   H         1 RES1   0.0000
    54 H22       2.6432    1.8039   -5.1530   H         1 RES1   0.0000
    55 H23       1.7156    3.2139   -5.6611   H         1 RES1   0.0000
    56 H24       1.7031    1.7615   -6.6457   H         1 RES1   0.0000
    57 H25      -2.7955   -1.2818   -2.4175   H         1 RES1   0.0000
    58 H26      -3.0924    0.4432   -2.8120   H         1 RES1   0.0000
    59 H27      -4.0081   -0.0219    0.2225   H         1 RES1   0.0000
    60 H28      -3.9341    1.3200   -0.9713   H         1 RES1   0.0000
    61 H29      -1.8026    3.3728    2.5455   H         1 RES1   0.0000
    62 H30      -3.2294    4.4266    2.3849   H         1 RES1   0.0000
    63 H31      -1.1300    3.8641    0.2366   H         1 RES1   0.0000
    64 H32      -1.2915    5.3343    1.2031   H         1 RES1   0.0000
    65 H33      -3.3257    4.3370   -0.8576   H         1 RES1   0.0000
    66 H34      -2.2637    5.7292   -1.0076   H         1 RES1   0.0000
    67 H35      -3.5469    5.7411    0.1941   H         1 RES1   0.0000
    68 H36      -5.1868    1.7349    1.1331   H         1 RES1   0.0000
    69 H37      -5.1883    3.4722    0.7802   H         1 RES1   0.0000
    70 H38      -6.3121    2.6773    2.9271   H         1 RES1   0.0000
    71 H39      -5.2763    4.0749    3.0585   H         1 RES1   0.0000
    72 H40      -5.0137    2.5362    4.9404   H         1 RES1   0.0000
    73 H41      -3.5020    2.8166    4.0969   H         1 RES1   0.0000
    74 H42      -3.6668    0.5210    4.7531   H         1 RES1   0.0000
    75 H43      -3.6762    0.6102    2.9964   H         1 RES1   0.0000
    76 H44      -6.1459    0.2555    2.9962   H         1 RES1   0.0000
    77 H45      -6.1555    0.3290    4.7532   H         1 RES1   0.0000
    78 H46      -6.2936   -1.9842    4.0076   H         1 RES1   0.0000
    79 H47      -4.7954   -1.7195    4.8886   H         1 RES1   0.0000
    80 H48      -3.5458   -1.5548    2.7661   H         1 RES1   0.0000
    81 H49      -5.0522   -1.7456    1.8505   H         1 RES1   0.0000
    82 H50      -3.8651   -3.8248    3.7529   H         1 RES1   0.0000
    83 H51      -3.8694   -3.9294    1.9878   H         1 RES1   0.0000
    84 H52      -5.3789   -3.9947    2.8842   H         1 RES1   0.0000
    85 C27      -4.0648   -5.7759   -0.3638   C.3       1 RES1   0.0000
    86 C28      -2.9469   -6.6684    0.1629   C.3       1 RES1   0.0000
    87 C29      -1.9597   -5.9080    1.0461   C.3       1 RES1   0.0000
    88 C30      -0.8321   -6.8007    1.5612   C.3       1 RES1   0.0000
    89 C31       0.2036   -6.0421    2.3961   C.3       1 RES1   0.0000
    90 C32       1.0323   -5.0616    1.5648   C.3       1 RES1   0.0000
    91 C33       2.3159   -4.6139    2.2613   C.3       1 RES1   0.0000
    92 C34       2.1541   -3.5676    3.3768   C.3       1 RES1   0.0000
    93 N3        1.1780   -2.5204    3.1019   N.am      1 RES1   0.0000
    94 C35      -0.0470   -2.4922    3.9095   C.3       1 RES1   0.0000
    95 C36      -0.1228   -1.3102    4.8831   C.3       1 RES1   0.0000
    96 C37      -1.3483   -1.4359    5.7831   C.3       1 RES1   0.0000
    97 C38       1.2995   -1.6216    2.1455   C.2       1 RES1   0.0000
    98 O4        0.3952   -0.7867    1.9055   O.2       1 RES1   0.0000
    99 C39       2.5708   -1.5393    1.2899   C.3       1 RES1   0.0000
   100 O5        2.4236   -0.5074    0.3187   O.3       1 RES1   0.0000
   101 C40       3.3250    0.6016    0.4359   C.3       1 RES1   0.0000
   102 C41       2.5060    1.9012    0.4063   C.2       1 RES1   0.0000
   103 O6        1.2672    1.7762    0.2365   O.2       1 RES1   0.0000
   104 N4        3.0832    3.0694    0.6012   N.am      1 RES1   0.0000
   105 C42       2.2178    4.2159    0.8713   C.3       1 RES1   0.0000
   106 C43       1.4751    4.0714    2.2015   C.3       1 RES1   0.0000
   107 C44       2.4047    3.9821    3.4054   C.3       1 RES1   0.0000
   108 C45       4.5220    3.3110    0.6081   C.3       1 RES1   0.0000
   109 C46       4.9807    4.5036   -0.2597   C.3       1 RES1   0.0000
   110 C47       4.2757    4.6738   -1.6071   C.3       1 RES1   0.0000
   111 C48       4.1884    3.4153   -2.4665   C.3       1 RES1   0.0000
   112 C49       5.5499    2.8251   -2.8307   C.3       1 RES1   0.0000
   113 C50       5.4413    1.6812   -3.8389   C.3       1 RES1   0.0000
   114 C51       4.6506    0.4844   -3.3123   C.3       1 RES1   0.0000
   115 C52       4.4956   -0.5876   -4.3798   C.3       1 RES1   0.0000
   116 H53      -4.7080   -6.3363   -1.0353   H         1 RES1   0.0000
   117 H54      -3.6606   -4.9244   -0.9150   H         1 RES1   0.0000
   118 H55      -4.6813   -5.4053    0.4509   H         1 RES1   0.0000
   119 H56      -2.4098   -7.1063   -0.6791   H         1 RES1   0.0000
   120 H57      -3.3815   -7.4859    0.7360   H         1 RES1   0.0000
   121 H58      -2.4889   -5.4944    1.9059   H         1 RES1   0.0000
   122 H59      -1.5367   -5.0764    0.4655   H         1 RES1   0.0000
   123 H60      -0.3357   -7.2818    0.7160   H         1 RES1   0.0000
   124 H61      -1.2655   -7.5912    2.1765   H         1 RES1   0.0000
   125 H62       0.8776   -6.7784    2.8348   H         1 RES1   0.0000
   126 H63      -0.3052   -5.5297    3.2147   H         1 RES1   0.0000
   127 H64       0.4353   -4.1897    1.2836   H         1 RES1   0.0000
   128 H65       1.3216   -5.5760    0.6473   H         1 RES1   0.0000
   129 H66       3.0151   -4.2507    1.5110   H         1 RES1   0.0000
   130 H67       2.7867   -5.4844    2.7163   H         1 RES1   0.0000
   131 H68       3.1294   -3.1163    3.5764   H         1 RES1   0.0000
   132 H69       1.8331   -4.0570    4.2938   H         1 RES1   0.0000
   133 H70      -0.1030   -3.4249    4.4667   H         1 RES1   0.0000
   134 H71      -0.9042   -2.4393    3.2309   H         1 RES1   0.0000
   135 H72      -0.1749   -0.3762    4.3218   H         1 RES1   0.0000
   136 H73       0.7699   -1.2827    5.5071   H         1 RES1   0.0000
   137 H74      -2.2618   -1.5162    5.1993   H         1 RES1   0.0000
   138 H75      -1.4288   -0.5651    6.4271   H         1 RES1   0.0000
   139 H76      -1.2733   -2.3122    6.4197   H         1 RES1   0.0000
   140 H77       2.7301   -2.4802    0.7462   H         1 RES1   0.0000
   141 H78       3.4336   -1.3699    1.9464   H         1 RES1   0.0000
   142 H79       4.0321    0.5586   -0.4014   H         1 RES1   0.0000
   143 H80       3.8751    0.5554    1.3800   H         1 RES1   0.0000
   144 H81       1.4887    4.3124    0.0631   H         1 RES1   0.0000
   145 H82       2.8413    5.1044    0.8993   H         1 RES1   0.0000
   146 H83       0.8264    3.1933    2.1633   H         1 RES1   0.0000
   147 H84       0.8469    4.9564    2.2994   H         1 RES1   0.0000
   148 H85       2.9993    3.0708    3.3915   H         1 RES1   0.0000
   149 H86       1.8257    3.9841    4.3251   H         1 RES1   0.0000
   150 H87       3.0747    4.8365    3.4288   H         1 RES1   0.0000
   151 H88       5.0287    2.4122    0.2609   H         1 RES1   0.0000
   152 H89       4.8384    3.5088    1.6374   H         1 RES1   0.0000
   153 H90       6.0488    4.3639   -0.4292   H         1 RES1   0.0000
   154 H91       4.8847    5.4407    0.2905   H         1 RES1   0.0000
   155 H92       4.8143    5.4384   -2.1687   H         1 RES1   0.0000
   156 H93       3.2642    5.0470   -1.4470   H         1 RES1   0.0000
   157 H94       3.6719    3.6780   -3.3923   H         1 RES1   0.0000
   158 H95       3.5761    2.6646   -1.9611   H         1 RES1   0.0000
   159 H96       6.0663    2.4672   -1.9377   H         1 RES1   0.0000
   160 H97       6.1643    3.6106   -3.2699   H         1 RES1   0.0000
   161 H98       6.4435    1.3455   -4.1120   H         1 RES1   0.0000
   162 H99       4.9659    2.0503   -4.7493   H         1 RES1   0.0000
   163 H100      3.6546    0.8033   -2.9854   H         1 RES1   0.0000
   164 H101      5.1696    0.0625   -2.4452   H         1 RES1   0.0000
   165 H102      4.0116   -0.1848   -5.2645   H         1 RES1   0.0000
   166 H103      3.8972   -1.4133   -4.0073   H         1 RES1   0.0000
   167 H104      5.4664   -0.9687   -4.6769   H         1 RES1   0.0000
   168 O7       -1.6640   -2.0111    0.7245   O.3       1 RES1   0.0000
   169 H105     -1.9458   -2.8840    0.4116   H         1 RES1   0.0000
   170 H106     -2.0622   -1.9307    1.6060   H         1 RES1   0.0000
   171 O8        0.6565   -2.1557   -1.1369   O.3       1 RES1   0.0000
   172 H107      1.4882   -2.1097   -1.6388   H         1 RES1   0.0000
   173 H108      0.2153   -2.9570   -1.4565   H         1 RES1   0.0000
@<TRIPOS>BOND
     1     1    15    1
     2     1    17    1
     3     1    20    1
     4     1    98    1
     5     1   100    1
     6     1   103    1
     7     1   168    1
     8     1   171    1
     9     2     3    1
    10     2    33    1
    11     2    34    1
    12     2    35    1
    13     3     4    1
    14     3    36    1
    15     3    37    1
    16     4     5    1
    17     4    38    1
    18     4    39    1
    19     5     6    1
    20     5    40    1
    21     5    41    1
    22     6     7    1
    23     6    42    1
    24     6    43    1
    25     7     8    1
    26     7    44    1
    27     7    45    1
    28     8     9    1
    29     8    46    1
    30     8    47    1
    31     9    10    1
    32     9    48    1
    33     9    49    1
    34    10    11    1
    35    10    14    1
    36    11    12    1
    37    11    50    1
    38    11    51    1
    39    12    13    1
    40    12    52    1
    41    12    53    1
    42    13    54    1
    43    13    55    1
    44    13    56    1
    45    14    15    2
    46    14    16    1
    47    16    17    1
    48    16    57    1
    49    16    58    1
    50    17    18    1
    51    18    19    1
    52    18    59    1
    53    18    60    1
    54    19    20    2
    55    19    21    1
    56    21    22    1
    57    21    25    1
    58    22    23    1
    59    22    61    1
    60    22    62    1
    61    23    24    1
    62    23    63    1
    63    23    64    1
    64    24    65    1
    65    24    66    1
    66    24    67    1
    67    25    26    1
    68    25    68    1
    69    25    69    1
    70    26    27    1
    71    26    70    1
    72    26    71    1
    73    27    28    1
    74    27    72    1
    75    27    73    1
    76    28    29    1
    77    28    74    1
    78    28    75    1
    79    29    30    1
    80    29    76    1
    81    29    77    1
    82    30    31    1
    83    30    78    1
    84    30    79    1
    85    31    32    1
    86    31    80    1
    87    31    81    1
    88    32    82    1
    89    32    83    1
    90    32    84    1
    91    85    86    1
    92    85   116    1
    93    85   117    1
    94    85   118    1
    95    86    87    1
    96    86   119    1
    97    86   120    1
    98    87    88    1
    99    87   121    1
   100    87   122    1
   101    88    89    1
   102    88   123    1
   103    88   124    1
   104    89    90    1
   105    89   125    1
   106    89   126    1
   107    90    91    1
   108    90   127    1
   109    90   128    1
   110    91    92    1
   111    91   129    1
   112    91   130    1
   113    92    93    1
   114    92   131    1
   115    92   132    1
   116    93    94    1
   117    93    97    1
   118    94    95    1
   119    94   133    1
   120    94   134    1
   121    95    96    1
   122    95   135    1
   123    95   136    1
   124    96   137    1
   125    96   138    1
   126    96   139    1
   127    97    98    2
   128    97    99    1
   129    99   100    1
   130    99   140    1
   131    99   141    1
   132   100   101    1
   133   101   102    1
   134   101   142    1
   135   101   143    1
   136   102   103    2
   137   102   104    1
   138   104   105    1
   139   104   108    1
   140   105   106    1
   141   105   144    1
   142   105   145    1
   143   106   107    1
   144   106   146    1
   145   106   147    1
   146   107   148    1
   147   107   149    1
   148   107   150    1
   149   108   109    1
   150   108   151    1
   151   108   152    1
   152   109   110    1
   153   109   153    1
   154   109   154    1
   155   110   111    1
   156   110   155    1
   157   110   156    1
   158   111   112    1
   159   111   157    1
   160   111   158    1
   161   112   113    1
   162   112   159    1
   163   112   160    1
   164   113   114    1
   165   113   161    1
   166   113   162    1
   167   114   115    1
   168   114   163    1
   169   114   164    1
   170   115   165    1
   171   115   166    1
   172   115   167    1
   173   168   169    1
   174   168   170    1
   175   171   172    1
   176   171   173    1
@<TRIPOS>SUBSTRUCTURE
     1 RES1      173 GROUP             0 ****  ****    0  
