@<TRIPOS>MOLECULE
ICIGOT_geomtry_0_nunpairedes_0_charge_3 Charge: 3 Unpaired_Electrons: 2 XTB_Unpaired_Electrons: 0 XTB_Charge: 3
   233   236     1     0     0
SMALL
NoCharges
****
Generated from Architector

@<TRIPOS>ATOM
     1 Tm1       0.0248   -0.1874   -0.1129   Tm        1 RES1   0.0000
     2 C1       -2.9553    4.7179   -3.1918   C.3       1 RES1   0.0000
     3 C2       -1.9384    5.5687   -2.4418   C.3       1 RES1   0.0000
     4 C3       -1.4154    4.8934   -1.1725   C.3       1 RES1   0.0000
     5 C4       -2.4929    4.7676   -0.0953   C.3       1 RES1   0.0000
     6 C5       -1.9445    4.3114    1.2640   C.3       1 RES1   0.0000
     7 C6       -1.6372    5.4952    2.2056   C.3       1 RES1   0.0000
     8 C7       -0.6221    6.5052    1.6870   C.3       1 RES1   0.0000
     9 C8       -2.9695    3.4628    2.0327   C.3       1 RES1   0.0000
    10 N1       -3.4068    2.1427    1.5372   N.am      1 RES1   0.0000
    11 C9       -4.6339    1.6971    2.2147   C.3       1 RES1   0.0000
    12 C10      -6.0476    2.0612    1.6848   C.3       1 RES1   0.0000
    13 C11      -6.5202    3.4964    2.0026   C.3       1 RES1   0.0000
    14 C12      -6.2445    4.6017    0.9897   C.3       1 RES1   0.0000
    15 C13      -6.3890    1.5558    0.2744   C.3       1 RES1   0.0000
    16 C14      -5.6313    2.1033   -0.9368   C.3       1 RES1   0.0000
    17 C15      -6.0217    1.3247   -2.1959   C.3       1 RES1   0.0000
    18 C16      -5.3335    1.8668   -3.4442   C.3       1 RES1   0.0000
    19 C17      -2.6546    1.3083    0.8315   C.2       1 RES1   0.0000
    20 O1       -1.4983    1.5446    0.4256   O.2       1 RES1   0.0000
    21 C18      -3.2192   -0.0875    0.4767   C.3       1 RES1   0.0000
    22 O2       -2.3358   -0.7471   -0.4281   O.3       1 RES1   0.0000
    23 C19      -2.7844   -0.8516   -1.7809   C.3       1 RES1   0.0000
    24 C20      -1.6740   -0.3815   -2.7338   C.2       1 RES1   0.0000
    25 O3       -0.6669    0.1466   -2.2019   O.2       1 RES1   0.0000
    26 N2       -1.8465   -0.5918   -4.0271   N.am      1 RES1   0.0000
    27 C21      -3.1414   -1.0301   -4.5635   C.3       1 RES1   0.0000
    28 C22      -3.5149   -2.5256   -4.4782   C.3       1 RES1   0.0000
    29 C23      -4.9078   -2.6755   -5.1144   C.3       1 RES1   0.0000
    30 C24      -5.5793   -4.0027   -4.7798   C.3       1 RES1   0.0000
    31 C25      -2.4892   -3.4512   -5.1396   C.3       1 RES1   0.0000
    32 C26      -1.3478   -3.8726   -4.2125   C.3       1 RES1   0.0000
    33 C27      -1.7425   -4.8911   -3.1416   C.3       1 RES1   0.0000
    34 C28      -0.5233   -5.4112   -2.3853   C.3       1 RES1   0.0000
    35 C29      -0.8910   -0.2488   -5.0955   C.3       1 RES1   0.0000
    36 C30       0.6028   -0.1147   -4.7674   C.3       1 RES1   0.0000
    37 C31       0.9479    1.3576   -4.4784   C.3       1 RES1   0.0000
    38 C32       2.3635    1.5670   -3.9617   C.3       1 RES1   0.0000
    39 C33       1.4403   -0.6056   -5.9651   C.3       1 RES1   0.0000
    40 C34       1.3033   -2.0688   -6.3987   C.3       1 RES1   0.0000
    41 C35       1.8031   -3.1177   -5.4017   C.3       1 RES1   0.0000
    42 C36       3.3128   -3.1112   -5.2098   C.3       1 RES1   0.0000
    43 H1       -3.2056    5.1765   -4.1442   H         1 RES1   0.0000
    44 H2       -3.8730    4.6115   -2.6194   H         1 RES1   0.0000
    45 H3       -2.5489    3.7264   -3.3893   H         1 RES1   0.0000
    46 H4       -2.3935    6.5262   -2.1798   H         1 RES1   0.0000
    47 H5       -1.0949    5.7796   -3.1022   H         1 RES1   0.0000
    48 H6       -0.5872    5.4888   -0.7903   H         1 RES1   0.0000
    49 H7       -1.0305    3.8956   -1.4161   H         1 RES1   0.0000
    50 H8       -3.2395    4.0537   -0.4422   H         1 RES1   0.0000
    51 H9       -2.9893    5.7308    0.0210   H         1 RES1   0.0000
    52 H10      -1.0265    3.7421    1.0870   H         1 RES1   0.0000
    53 H11      -1.2758    5.1000    3.1615   H         1 RES1   0.0000
    54 H12      -2.5691    6.0217    2.4192   H         1 RES1   0.0000
    55 H13       0.3033    6.0154    1.3956   H         1 RES1   0.0000
    56 H14      -0.3986    7.2205    2.4737   H         1 RES1   0.0000
    57 H15      -1.0085    7.0607    0.8392   H         1 RES1   0.0000
    58 H16      -3.8809    4.0580    2.1130   H         1 RES1   0.0000
    59 H17      -2.5977    3.2994    3.0520   H         1 RES1   0.0000
    60 H18      -4.5805    2.0978    3.2328   H         1 RES1   0.0000
    61 H19      -4.5940    0.6099    2.3066   H         1 RES1   0.0000
    62 H20      -6.6717    1.4416    2.3433   H         1 RES1   0.0000
    63 H21      -6.1018    3.7784    2.9724   H         1 RES1   0.0000
    64 H22      -7.6024    3.4506    2.1442   H         1 RES1   0.0000
    65 H23      -5.2247    4.5940    0.6212   H         1 RES1   0.0000
    66 H24      -6.4259    5.5637    1.4598   H         1 RES1   0.0000
    67 H25      -6.9199    4.5269    0.1445   H         1 RES1   0.0000
    68 H26      -7.4482    1.7638    0.1146   H         1 RES1   0.0000
    69 H27      -6.2938    0.4634    0.2793   H         1 RES1   0.0000
    70 H28      -4.5477    2.0604   -0.7937   H         1 RES1   0.0000
    71 H29      -5.8938    3.1436   -1.1047   H         1 RES1   0.0000
    72 H30      -7.1009    1.3959   -2.3333   H         1 RES1   0.0000
    73 H31      -5.7964    0.2583   -2.0687   H         1 RES1   0.0000
    74 H32      -5.6357    2.8954   -3.6196   H         1 RES1   0.0000
    75 H33      -5.6172    1.2861   -4.3189   H         1 RES1   0.0000
    76 H34      -4.2479    1.8518   -3.3405   H         1 RES1   0.0000
    77 H35      -4.2277   -0.0133    0.0644   H         1 RES1   0.0000
    78 H36      -3.2506   -0.7181    1.3747   H         1 RES1   0.0000
    79 H37      -3.6886   -0.2584   -1.9539   H         1 RES1   0.0000
    80 H38      -3.0118   -1.9051   -1.9740   H         1 RES1   0.0000
    81 H39      -3.1632   -0.7483   -5.6171   H         1 RES1   0.0000
    82 H40      -3.9308   -0.4501   -4.0800   H         1 RES1   0.0000
    83 H41      -3.6168   -2.8401   -3.4376   H         1 RES1   0.0000
    84 H42      -4.8241   -2.5752   -6.1973   H         1 RES1   0.0000
    85 H43      -5.5489   -1.8679   -4.7517   H         1 RES1   0.0000
    86 H44      -5.0596   -4.8417   -5.2289   H         1 RES1   0.0000
    87 H45      -6.5941   -4.0022   -5.1627   H         1 RES1   0.0000
    88 H46      -5.6231   -4.1641   -3.7049   H         1 RES1   0.0000
    89 H47      -2.0827   -2.9687   -6.0298   H         1 RES1   0.0000
    90 H48      -2.9922   -4.3559   -5.4779   H         1 RES1   0.0000
    91 H49      -0.9209   -2.9838   -3.7342   H         1 RES1   0.0000
    92 H50      -0.5729   -4.3317   -4.8250   H         1 RES1   0.0000
    93 H51      -2.2332   -5.7383   -3.6202   H         1 RES1   0.0000
    94 H52      -2.4528   -4.4605   -2.4311   H         1 RES1   0.0000
    95 H53       0.1776   -5.8800   -3.0713   H         1 RES1   0.0000
    96 H54      -0.8188   -6.1578   -1.6534   H         1 RES1   0.0000
    97 H55      -0.0010   -4.6054   -1.8643   H         1 RES1   0.0000
    98 H56      -1.2413    0.6830   -5.5528   H         1 RES1   0.0000
    99 H57      -1.0050   -1.0453   -5.8303   H         1 RES1   0.0000
   100 H58       0.8414   -0.7116   -3.8826   H         1 RES1   0.0000
   101 H59       0.2528    1.7570   -3.7358   H         1 RES1   0.0000
   102 H60       0.8164    1.9336   -5.3964   H         1 RES1   0.0000
   103 H61       2.5179    0.9961   -3.0453   H         1 RES1   0.0000
   104 H62       2.5268    2.6162   -3.7451   H         1 RES1   0.0000
   105 H63       3.1060    1.2770   -4.6970   H         1 RES1   0.0000
   106 H64       2.4892   -0.4292   -5.7390   H         1 RES1   0.0000
   107 H65       1.1914    0.0197   -6.8246   H         1 RES1   0.0000
   108 H66       1.8841   -2.1841   -7.3152   H         1 RES1   0.0000
   109 H67       0.2688   -2.3045   -6.6603   H         1 RES1   0.0000
   110 H68       1.5159   -4.1006   -5.7803   H         1 RES1   0.0000
   111 H69       1.3109   -2.9813   -4.4344   H         1 RES1   0.0000
   112 H70       3.8148   -3.1779   -6.1697   H         1 RES1   0.0000
   113 H71       3.6257   -3.9716   -4.6223   H         1 RES1   0.0000
   114 H72       3.6406   -2.2038   -4.7129   H         1 RES1   0.0000
   115 C37       3.2575   -2.8782    4.7638   C.3       1 RES1   0.0000
   116 C38       2.1728   -3.9372    4.6170   C.3       1 RES1   0.0000
   117 C39       0.9189   -3.4164    3.9074   C.3       1 RES1   0.0000
   118 C40       0.1161   -2.4515    4.7822   C.3       1 RES1   0.0000
   119 C41      -1.2750   -2.1090    4.2292   C.3       1 RES1   0.0000
   120 C42      -2.3892   -3.0190    4.7775   C.3       1 RES1   0.0000
   121 C43      -2.2039   -4.5019    4.4915   C.3       1 RES1   0.0000
   122 C44      -1.7061   -0.6819    4.6026   C.3       1 RES1   0.0000
   123 N3       -0.8582    0.4580    4.2185   N.am      1 RES1   0.0000
   124 C45      -1.1123    1.6441    5.0507   C.3       1 RES1   0.0000
   125 C46      -0.3986    1.9246    6.4009   C.3       1 RES1   0.0000
   126 C47      -0.8275    1.0591    7.6016   C.3       1 RES1   0.0000
   127 C48      -0.1161   -0.2666    7.8419   C.3       1 RES1   0.0000
   128 C49       1.1067    2.2029    6.2930   C.3       1 RES1   0.0000
   129 C50       2.0429    1.0745    5.8619   C.3       1 RES1   0.0000
   130 C51       3.4012    1.6507    5.4553   C.3       1 RES1   0.0000
   131 C52       4.3768    0.5757    4.9919   C.3       1 RES1   0.0000
   132 C53      -0.2739    0.5277    3.0323   C.2       1 RES1   0.0000
   133 O4       -0.3436   -0.3801    2.1669   O.2       1 RES1   0.0000
   134 C54       0.5806    1.7513    2.6766   C.3       1 RES1   0.0000
   135 O5        1.0893    1.5491    1.3637   O.3       1 RES1   0.0000
   136 C55       2.4574    1.8899    1.1724   C.3       1 RES1   0.0000
   137 C56       3.0947    0.7547    0.3590   C.2       1 RES1   0.0000
   138 O6        2.2958    0.0275   -0.2945   O.2       1 RES1   0.0000
   139 N4        4.3933    0.5900    0.4190   N.am      1 RES1   0.0000
   140 C57       5.2420    1.4459    1.2587   C.3       1 RES1   0.0000
   141 C58       5.4475    2.8996    0.7945   C.3       1 RES1   0.0000
   142 C59       6.4197    3.5776    1.7752   C.3       1 RES1   0.0000
   143 C60       6.3933    5.0961    1.6449   C.3       1 RES1   0.0000
   144 C61       5.9553    2.9755   -0.6527   C.3       1 RES1   0.0000
   145 C62       4.8487    3.2634   -1.6683   C.3       1 RES1   0.0000
   146 C63       4.3575    4.7097   -1.5918   C.3       1 RES1   0.0000
   147 C64       3.2821    5.0154   -2.6266   C.3       1 RES1   0.0000
   148 C65       5.1778   -0.4855   -0.2058   C.3       1 RES1   0.0000
   149 C66       4.5598   -1.4154   -1.2553   C.3       1 RES1   0.0000
   150 C67       3.8497   -2.5917   -0.5498   C.3       1 RES1   0.0000
   151 C68       3.4433   -3.7462   -1.4659   C.3       1 RES1   0.0000
   152 C69       5.6956   -1.9308   -2.1653   C.3       1 RES1   0.0000
   153 C70       6.4810   -0.8690   -2.9445   C.3       1 RES1   0.0000
   154 C71       5.6542   -0.1450   -4.0188   C.3       1 RES1   0.0000
   155 C72       5.9631   -0.6592   -5.4208   C.3       1 RES1   0.0000
   156 H73       4.1672   -3.3212    5.1588   H         1 RES1   0.0000
   157 H74       2.9442   -2.0903    5.4430   H         1 RES1   0.0000
   158 H75       3.4902   -2.4355    3.7954   H         1 RES1   0.0000
   159 H76       1.8980   -4.3117    5.6047   H         1 RES1   0.0000
   160 H77       2.5748   -4.7806    4.0524   H         1 RES1   0.0000
   161 H78       0.2987   -4.2740    3.6492   H         1 RES1   0.0000
   162 H79       1.2114   -2.9067    2.9803   H         1 RES1   0.0000
   163 H80       0.6988   -1.5367    4.8902   H         1 RES1   0.0000
   164 H81       0.0057   -2.8888    5.7743   H         1 RES1   0.0000
   165 H82      -1.2569   -2.2081    3.1381   H         1 RES1   0.0000
   166 H83      -3.3405   -2.6961    4.3448   H         1 RES1   0.0000
   167 H84      -2.4654   -2.8755    5.8558   H         1 RES1   0.0000
   168 H85      -2.0513   -4.6795    3.4299   H         1 RES1   0.0000
   169 H86      -3.0944   -5.0406    4.7984   H         1 RES1   0.0000
   170 H87      -1.3659   -4.9115    5.0439   H         1 RES1   0.0000
   171 H88      -1.7797   -0.6365    5.6898   H         1 RES1   0.0000
   172 H89      -2.7049   -0.4956    4.1883   H         1 RES1   0.0000
   173 H90      -2.1851    1.6128    5.2742   H         1 RES1   0.0000
   174 H91      -0.9311    2.5234    4.4304   H         1 RES1   0.0000
   175 H92      -0.8304    2.9065    6.6385   H         1 RES1   0.0000
   176 H93      -1.9047    0.8893    7.5224   H         1 RES1   0.0000
   177 H94      -0.6827    1.6726    8.4938   H         1 RES1   0.0000
   178 H95      -0.0097   -0.8557    6.9390   H         1 RES1   0.0000
   179 H96      -0.6834   -0.8465    8.5640   H         1 RES1   0.0000
   180 H97       0.8680   -0.1043    8.2666   H         1 RES1   0.0000
   181 H98       1.4405    2.5593    7.2682   H         1 RES1   0.0000
   182 H99       1.2369    3.0401    5.5986   H         1 RES1   0.0000
   183 H100      1.6151    0.4983    5.0365   H         1 RES1   0.0000
   184 H101      2.2080    0.3845    6.6858   H         1 RES1   0.0000
   185 H102      3.8307    2.1705    6.3123   H         1 RES1   0.0000
   186 H103      3.2698    2.4040    4.6681   H         1 RES1   0.0000
   187 H104      4.5469   -0.1442    5.7876   H         1 RES1   0.0000
   188 H105      5.3358    1.0198    4.7354   H         1 RES1   0.0000
   189 H106      3.9895    0.0357    4.1268   H         1 RES1   0.0000
   190 H107      1.3888    1.8389    3.4098   H         1 RES1   0.0000
   191 H108     -0.0116    2.6735    2.6846   H         1 RES1   0.0000
   192 H109      2.9658    2.0137    2.1314   H         1 RES1   0.0000
   193 H110      2.5121    2.8302    0.6061   H         1 RES1   0.0000
   194 H111      6.2251    0.9803    1.3094   H         1 RES1   0.0000
   195 H112      4.8435    1.4393    2.2776   H         1 RES1   0.0000
   196 H113      4.5083    3.4511    0.8551   H         1 RES1   0.0000
   197 H114      7.4326    3.2154    1.5951   H         1 RES1   0.0000
   198 H115      6.1471    3.3097    2.7999   H         1 RES1   0.0000
   199 H116      6.7505    5.4152    0.6724   H         1 RES1   0.0000
   200 H117      7.0300    5.5477    2.3979   H         1 RES1   0.0000
   201 H118      5.3842    5.4801    1.7759   H         1 RES1   0.0000
   202 H119      6.4624    2.0457   -0.9094   H         1 RES1   0.0000
   203 H120      6.7001    3.7662   -0.7385   H         1 RES1   0.0000
   204 H121      4.0118    2.5732   -1.5206   H         1 RES1   0.0000
   205 H122      5.2368    3.0895   -2.6726   H         1 RES1   0.0000
   206 H123      5.2032    5.3773   -1.7582   H         1 RES1   0.0000
   207 H124      3.9659    4.9273   -0.5947   H         1 RES1   0.0000
   208 H125      3.6488    4.8117   -3.6299   H         1 RES1   0.0000
   209 H126      3.0015    6.0636   -2.5806   H         1 RES1   0.0000
   210 H127      2.3882    4.4170   -2.4530   H         1 RES1   0.0000
   211 H128      5.5573   -1.0956    0.6205   H         1 RES1   0.0000
   212 H129      6.0256    0.0186   -0.6686   H         1 RES1   0.0000
   213 H130      3.8455   -0.8519   -1.8649   H         1 RES1   0.0000
   214 H131      2.9707   -2.2096   -0.0122   H         1 RES1   0.0000
   215 H132      4.5228   -2.9938    0.2114   H         1 RES1   0.0000
   216 H133      2.9832   -3.4039   -2.3891   H         1 RES1   0.0000
   217 H134      2.7572   -4.4133   -0.9512   H         1 RES1   0.0000
   218 H135      4.3114   -4.3354   -1.7409   H         1 RES1   0.0000
   219 H136      5.2705   -2.6118   -2.8997   H         1 RES1   0.0000
   220 H137      6.3929   -2.5043   -1.5526   H         1 RES1   0.0000
   221 H138      7.3119   -1.3744   -3.4371   H         1 RES1   0.0000
   222 H139      6.9358   -0.1395   -2.2719   H         1 RES1   0.0000
   223 H140      5.8579    0.9261   -3.9843   H         1 RES1   0.0000
   224 H141      4.5904   -0.2732   -3.8112   H         1 RES1   0.0000
   225 H142      6.9782   -0.4001   -5.7037   H         1 RES1   0.0000
   226 H143      5.2946   -0.2196   -6.1569   H         1 RES1   0.0000
   227 H144      5.8688   -1.7407   -5.4649   H         1 RES1   0.0000
   228 O7       -0.3424   -2.6742    0.5767   O.3       1 RES1   0.0000
   229 H145     -0.5974   -2.9609    1.4685   H         1 RES1   0.0000
   230 H146     -0.0925   -3.4826    0.0996   H         1 RES1   0.0000
   231 O8        0.8748   -1.9594   -1.6309   O.3       1 RES1   0.0000
   232 H147      0.5495   -2.5592   -2.3243   H         1 RES1   0.0000
   233 H148      1.8431   -1.9669   -1.6933   H         1 RES1   0.0000
@<TRIPOS>BOND
     1     1    20    1
     2     1    22    1
     3     1    25    1
     4     1   133    1
     5     1   135    1
     6     1   138    1
     7     1   228    1
     8     1   231    1
     9     2     3    1
    10     2    43    1
    11     2    44    1
    12     2    45    1
    13     3     4    1
    14     3    46    1
    15     3    47    1
    16     4     5    1
    17     4    48    1
    18     4    49    1
    19     5     6    1
    20     5    50    1
    21     5    51    1
    22     6     7    1
    23     6     9    1
    24     6    52    1
    25     7     8    1
    26     7    53    1
    27     7    54    1
    28     8    55    1
    29     8    56    1
    30     8    57    1
    31     9    10    1
    32     9    58    1
    33     9    59    1
    34    10    11    1
    35    10    19    1
    36    11    12    1
    37    11    60    1
    38    11    61    1
    39    12    13    1
    40    12    15    1
    41    12    62    1
    42    13    14    1
    43    13    63    1
    44    13    64    1
    45    14    65    1
    46    14    66    1
    47    14    67    1
    48    15    16    1
    49    15    68    1
    50    15    69    1
    51    16    17    1
    52    16    70    1
    53    16    71    1
    54    17    18    1
    55    17    72    1
    56    17    73    1
    57    18    74    1
    58    18    75    1
    59    18    76    1
    60    19    20    2
    61    19    21    1
    62    21    22    1
    63    21    77    1
    64    21    78    1
    65    22    23    1
    66    23    24    1
    67    23    79    1
    68    23    80    1
    69    24    25    2
    70    24    26    1
    71    26    27    1
    72    26    35    1
    73    27    28    1
    74    27    81    1
    75    27    82    1
    76    28    29    1
    77    28    31    1
    78    28    83    1
    79    29    30    1
    80    29    84    1
    81    29    85    1
    82    30    86    1
    83    30    87    1
    84    30    88    1
    85    31    32    1
    86    31    89    1
    87    31    90    1
    88    32    33    1
    89    32    91    1
    90    32    92    1
    91    33    34    1
    92    33    93    1
    93    33    94    1
    94    34    95    1
    95    34    96    1
    96    34    97    1
    97    35    36    1
    98    35    98    1
    99    35    99    1
   100    36    37    1
   101    36    39    1
   102    36   100    1
   103    37    38    1
   104    37   101    1
   105    37   102    1
   106    38   103    1
   107    38   104    1
   108    38   105    1
   109    39    40    1
   110    39   106    1
   111    39   107    1
   112    40    41    1
   113    40   108    1
   114    40   109    1
   115    41    42    1
   116    41   110    1
   117    41   111    1
   118    42   112    1
   119    42   113    1
   120    42   114    1
   121   115   116    1
   122   115   156    1
   123   115   157    1
   124   115   158    1
   125   116   117    1
   126   116   159    1
   127   116   160    1
   128   117   118    1
   129   117   161    1
   130   117   162    1
   131   118   119    1
   132   118   163    1
   133   118   164    1
   134   119   120    1
   135   119   122    1
   136   119   165    1
   137   120   121    1
   138   120   166    1
   139   120   167    1
   140   121   168    1
   141   121   169    1
   142   121   170    1
   143   122   123    1
   144   122   171    1
   145   122   172    1
   146   123   124    1
   147   123   132    1
   148   124   125    1
   149   124   173    1
   150   124   174    1
   151   125   126    1
   152   125   128    1
   153   125   175    1
   154   126   127    1
   155   126   176    1
   156   126   177    1
   157   127   178    1
   158   127   179    1
   159   127   180    1
   160   128   129    1
   161   128   181    1
   162   128   182    1
   163   129   130    1
   164   129   183    1
   165   129   184    1
   166   130   131    1
   167   130   185    1
   168   130   186    1
   169   131   187    1
   170   131   188    1
   171   131   189    1
   172   132   133    2
   173   132   134    1
   174   134   135    1
   175   134   190    1
   176   134   191    1
   177   135   136    1
   178   136   137    1
   179   136   192    1
   180   136   193    1
   181   137   138    2
   182   137   139    1
   183   139   140    1
   184   139   148    1
   185   140   141    1
   186   140   194    1
   187   140   195    1
   188   141   142    1
   189   141   144    1
   190   141   196    1
   191   142   143    1
   192   142   197    1
   193   142   198    1
   194   143   199    1
   195   143   200    1
   196   143   201    1
   197   144   145    1
   198   144   202    1
   199   144   203    1
   200   145   146    1
   201   145   204    1
   202   145   205    1
   203   146   147    1
   204   146   206    1
   205   146   207    1
   206   147   208    1
   207   147   209    1
   208   147   210    1
   209   148   149    1
   210   148   211    1
   211   148   212    1
   212   149   150    1
   213   149   152    1
   214   149   213    1
   215   150   151    1
   216   150   214    1
   217   150   215    1
   218   151   216    1
   219   151   217    1
   220   151   218    1
   221   152   153    1
   222   152   219    1
   223   152   220    1
   224   153   154    1
   225   153   221    1
   226   153   222    1
   227   154   155    1
   228   154   223    1
   229   154   224    1
   230   155   225    1
   231   155   226    1
   232   155   227    1
   233   228   229    1
   234   228   230    1
   235   231   232    1
   236   231   233    1
@<TRIPOS>SUBSTRUCTURE
     1 RES1      233 GROUP             0 ****  ****    0  
