@<TRIPOS>MOLECULE
ICIGOT_geomtry_0_nunpairedes_0_charge_3 Charge: 3 Unpaired_Electrons: 2 XTB_Unpaired_Electrons: 0 XTB_Charge: 3
   121   134     1     0     0
SMALL
NoCharges
****
Generated from Architector

@<TRIPOS>ATOM
     1 Tm1      -0.1397   -0.1127    0.1372   Tm        1 RES1   0.0000
     2 C1        5.7721   -1.3486   -1.3899   C.3       1 RES1   0.0000
     3 C2        5.0966   -2.5325   -0.6981   C.3       1 RES1   0.0000
     4 N1        3.6519   -2.4961   -0.8948   N.am      1 RES1   0.0000
     5 C3        2.8259   -1.6001   -0.3463   C.2       1 RES1   0.0000
     6 O1        1.6725   -1.4389   -0.8121   O.2       1 RES1   0.0000
     7 C4        3.1294   -0.7032    0.8443   C.ar      1 RES1   0.0000
     8 C5        4.3726   -0.3359    1.3535   C.ar      1 RES1   0.0000
     9 C6        4.4465    0.6708    2.3093   C.ar      1 RES1   0.0000
    10 C7        3.2824    1.2317    2.7937   C.ar      1 RES1   0.0000
    11 C8        2.0604    0.7318    2.3362   C.ar      1 RES1   0.0000
    12 C9        0.7675    1.2018    2.8953   C.ar      1 RES1   0.0000
    13 C10       0.6962    2.0793    3.9799   C.ar      1 RES1   0.0000
    14 C11      -0.5553    2.4175    4.4571   C.ar      1 RES1   0.0000
    15 C12      -1.6913    1.9854    3.7832   C.ar      1 RES1   0.0000
    16 C13      -1.5539    1.2290    2.6189   C.ar      1 RES1   0.0000
    17 C14      -2.5885    0.9040    1.5417   C.2       1 RES1   0.0000
    18 O2       -2.1320    0.2760    0.5598   O.2       1 RES1   0.0000
    19 N2       -3.8654    1.2930    1.5125   N.am      1 RES1   0.0000
    20 C15      -4.5000    2.0679    2.5685   C.3       1 RES1   0.0000
    21 C16      -4.8638    1.2084    3.7790   C.3       1 RES1   0.0000
    22 C17      -4.7223    0.9164    0.4154   C.ar      1 RES1   0.0000
    23 C18      -6.0678    0.6802    0.6936   C.ar      1 RES1   0.0000
    24 C19      -6.9628    0.3530   -0.3068   C.ar      1 RES1   0.0000
    25 C20      -6.5276    0.2243   -1.6142   C.ar      1 RES1   0.0000
    26 C21      -5.1901    0.4401   -1.8999   C.ar      1 RES1   0.0000
    27 C22      -4.2925    0.8001   -0.9065   C.ar      1 RES1   0.0000
    28 N3       -0.3360    0.7780    2.2725   N.ar      1 RES1   0.0000
    29 N4        1.9976   -0.1695    1.3479   N.ar      1 RES1   0.0000
    30 C23       3.1763   -3.4252   -1.8855   C.ar      1 RES1   0.0000
    31 C24       2.0401   -4.1857   -1.6450   C.ar      1 RES1   0.0000
    32 C25       1.6803   -5.1814   -2.5374   C.ar      1 RES1   0.0000
    33 C26       2.4443   -5.4378   -3.6597   C.ar      1 RES1   0.0000
    34 C27       3.5619   -4.6656   -3.9111   C.ar      1 RES1   0.0000
    35 C28       3.9226   -3.6563   -3.0386   C.ar      1 RES1   0.0000
    36 H1        6.8254   -1.3013   -1.1235   H         1 RES1   0.0000
    37 H2        5.3035   -0.4053   -1.1226   H         1 RES1   0.0000
    38 H3        5.6844   -1.4501   -2.4684   H         1 RES1   0.0000
    39 H4        5.3318   -2.5809    0.3649   H         1 RES1   0.0000
    40 H5        5.4604   -3.4553   -1.1491   H         1 RES1   0.0000
    41 H6        5.2943   -0.7692    1.0195   H         1 RES1   0.0000
    42 H7        5.4035    1.0089    2.6759   H         1 RES1   0.0000
    43 H8        3.3005    2.0443    3.4987   H         1 RES1   0.0000
    44 H9        1.5738    2.4794    4.4596   H         1 RES1   0.0000
    45 H10      -0.6495    3.0347    5.3401   H         1 RES1   0.0000
    46 H11      -2.6422    2.2577    4.1944   H         1 RES1   0.0000
    47 H12      -5.3986    2.5132    2.1428   H         1 RES1   0.0000
    48 H13      -3.8355    2.8885    2.8409   H         1 RES1   0.0000
    49 H14      -5.6123    0.4678    3.5073   H         1 RES1   0.0000
    50 H15      -5.2779    1.8295    4.5715   H         1 RES1   0.0000
    51 H16      -3.9956    0.6722    4.1579   H         1 RES1   0.0000
    52 H17      -6.4447    0.7332    1.6984   H         1 RES1   0.0000
    53 H18      -8.0019    0.2082   -0.0557   H         1 RES1   0.0000
    54 H19      -7.2180   -0.0312   -2.4023   H         1 RES1   0.0000
    55 H20      -4.8425    0.3421   -2.9180   H         1 RES1   0.0000
    56 H21      -3.2656    0.9862   -1.1850   H         1 RES1   0.0000
    57 H22       1.4715   -4.0109   -0.7449   H         1 RES1   0.0000
    58 H23       0.8255   -5.8065   -2.3471   H         1 RES1   0.0000
    59 H24       2.1878   -6.2522   -4.3148   H         1 RES1   0.0000
    60 H25       4.1735   -4.8668   -4.7731   H         1 RES1   0.0000
    61 H26       4.7925   -3.0654   -3.2687   H         1 RES1   0.0000
    62 C29      -2.4928   -5.9215   -0.4495   C.3       1 RES1   0.0000
    63 C30      -1.0792   -5.4567   -0.1078   C.3       1 RES1   0.0000
    64 N5       -1.0395   -4.2028    0.6358   N.am      1 RES1   0.0000
    65 C31      -1.0463   -2.9891    0.0706   C.2       1 RES1   0.0000
    66 O3       -0.9394   -1.9732    0.7942   O.2       1 RES1   0.0000
    67 C32      -1.0603   -2.6936   -1.4257   C.ar      1 RES1   0.0000
    68 C33      -1.2518   -3.5749   -2.4880   C.ar      1 RES1   0.0000
    69 C34      -0.9348   -3.1577   -3.7740   C.ar      1 RES1   0.0000
    70 C35      -0.4684   -1.8756   -3.9862   C.ar      1 RES1   0.0000
    71 C36      -0.4393   -0.9941   -2.9059   C.ar      1 RES1   0.0000
    72 C37       0.0069    0.4187   -3.0622   C.ar      1 RES1   0.0000
    73 C38       0.5082    0.9178   -4.2699   C.ar      1 RES1   0.0000
    74 C39       0.8950    2.2432   -4.3346   C.ar      1 RES1   0.0000
    75 C40       0.7721    3.0511   -3.2103   C.ar      1 RES1   0.0000
    76 C41       0.2978    2.4923   -2.0299   C.ar      1 RES1   0.0000
    77 C42       0.1649    3.1404   -0.6691   C.2       1 RES1   0.0000
    78 O4        0.0360    2.3198    0.2708   O.2       1 RES1   0.0000
    79 N6        0.1441    4.4502   -0.4086   N.am      1 RES1   0.0000
    80 C43       0.6318    5.5266   -1.2637   C.3       1 RES1   0.0000
    81 C44       2.1612    5.5592   -1.3295   C.3       1 RES1   0.0000
    82 C45      -0.2817    4.8777    0.8970   C.ar      1 RES1   0.0000
    83 C46       0.4630    5.8106    1.6100   C.ar      1 RES1   0.0000
    84 C47       0.0072    6.2928    2.8235   C.ar      1 RES1   0.0000
    85 C48      -1.1991    5.8518    3.3350   C.ar      1 RES1   0.0000
    86 C49      -1.9441    4.9283    2.6230   C.ar      1 RES1   0.0000
    87 C50      -1.4942    4.4333    1.4113   C.ar      1 RES1   0.0000
    88 N7       -0.0570    1.1926   -1.9725   N.ar      1 RES1   0.0000
    89 N8       -0.7546   -1.4070   -1.6757   N.ar      1 RES1   0.0000
    90 C51      -0.9264   -4.3653    2.0629   C.ar      1 RES1   0.0000
    91 C52      -0.2462   -3.4719    2.8890   C.ar      1 RES1   0.0000
    92 C53      -0.1137   -3.7345    4.2429   C.ar      1 RES1   0.0000
    93 C54      -0.6185   -4.8977    4.7966   C.ar      1 RES1   0.0000
    94 C55      -1.2972   -5.7874    3.9835   C.ar      1 RES1   0.0000
    95 C56      -1.4644   -5.5164    2.6400   C.ar      1 RES1   0.0000
    96 H27      -2.4586   -6.8262   -1.0528   H         1 RES1   0.0000
    97 H28      -3.0426   -5.1578   -0.9907   H         1 RES1   0.0000
    98 H29      -3.0592   -6.1470    0.4483   H         1 RES1   0.0000
    99 H30      -0.4796   -5.3357   -1.0055   H         1 RES1   0.0000
   100 H31      -0.5845   -6.2050    0.5112   H         1 RES1   0.0000
   101 H32      -1.6444   -4.5659   -2.3691   H         1 RES1   0.0000
   102 H33      -1.0322   -3.8387   -4.6050   H         1 RES1   0.0000
   103 H34      -0.1465   -1.5560   -4.9603   H         1 RES1   0.0000
   104 H35       0.6224    0.2944   -5.1404   H         1 RES1   0.0000
   105 H36       1.2884    2.6484   -5.2556   H         1 RES1   0.0000
   106 H37       1.0769    4.0774   -3.2740   H         1 RES1   0.0000
   107 H38       0.2865    6.4624   -0.8226   H         1 RES1   0.0000
   108 H39       0.1908    5.4615   -2.2590   H         1 RES1   0.0000
   109 H40       2.5835    5.7080   -0.3378   H         1 RES1   0.0000
   110 H41       2.4845    6.3850   -1.9617   H         1 RES1   0.0000
   111 H42       2.5786    4.6345   -1.7230   H         1 RES1   0.0000
   112 H43       1.3979    6.1817    1.2281   H         1 RES1   0.0000
   113 H44       0.5867    7.0307    3.3536   H         1 RES1   0.0000
   114 H45      -1.5717    6.2344    4.2706   H         1 RES1   0.0000
   115 H46      -2.9040    4.6320    3.0145   H         1 RES1   0.0000
   116 H47      -2.0864    3.7253    0.8502   H         1 RES1   0.0000
   117 H48       0.1998   -2.5680    2.4977   H         1 RES1   0.0000
   118 H49       0.4207   -3.0266    4.8585   H         1 RES1   0.0000
   119 H50      -0.4653   -5.1235    5.8383   H         1 RES1   0.0000
   120 H51      -1.6796   -6.7128    4.3818   H         1 RES1   0.0000
   121 H52      -2.0232   -6.2272    2.0610   H         1 RES1   0.0000
@<TRIPOS>BOND
     1     1     6    1
     2     1    18    1
     3     1    28    1
     4     1    29    1
     5     1    66    1
     6     1    78    1
     7     1    88    1
     8     1    89    1
     9     2     3    1
    10     2    36    1
    11     2    37    1
    12     2    38    1
    13     3     4    1
    14     3    39    1
    15     3    40    1
    16     4     5    1
    17     4    30    1
    18     5     6    2
    19     5     7    1
    20     7     8    1
    21     7    29    2
    22     8     9    2
    23     8    41    1
    24     9    10    1
    25     9    42    1
    26    10    11    2
    27    10    43    1
    28    11    12    1
    29    11    29    1
    30    12    13    1
    31    12    28    2
    32    13    14    2
    33    13    44    1
    34    14    15    1
    35    14    45    1
    36    15    16    2
    37    15    46    1
    38    16    17    1
    39    16    28    1
    40    17    18    2
    41    17    19    1
    42    19    20    1
    43    19    22    1
    44    20    21    1
    45    20    47    1
    46    20    48    1
    47    21    49    1
    48    21    50    1
    49    21    51    1
    50    22    23    1
    51    22    27    2
    52    23    24    2
    53    23    52    1
    54    24    25    1
    55    24    53    1
    56    25    26    2
    57    25    54    1
    58    26    27    1
    59    26    55    1
    60    27    56    1
    61    30    31    1
    62    30    35    2
    63    31    32    2
    64    31    57    1
    65    32    33    1
    66    32    58    1
    67    33    34    2
    68    33    59    1
    69    34    35    1
    70    34    60    1
    71    35    61    1
    72    62    63    1
    73    62    96    1
    74    62    97    1
    75    62    98    1
    76    63    64    1
    77    63    99    1
    78    63   100    1
    79    64    65    1
    80    64    90    1
    81    65    66    2
    82    65    67    1
    83    67    68    1
    84    67    89    2
    85    68    69    2
    86    68   101    1
    87    69    70    1
    88    69   102    1
    89    70    71    2
    90    70   103    1
    91    71    72    1
    92    71    89    1
    93    72    73    1
    94    72    88    2
    95    73    74    2
    96    73   104    1
    97    74    75    1
    98    74   105    1
    99    75    76    2
   100    75   106    1
   101    76    77    1
   102    76    88    1
   103    77    78    2
   104    77    79    1
   105    79    80    1
   106    79    82    1
   107    80    81    1
   108    80   107    1
   109    80   108    1
   110    81   109    1
   111    81   110    1
   112    81   111    1
   113    82    83    1
   114    82    87    2
   115    83    84    2
   116    83   112    1
   117    84    85    1
   118    84   113    1
   119    85    86    2
   120    85   114    1
   121    86    87    1
   122    86   115    1
   123    87   116    1
   124    90    91    1
   125    90    95    2
   126    91    92    2
   127    91   117    1
   128    92    93    1
   129    92   118    1
   130    93    94    2
   131    93   119    1
   132    94    95    1
   133    94   120    1
   134    95   121    1
@<TRIPOS>SUBSTRUCTURE
     1 RES1      121 GROUP             0 ****  ****    0  
