@<TRIPOS>MOLECULE
bicapped_trigonal_prismatic_0_nunpairedes_0_charge_3 Charge: 3 Unpaired_Electrons: 2 XTB_Unpaired_Electrons: 0 XTB_Charge: 3
   339   344     1     0     0
SMALL
NoCharges
****
Generated from Architector

@<TRIPOS>ATOM
     1 Tm1       0.2639    0.0833    0.2094   Tm        1 RES1   0.0000
     2 C1       -3.2909    4.3130   -5.8072   C.3       1 RES1   0.0000
     3 C2       -1.9957    3.7498   -6.3781   C.3       1 RES1   0.0000
     4 C3       -2.1519    2.4028   -7.0902   C.3       1 RES1   0.0000
     5 C4       -2.4168    1.2246   -6.1376   C.3       1 RES1   0.0000
     6 C5       -1.7553   -0.0833   -6.5981   C.3       1 RES1   0.0000
     7 C6       -1.9667   -1.2498   -5.6125   C.3       1 RES1   0.0000
     8 C7       -0.7067   -1.7140   -4.8603   C.3       1 RES1   0.0000
     9 C8       -1.1382   -2.5343   -3.6461   C.3       1 RES1   0.0000
    10 N1       -0.1506   -3.1815   -2.7727   N.am      1 RES1   0.0000
    11 C9        0.1424   -4.5753   -3.0943   C.3       1 RES1   0.0000
    12 C10       1.5743   -5.0441   -2.8177   C.3       1 RES1   0.0000
    13 C11       2.6847   -4.1074   -3.3133   C.3       1 RES1   0.0000
    14 C12       2.9026   -4.1519   -4.8301   C.3       1 RES1   0.0000
    15 C13       4.3366   -3.8090   -5.2443   C.3       1 RES1   0.0000
    16 C14       4.7100   -2.3332   -5.0951   C.3       1 RES1   0.0000
    17 C15       6.0708   -2.0353   -5.7360   C.3       1 RES1   0.0000
    18 C16       6.3354   -0.5451   -5.9196   C.3       1 RES1   0.0000
    19 C17       0.1806   -2.5506   -1.6372   C.2       1 RES1   0.0000
    20 O1        0.3558   -1.3189   -1.6165   O.2       1 RES1   0.0000
    21 C18       0.1360   -3.2976   -0.2862   C.3       1 RES1   0.0000
    22 N2        0.5630   -2.4122    0.8146   N.4       1 RES1   0.0000
    23 C19       1.9958   -2.6756    1.1010   C.3       1 RES1   0.0000
    24 C20       2.6329   -1.4704    1.8140   C.2       1 RES1   0.0000
    25 O2        2.0082   -0.3838    1.7116   O.2       1 RES1   0.0000
    26 N3        3.7910   -1.5967    2.4453   N.am      1 RES1   0.0000
    27 C21       4.5633   -2.8342    2.4581   C.3       1 RES1   0.0000
    28 C22       4.4117   -3.7188    3.7048   C.3       1 RES1   0.0000
    29 C23       3.0386   -4.3693    3.8440   C.3       1 RES1   0.0000
    30 C24       2.8832   -5.2971    5.0512   C.3       1 RES1   0.0000
    31 C25       1.4539   -5.8464    5.0570   C.3       1 RES1   0.0000
    32 C26       1.1332   -6.8646    6.1573   C.3       1 RES1   0.0000
    33 C27       0.4161   -6.2780    7.3736   C.3       1 RES1   0.0000
    34 C28       1.1436   -5.1167    8.0358   C.3       1 RES1   0.0000
    35 C29       4.3465   -0.3548    3.0427   C.3       1 RES1   0.0000
    36 C30       5.7240   -0.3541    3.7127   C.3       1 RES1   0.0000
    37 C31       5.7386   -0.8176    5.1862   C.3       1 RES1   0.0000
    38 C32       5.8567    0.3290    6.2144   C.3       1 RES1   0.0000
    39 C33       7.2234    0.4910    6.8916   C.3       1 RES1   0.0000
    40 C34       7.3787   -0.3259    8.1792   C.3       1 RES1   0.0000
    41 C35       7.6789   -1.8143    8.0132   C.3       1 RES1   0.0000
    42 C36       9.0085   -2.0646    7.3150   C.3       1 RES1   0.0000
    43 C37      -0.2697   -2.5641    2.0467   C.3       1 RES1   0.0000
    44 C38      -1.4263   -1.5148    2.1380   C.2       1 RES1   0.0000
    45 O3       -1.1640   -0.3498    1.7688   O.2       1 RES1   0.0000
    46 N4       -2.6226   -1.8785    2.6049   N.am      1 RES1   0.0000
    47 C39      -2.7535   -2.8922    3.6557   C.3       1 RES1   0.0000
    48 C40      -2.8750   -2.2338    5.0500   C.3       1 RES1   0.0000
    49 C41      -1.7951   -1.1808    5.3528   C.3       1 RES1   0.0000
    50 C42      -2.3736    0.2329    5.3860   C.3       1 RES1   0.0000
    51 C43      -1.3180    1.3331    5.3791   C.3       1 RES1   0.0000
    52 C44      -0.9377    1.8200    6.7770   C.3       1 RES1   0.0000
    53 C45      -0.4268    3.2609    6.7722   C.3       1 RES1   0.0000
    54 C46      -0.0081    3.6839    8.1744   C.3       1 RES1   0.0000
    55 C47      -3.8678   -1.0835    2.5362   C.3       1 RES1   0.0000
    56 C48      -4.1053   -0.1091    1.3849   C.3       1 RES1   0.0000
    57 C49      -4.8774    1.1470    1.8254   C.3       1 RES1   0.0000
    58 C50      -5.4540    1.8197    0.5726   C.3       1 RES1   0.0000
    59 C51      -5.7752    3.3223    0.6398   C.3       1 RES1   0.0000
    60 C52      -5.3282    4.0019   -0.6594   C.3       1 RES1   0.0000
    61 C53      -5.6305    5.4977   -0.7734   C.3       1 RES1   0.0000
    62 C54      -4.5873    6.1579   -1.6681   C.3       1 RES1   0.0000
    63 H1       -3.1224    5.3071   -5.4000   H         1 RES1   0.0000
    64 H2       -3.6900    3.6843   -5.0145   H         1 RES1   0.0000
    65 H3       -4.0409    4.3996   -6.5868   H         1 RES1   0.0000
    66 H4       -1.2545    3.6567   -5.5777   H         1 RES1   0.0000
    67 H5       -1.6016    4.4670   -7.0968   H         1 RES1   0.0000
    68 H6       -1.2382    2.2044   -7.6517   H         1 RES1   0.0000
    69 H7       -2.9605    2.4767   -7.8170   H         1 RES1   0.0000
    70 H8       -3.4944    1.0644   -6.0460   H         1 RES1   0.0000
    71 H9       -2.0453    1.4878   -5.1388   H         1 RES1   0.0000
    72 H10      -0.6904    0.0835   -6.7452   H         1 RES1   0.0000
    73 H11      -2.1664   -0.3428   -7.5730   H         1 RES1   0.0000
    74 H12      -2.3877   -2.1011   -6.1464   H         1 RES1   0.0000
    75 H13      -2.7115   -0.9396   -4.8813   H         1 RES1   0.0000
    76 H14      -0.1305   -0.8566   -4.5161   H         1 RES1   0.0000
    77 H15      -0.0781   -2.2988   -5.5274   H         1 RES1   0.0000
    78 H16      -1.8053   -3.3345   -3.9805   H         1 RES1   0.0000
    79 H17      -1.7059   -1.8654   -2.9984   H         1 RES1   0.0000
    80 H18      -0.0165   -4.6635   -4.1682   H         1 RES1   0.0000
    81 H19      -0.5678   -5.2404   -2.5919   H         1 RES1   0.0000
    82 H20       1.6770   -6.0080   -3.3223   H         1 RES1   0.0000
    83 H21       1.7175   -5.2399   -1.7538   H         1 RES1   0.0000
    84 H22       3.6142   -4.4182   -2.8296   H         1 RES1   0.0000
    85 H23       2.4768   -3.0817   -2.9946   H         1 RES1   0.0000
    86 H24       2.2135   -3.4721   -5.3346   H         1 RES1   0.0000
    87 H25       2.6961   -5.1627   -5.1842   H         1 RES1   0.0000
    88 H26       4.4583   -4.0848   -6.2924   H         1 RES1   0.0000
    89 H27       5.0335   -4.4234   -4.6693   H         1 RES1   0.0000
    90 H28       4.7317   -2.0622   -4.0369   H         1 RES1   0.0000
    91 H29       3.9485   -1.7217   -5.5845   H         1 RES1   0.0000
    92 H30       6.1139   -2.5157   -6.7155   H         1 RES1   0.0000
    93 H31       6.8647   -2.4708   -5.1263   H         1 RES1   0.0000
    94 H32       5.5641   -0.0957   -6.5408   H         1 RES1   0.0000
    95 H33       7.2933   -0.3907   -6.4070   H         1 RES1   0.0000
    96 H34       6.3578   -0.0191   -4.9677   H         1 RES1   0.0000
    97 H35       0.6982   -4.2370   -0.3069   H         1 RES1   0.0000
    98 H36      -0.9237   -3.5387   -0.1515   H         1 RES1   0.0000
    99 H37       2.5219   -2.7847    0.1481   H         1 RES1   0.0000
   100 H38       2.1118   -3.6004    1.6701   H         1 RES1   0.0000
   101 H39       5.6139   -2.5594    2.3648   H         1 RES1   0.0000
   102 H40       4.3104   -3.4178    1.5748   H         1 RES1   0.0000
   103 H41       4.6424   -3.1503    4.6017   H         1 RES1   0.0000
   104 H42       5.1649   -4.5015    3.6184   H         1 RES1   0.0000
   105 H43       2.8418   -4.9689    2.9473   H         1 RES1   0.0000
   106 H44       2.2718   -3.5909    3.9267   H         1 RES1   0.0000
   107 H45       3.0874   -4.7521    5.9711   H         1 RES1   0.0000
   108 H46       3.6005   -6.1151    4.9759   H         1 RES1   0.0000
   109 H47       1.2856   -6.3250    4.0891   H         1 RES1   0.0000
   110 H48       0.7536   -5.0077    5.1279   H         1 RES1   0.0000
   111 H49       2.0462   -7.3632    6.4759   H         1 RES1   0.0000
   112 H50       0.4806   -7.6327    5.7398   H         1 RES1   0.0000
   113 H51       0.2941   -7.0770    8.1063   H         1 RES1   0.0000
   114 H52      -0.5839   -5.9517    7.0735   H         1 RES1   0.0000
   115 H53       2.1604   -5.3972    8.2903   H         1 RES1   0.0000
   116 H54       0.6330   -4.8395    8.9525   H         1 RES1   0.0000
   117 H55       1.1716   -4.2419    7.3906   H         1 RES1   0.0000
   118 H56       3.6300   -0.0100    3.7871   H         1 RES1   0.0000
   119 H57       4.3551    0.3794    2.2291   H         1 RES1   0.0000
   120 H58       6.0649    0.6844    3.6833   H         1 RES1   0.0000
   121 H59       6.4482   -0.9185    3.1287   H         1 RES1   0.0000
   122 H60       6.5720   -1.5043    5.3350   H         1 RES1   0.0000
   123 H61       4.8120   -1.3581    5.3901   H         1 RES1   0.0000
   124 H62       5.1217    0.1741    7.0076   H         1 RES1   0.0000
   125 H63       5.6125    1.2730    5.7221   H         1 RES1   0.0000
   126 H64       7.3334    1.5483    7.1566   H         1 RES1   0.0000
   127 H65       8.0193    0.2557    6.1857   H         1 RES1   0.0000
   128 H66       6.4645   -0.2052    8.7647   H         1 RES1   0.0000
   129 H67       8.1947    0.1145    8.7532   H         1 RES1   0.0000
   130 H68       6.8665   -2.3145    7.4836   H         1 RES1   0.0000
   131 H69       7.7229   -2.2504    9.0109   H         1 RES1   0.0000
   132 H70       8.9488   -1.8688    6.2476   H         1 RES1   0.0000
   133 H71       9.3234   -3.0938    7.4509   H         1 RES1   0.0000
   134 H72       9.7762   -1.4219    7.7364   H         1 RES1   0.0000
   135 H73       0.3724   -2.3481    2.9078   H         1 RES1   0.0000
   136 H74      -0.6352   -3.5899    2.1400   H         1 RES1   0.0000
   137 H75      -1.8957   -3.5621    3.6478   H         1 RES1   0.0000
   138 H76      -3.6508   -3.4876    3.4765   H         1 RES1   0.0000
   139 H77      -2.8195   -3.0390    5.7828   H         1 RES1   0.0000
   140 H78      -3.8598   -1.7756    5.1661   H         1 RES1   0.0000
   141 H79      -0.9979   -1.2277    4.6038   H         1 RES1   0.0000
   142 H80      -1.3553   -1.3919    6.3277   H         1 RES1   0.0000
   143 H81      -3.0103    0.3293    6.2659   H         1 RES1   0.0000
   144 H82      -3.0091    0.3945    4.5192   H         1 RES1   0.0000
   145 H83      -1.7072    2.1842    4.8181   H         1 RES1   0.0000
   146 H84      -0.4542    0.9706    4.8247   H         1 RES1   0.0000
   147 H85      -0.1933    1.1613    7.2247   H         1 RES1   0.0000
   148 H86      -1.8237    1.7838    7.4143   H         1 RES1   0.0000
   149 H87      -1.2210    3.9123    6.4000   H         1 RES1   0.0000
   150 H88       0.4221    3.3732    6.0967   H         1 RES1   0.0000
   151 H89      -0.8119    3.4836    8.8803   H         1 RES1   0.0000
   152 H90       0.2280    4.7450    8.1973   H         1 RES1   0.0000
   153 H91       0.8763    3.1313    8.4880   H         1 RES1   0.0000
   154 H92      -3.9574   -0.5165    3.4587   H         1 RES1   0.0000
   155 H93      -4.6669   -1.8263    2.5323   H         1 RES1   0.0000
   156 H94      -4.6784   -0.6019    0.6038   H         1 RES1   0.0000
   157 H95      -3.1555    0.2066    0.9658   H         1 RES1   0.0000
   158 H96      -4.1958    1.8115    2.3571   H         1 RES1   0.0000
   159 H97      -5.6891    0.8890    2.5053   H         1 RES1   0.0000
   160 H98      -6.3527    1.2739    0.2775   H         1 RES1   0.0000
   161 H99      -4.7258    1.6683   -0.2302   H         1 RES1   0.0000
   162 H100     -5.2681    3.7921    1.4773   H         1 RES1   0.0000
   163 H101     -6.8414    3.4772    0.7988   H         1 RES1   0.0000
   164 H102     -5.7889    3.4928   -1.5071   H         1 RES1   0.0000
   165 H103     -4.2469    3.8643   -0.7606   H         1 RES1   0.0000
   166 H104     -5.6268    5.9634    0.2116   H         1 RES1   0.0000
   167 H105     -6.6175    5.6430   -1.2089   H         1 RES1   0.0000
   168 H106     -3.6120    6.1658   -1.1814   H         1 RES1   0.0000
   169 H107     -4.8502    7.1844   -1.8980   H         1 RES1   0.0000
   170 H108     -4.4966    5.6111   -2.6063   H         1 RES1   0.0000
   171 C55       7.2696   -4.3721    0.5369   C.3       1 RES1   0.0000
   172 C56       6.2854   -4.2957   -0.6267   C.3       1 RES1   0.0000
   173 C57       6.5449   -3.0914   -1.5439   C.3       1 RES1   0.0000
   174 C58       5.7141   -1.8543   -1.1732   C.3       1 RES1   0.0000
   175 C59       6.2303   -0.5947   -1.8730   C.3       1 RES1   0.0000
   176 C60       5.3376    0.6420   -1.7284   C.3       1 RES1   0.0000
   177 C61       4.1311    0.6744   -2.6710   C.3       1 RES1   0.0000
   178 C62       3.5083    2.0754   -2.6752   C.3       1 RES1   0.0000
   179 N5        2.0929    2.1436   -3.0612   N.am      1 RES1   0.0000
   180 C63       1.7289    2.7913   -4.3184   C.3       1 RES1   0.0000
   181 C64       1.1383    1.8379   -5.3656   C.3       1 RES1   0.0000
   182 C65       2.0911    0.7279   -5.8336   C.3       1 RES1   0.0000
   183 C66       2.7568    0.9860   -7.1968   C.3       1 RES1   0.0000
   184 C67       2.2192    0.0838   -8.3151   C.3       1 RES1   0.0000
   185 C68       2.6030   -1.3852   -8.1139   C.3       1 RES1   0.0000
   186 C69       2.1336   -2.3016   -9.2458   C.3       1 RES1   0.0000
   187 C70       2.4452   -3.7680   -8.9527   C.3       1 RES1   0.0000
   188 C71       1.2033    1.7332   -2.1630   C.2       1 RES1   0.0000
   189 O4        1.5625    1.0877   -1.1570   O.2       1 RES1   0.0000
   190 C72      -0.2666    2.1910   -2.2982   C.3       1 RES1   0.0000
   191 N6       -1.2290    1.5219   -1.3869   N.4       1 RES1   0.0000
   192 C73      -2.3219    0.8640   -2.1460   C.3       1 RES1   0.0000
   193 C74      -2.7371   -0.4574   -1.4849   C.2       1 RES1   0.0000
   194 O5       -1.9688   -0.9212   -0.6183   O.2       1 RES1   0.0000
   195 N7       -3.8572   -1.0990   -1.8444   N.am      1 RES1   0.0000
   196 C75      -4.5937   -0.8142   -3.0824   C.3       1 RES1   0.0000
   197 C76      -6.1021   -0.5160   -2.9984   C.3       1 RES1   0.0000
   198 C77      -6.4971    0.9455   -2.7716   C.3       1 RES1   0.0000
   199 C78      -7.9473    1.0218   -2.2762   C.3       1 RES1   0.0000
   200 C79      -8.4184    2.4301   -1.9067   C.3       1 RES1   0.0000
   201 C80      -9.7940    2.4618   -1.2168   C.3       1 RES1   0.0000
   202 C81      -9.7498    2.8169    0.2744   C.3       1 RES1   0.0000
   203 C82      -9.2745    1.6965    1.1915   C.3       1 RES1   0.0000
   204 C83      -3.9982   -2.4480   -1.2468   C.3       1 RES1   0.0000
   205 C84      -5.3275   -3.1828   -1.4219   C.3       1 RES1   0.0000
   206 C85      -6.4531   -2.7456   -0.4747   C.3       1 RES1   0.0000
   207 C86      -6.3318   -3.3594    0.9274   C.3       1 RES1   0.0000
   208 C87      -7.2731   -4.5412    1.2021   C.3       1 RES1   0.0000
   209 C88      -8.5971   -4.1372    1.8665   C.3       1 RES1   0.0000
   210 C89      -9.6494   -3.5291    0.9347   C.3       1 RES1   0.0000
   211 C90     -10.2417   -4.5594   -0.0201   C.3       1 RES1   0.0000
   212 C91      -1.8451    2.4595   -0.4142   C.3       1 RES1   0.0000
   213 C92      -0.8618    2.9613    0.6685   C.2       1 RES1   0.0000
   214 O6        0.2017    2.3263    0.8036   O.2       1 RES1   0.0000
   215 N8       -1.1795    4.0694    1.3540   N.am      1 RES1   0.0000
   216 C93      -2.5588    4.4098    1.7360   C.3       1 RES1   0.0000
   217 C94      -2.7058    4.5242    3.2751   C.3       1 RES1   0.0000
   218 C95      -4.1654    4.5133    3.7657   C.3       1 RES1   0.0000
   219 C96      -4.3537    4.8550    5.2531   C.3       1 RES1   0.0000
   220 C97      -3.9604    3.7449    6.2422   C.3       1 RES1   0.0000
   221 C98      -5.1524    3.1372    6.9896   C.3       1 RES1   0.0000
   222 C99      -4.6902    2.1235    8.0401   C.3       1 RES1   0.0000
   223 C100     -5.7777    1.7360    9.0357   C.3       1 RES1   0.0000
   224 C101     -0.2278    5.1573    1.6475   C.3       1 RES1   0.0000
   225 C102      1.2416    4.8106    1.8276   C.3       1 RES1   0.0000
   226 C103      1.4570    4.0577    3.1362   C.3       1 RES1   0.0000
   227 C104      2.8881    3.5584    3.3015   C.3       1 RES1   0.0000
   228 C105      3.0774    2.7940    4.6116   C.3       1 RES1   0.0000
   229 C106      2.0702    1.6522    4.7338   C.3       1 RES1   0.0000
   230 C107      2.3800    0.7043    5.8921   C.3       1 RES1   0.0000
   231 C108      1.7810   -0.6915    5.7207   C.3       1 RES1   0.0000
   232 H109      6.9261   -5.0785    1.2883   H         1 RES1   0.0000
   233 H110      7.4077   -3.4009    1.0064   H         1 RES1   0.0000
   234 H111      8.2402   -4.7091    0.1845   H         1 RES1   0.0000
   235 H112      5.2607   -4.2439   -0.2471   H         1 RES1   0.0000
   236 H113      6.3637   -5.2170   -1.2037   H         1 RES1   0.0000
   237 H114      6.3268   -3.3572   -2.5799   H         1 RES1   0.0000
   238 H115      7.6033   -2.8335   -1.4958   H         1 RES1   0.0000
   239 H116      5.7570   -1.7000   -0.0917   H         1 RES1   0.0000
   240 H117      4.6656   -2.0320   -1.4386   H         1 RES1   0.0000
   241 H118      6.3817   -0.8077   -2.9303   H         1 RES1   0.0000
   242 H119      7.2095   -0.3636   -1.4529   H         1 RES1   0.0000
   243 H120      5.9540    1.5166   -1.9351   H         1 RES1   0.0000
   244 H121      4.9832    0.7258   -0.6984   H         1 RES1   0.0000
   245 H122      3.3821   -0.0462   -2.3439   H         1 RES1   0.0000
   246 H123      4.4453    0.4100   -3.6799   H         1 RES1   0.0000
   247 H124      4.0671    2.7240   -3.3477   H         1 RES1   0.0000
   248 H125      3.5728    2.4916   -1.6653   H         1 RES1   0.0000
   249 H126      2.6219    3.2524   -4.7338   H         1 RES1   0.0000
   250 H127      1.0133    3.5865   -4.0990   H         1 RES1   0.0000
   251 H128      0.8291    2.4426   -6.2204   H         1 RES1   0.0000
   252 H129      0.2396    1.3707   -4.9644   H         1 RES1   0.0000
   253 H130      1.5245   -0.2003   -5.9088   H         1 RES1   0.0000
   254 H131      2.8463    0.5632   -5.0679   H         1 RES1   0.0000
   255 H132      3.8326    0.8218   -7.1263   H         1 RES1   0.0000
   256 H133      2.6112    2.0273   -7.4842   H         1 RES1   0.0000
   257 H134      2.6333    0.4234   -9.2667   H         1 RES1   0.0000
   258 H135      1.1314    0.1831   -8.3782   H         1 RES1   0.0000
   259 H136      2.1785   -1.7562   -7.1746   H         1 RES1   0.0000
   260 H137      3.6909   -1.4601   -8.0396   H         1 RES1   0.0000
   261 H138      2.6291   -2.0089  -10.1738   H         1 RES1   0.0000
   262 H139      1.0559   -2.1830   -9.3915   H         1 RES1   0.0000
   263 H140      3.5119   -3.9073   -8.7888   H         1 RES1   0.0000
   264 H141      2.1450   -4.3904   -9.7912   H         1 RES1   0.0000
   265 H142      1.9113   -4.1108   -8.0665   H         1 RES1   0.0000
   266 H143     -0.5879    2.0606   -3.3313   H         1 RES1   0.0000
   267 H144     -0.2529    3.2685   -2.0962   H         1 RES1   0.0000
   268 H145     -1.9592    0.6100   -3.1460   H         1 RES1   0.0000
   269 H146     -3.1855    1.5280   -2.2707   H         1 RES1   0.0000
   270 H147     -4.4690   -1.7019   -3.7099   H         1 RES1   0.0000
   271 H148     -4.1185    0.0298   -3.5779   H         1 RES1   0.0000
   272 H149     -6.5742   -1.1141   -2.2294   H         1 RES1   0.0000
   273 H150     -6.5393   -0.8345   -3.9450   H         1 RES1   0.0000
   274 H151     -6.3897    1.5083   -3.7002   H         1 RES1   0.0000
   275 H152     -5.8419    1.3864   -2.0231   H         1 RES1   0.0000
   276 H153     -8.0496    0.3809   -1.3984   H         1 RES1   0.0000
   277 H154     -8.5985    0.6202   -3.0524   H         1 RES1   0.0000
   278 H155     -8.4560    3.0330   -2.8141   H         1 RES1   0.0000
   279 H156     -7.6967    2.8965   -1.2411   H         1 RES1   0.0000
   280 H157    -10.2934    1.5017   -1.3427   H         1 RES1   0.0000
   281 H158    -10.4135    3.2121   -1.7083   H         1 RES1   0.0000
   282 H159    -10.7572    3.0932    0.5887   H         1 RES1   0.0000
   283 H160     -9.1182    3.7005    0.4078   H         1 RES1   0.0000
   284 H161     -9.9589    0.8555    1.1531   H         1 RES1   0.0000
   285 H162     -9.2392    2.0524    2.2167   H         1 RES1   0.0000
   286 H163     -8.2836    1.3464    0.9227   H         1 RES1   0.0000
   287 H164     -3.7652   -2.3484   -0.1853   H         1 RES1   0.0000
   288 H165     -3.2093   -3.0689   -1.6866   H         1 RES1   0.0000
   289 H166     -5.1373   -4.2418   -1.2279   H         1 RES1   0.0000
   290 H167     -5.6505   -3.1152   -2.4589   H         1 RES1   0.0000
   291 H168     -7.3982   -3.0475   -0.9246   H         1 RES1   0.0000
   292 H169     -6.4623   -1.6602   -0.3801   H         1 RES1   0.0000
   293 H170     -6.5369   -2.5899    1.6726   H         1 RES1   0.0000
   294 H171     -5.3000   -3.6912    1.0700   H         1 RES1   0.0000
   295 H172     -6.7639   -5.2346    1.8785   H         1 RES1   0.0000
   296 H173     -7.4692   -5.0830    0.2770   H         1 RES1   0.0000
   297 H174     -8.3731   -3.4384    2.6794   H         1 RES1   0.0000
   298 H175     -9.0315   -5.0287    2.3248   H         1 RES1   0.0000
   299 H176     -9.2230   -2.6896    0.3798   H         1 RES1   0.0000
   300 H177    -10.4518   -3.1290    1.5573   H         1 RES1   0.0000
   301 H178     -9.5292   -4.8608   -0.7836   H         1 RES1   0.0000
   302 H179    -11.1169   -4.1533   -0.5158   H         1 RES1   0.0000
   303 H180    -10.5475   -5.4441    0.5319   H         1 RES1   0.0000
   304 H181     -2.6662    1.9286    0.0674   H         1 RES1   0.0000
   305 H182     -2.2589    3.3362   -0.9373   H         1 RES1   0.0000
   306 H183     -3.2119    3.6125    1.3908   H         1 RES1   0.0000
   307 H184     -2.8621    5.3522    1.2655   H         1 RES1   0.0000
   308 H185     -2.2548    5.4530    3.6263   H         1 RES1   0.0000
   309 H186     -2.1630    3.6939    3.7313   H         1 RES1   0.0000
   310 H187     -4.6189    3.5367    3.5905   H         1 RES1   0.0000
   311 H188     -4.7246    5.2542    3.1923   H         1 RES1   0.0000
   312 H189     -5.4131    5.0733    5.3972   H         1 RES1   0.0000
   313 H190     -3.8148    5.7728    5.4837   H         1 RES1   0.0000
   314 H191     -3.2801    4.1492    6.9924   H         1 RES1   0.0000
   315 H192     -3.4392    2.9478    5.7152   H         1 RES1   0.0000
   316 H193     -5.8296    2.6523    6.2809   H         1 RES1   0.0000
   317 H194     -5.7048    3.9329    7.4924   H         1 RES1   0.0000
   318 H195     -3.8500    2.5524    8.5929   H         1 RES1   0.0000
   319 H196     -4.3334    1.2201    7.5362   H         1 RES1   0.0000
   320 H197     -6.1263    2.6107    9.5789   H         1 RES1   0.0000
   321 H198     -5.3812    1.0235    9.7567   H         1 RES1   0.0000
   322 H199     -6.6295    1.2799    8.5355   H         1 RES1   0.0000
   323 H200     -0.5747    5.6505    2.5535   H         1 RES1   0.0000
   324 H201     -0.3442    5.8693    0.8213   H         1 RES1   0.0000
   325 H202      1.7808    5.7598    1.8637   H         1 RES1   0.0000
   326 H203      1.6172    4.2281    0.9818   H         1 RES1   0.0000
   327 H204      0.7800    3.2025    3.1405   H         1 RES1   0.0000
   328 H205      1.2042    4.7093    3.9761   H         1 RES1   0.0000
   329 H206      3.5848    4.3975    3.2605   H         1 RES1   0.0000
   330 H207      3.1260    2.8909    2.4692   H         1 RES1   0.0000
   331 H208      2.9674    3.4658    5.4656   H         1 RES1   0.0000
   332 H209      4.0938    2.3999    4.6405   H         1 RES1   0.0000
   333 H210      2.0065    1.1187    3.7784   H         1 RES1   0.0000
   334 H211      1.0994    2.0942    4.9011   H         1 RES1   0.0000
   335 H212      2.0109    1.1343    6.8243   H         1 RES1   0.0000
   336 H213      3.4558    0.6177    5.9882   H         1 RES1   0.0000
   337 H214      0.7622   -0.7166    6.0914   H         1 RES1   0.0000
   338 H215      2.3498   -1.4316    6.2818   H         1 RES1   0.0000
   339 H216      1.7671   -0.9912    4.6696   H         1 RES1   0.0000
@<TRIPOS>BOND
     1     1    20    1
     2     1    22    1
     3     1    25    1
     4     1    45    1
     5     1   189    1
     6     1   191    1
     7     1   194    1
     8     1   214    1
     9     2     3    1
    10     2    63    1
    11     2    64    1
    12     2    65    1
    13     3     4    1
    14     3    66    1
    15     3    67    1
    16     4     5    1
    17     4    68    1
    18     4    69    1
    19     5     6    1
    20     5    70    1
    21     5    71    1
    22     6     7    1
    23     6    72    1
    24     6    73    1
    25     7     8    1
    26     7    74    1
    27     7    75    1
    28     8     9    1
    29     8    76    1
    30     8    77    1
    31     9    10    1
    32     9    78    1
    33     9    79    1
    34    10    11    1
    35    10    19    1
    36    11    12    1
    37    11    80    1
    38    11    81    1
    39    12    13    1
    40    12    82    1
    41    12    83    1
    42    13    14    1
    43    13    84    1
    44    13    85    1
    45    14    15    1
    46    14    86    1
    47    14    87    1
    48    15    16    1
    49    15    88    1
    50    15    89    1
    51    16    17    1
    52    16    90    1
    53    16    91    1
    54    17    18    1
    55    17    92    1
    56    17    93    1
    57    18    94    1
    58    18    95    1
    59    18    96    1
    60    19    20    2
    61    19    21    1
    62    21    22    1
    63    21    97    1
    64    21    98    1
    65    22    23    1
    66    22    43    1
    67    23    24    1
    68    23    99    1
    69    23   100    1
    70    24    25    2
    71    24    26    1
    72    26    27    1
    73    26    35    1
    74    27    28    1
    75    27   101    1
    76    27   102    1
    77    28    29    1
    78    28   103    1
    79    28   104    1
    80    29    30    1
    81    29   105    1
    82    29   106    1
    83    30    31    1
    84    30   107    1
    85    30   108    1
    86    31    32    1
    87    31   109    1
    88    31   110    1
    89    32    33    1
    90    32   111    1
    91    32   112    1
    92    33    34    1
    93    33   113    1
    94    33   114    1
    95    34   115    1
    96    34   116    1
    97    34   117    1
    98    35    36    1
    99    35   118    1
   100    35   119    1
   101    36    37    1
   102    36   120    1
   103    36   121    1
   104    37    38    1
   105    37   122    1
   106    37   123    1
   107    38    39    1
   108    38   124    1
   109    38   125    1
   110    39    40    1
   111    39   126    1
   112    39   127    1
   113    40    41    1
   114    40   128    1
   115    40   129    1
   116    41    42    1
   117    41   130    1
   118    41   131    1
   119    42   132    1
   120    42   133    1
   121    42   134    1
   122    43    44    1
   123    43   135    1
   124    43   136    1
   125    44    45    2
   126    44    46    1
   127    46    47    1
   128    46    55    1
   129    47    48    1
   130    47   137    1
   131    47   138    1
   132    48    49    1
   133    48   139    1
   134    48   140    1
   135    49    50    1
   136    49   141    1
   137    49   142    1
   138    50    51    1
   139    50   143    1
   140    50   144    1
   141    51    52    1
   142    51   145    1
   143    51   146    1
   144    52    53    1
   145    52   147    1
   146    52   148    1
   147    53    54    1
   148    53   149    1
   149    53   150    1
   150    54   151    1
   151    54   152    1
   152    54   153    1
   153    55    56    1
   154    55   154    1
   155    55   155    1
   156    56    57    1
   157    56   156    1
   158    56   157    1
   159    57    58    1
   160    57   158    1
   161    57   159    1
   162    58    59    1
   163    58   160    1
   164    58   161    1
   165    59    60    1
   166    59   162    1
   167    59   163    1
   168    60    61    1
   169    60   164    1
   170    60   165    1
   171    61    62    1
   172    61   166    1
   173    61   167    1
   174    62   168    1
   175    62   169    1
   176    62   170    1
   177   171   172    1
   178   171   232    1
   179   171   233    1
   180   171   234    1
   181   172   173    1
   182   172   235    1
   183   172   236    1
   184   173   174    1
   185   173   237    1
   186   173   238    1
   187   174   175    1
   188   174   239    1
   189   174   240    1
   190   175   176    1
   191   175   241    1
   192   175   242    1
   193   176   177    1
   194   176   243    1
   195   176   244    1
   196   177   178    1
   197   177   245    1
   198   177   246    1
   199   178   179    1
   200   178   247    1
   201   178   248    1
   202   179   180    1
   203   179   188    1
   204   180   181    1
   205   180   249    1
   206   180   250    1
   207   181   182    1
   208   181   251    1
   209   181   252    1
   210   182   183    1
   211   182   253    1
   212   182   254    1
   213   183   184    1
   214   183   255    1
   215   183   256    1
   216   184   185    1
   217   184   257    1
   218   184   258    1
   219   185   186    1
   220   185   259    1
   221   185   260    1
   222   186   187    1
   223   186   261    1
   224   186   262    1
   225   187   263    1
   226   187   264    1
   227   187   265    1
   228   188   189    2
   229   188   190    1
   230   190   191    1
   231   190   266    1
   232   190   267    1
   233   191   192    1
   234   191   212    1
   235   192   193    1
   236   192   268    1
   237   192   269    1
   238   193   194    2
   239   193   195    1
   240   195   196    1
   241   195   204    1
   242   196   197    1
   243   196   270    1
   244   196   271    1
   245   197   198    1
   246   197   272    1
   247   197   273    1
   248   198   199    1
   249   198   274    1
   250   198   275    1
   251   199   200    1
   252   199   276    1
   253   199   277    1
   254   200   201    1
   255   200   278    1
   256   200   279    1
   257   201   202    1
   258   201   280    1
   259   201   281    1
   260   202   203    1
   261   202   282    1
   262   202   283    1
   263   203   284    1
   264   203   285    1
   265   203   286    1
   266   204   205    1
   267   204   287    1
   268   204   288    1
   269   205   206    1
   270   205   289    1
   271   205   290    1
   272   206   207    1
   273   206   291    1
   274   206   292    1
   275   207   208    1
   276   207   293    1
   277   207   294    1
   278   208   209    1
   279   208   295    1
   280   208   296    1
   281   209   210    1
   282   209   297    1
   283   209   298    1
   284   210   211    1
   285   210   299    1
   286   210   300    1
   287   211   301    1
   288   211   302    1
   289   211   303    1
   290   212   213    1
   291   212   304    1
   292   212   305    1
   293   213   214    2
   294   213   215    1
   295   215   216    1
   296   215   224    1
   297   216   217    1
   298   216   306    1
   299   216   307    1
   300   217   218    1
   301   217   308    1
   302   217   309    1
   303   218   219    1
   304   218   310    1
   305   218   311    1
   306   219   220    1
   307   219   312    1
   308   219   313    1
   309   220   221    1
   310   220   314    1
   311   220   315    1
   312   221   222    1
   313   221   316    1
   314   221   317    1
   315   222   223    1
   316   222   318    1
   317   222   319    1
   318   223   320    1
   319   223   321    1
   320   223   322    1
   321   224   225    1
   322   224   323    1
   323   224   324    1
   324   225   226    1
   325   225   325    1
   326   225   326    1
   327   226   227    1
   328   226   327    1
   329   226   328    1
   330   227   228    1
   331   227   329    1
   332   227   330    1
   333   228   229    1
   334   228   331    1
   335   228   332    1
   336   229   230    1
   337   229   333    1
   338   229   334    1
   339   230   231    1
   340   230   335    1
   341   230   336    1
   342   231   337    1
   343   231   338    1
   344   231   339    1
@<TRIPOS>SUBSTRUCTURE
     1 RES1      339 GROUP             0 ****  ****    0  
