@<TRIPOS>MOLECULE
YEMSEP_geometry_0_nunpairedes_0_charge_2 Charge: 2 Unpaired_Electrons: 2 XTB_Unpaired_Electrons: 0 XTB_Charge: 2
   119   129     1     0     0
SMALL
NoCharges
****
Generated from Architector

@<TRIPOS>ATOM
     1 Tm1      -0.0854    0.2715    0.0067   Tm        1 RES1   0.0000
     2 C1        3.3885   -5.2699   -1.8398   C.3       1 RES1   0.0000
     3 C2        3.2606   -3.7446   -1.8478   C.3       1 RES1   0.0000
     4 N1        2.7969   -3.1707   -0.5864   N.am      1 RES1   0.0000
     5 C3        1.6527   -2.4704   -0.5206   C.2       1 RES1   0.0000
     6 O1        1.3511   -1.7271    0.4294   O.2       1 RES1   0.0000
     7 C4        0.5715   -2.5998   -1.5808   C.ar      1 RES1   0.0000
     8 C5        0.2276   -3.8008   -2.1962   C.ar      1 RES1   0.0000
     9 C6       -0.9366   -3.8505   -2.9486   C.ar      1 RES1   0.0000
    10 C7       -1.7704   -2.7416   -3.0243   C.ar      1 RES1   0.0000
    11 C8       -1.3764   -1.5743   -2.3750   C.ar      1 RES1   0.0000
    12 C9       -2.2317   -0.3578   -2.1033   C.2       1 RES1   0.0000
    13 O2       -1.9627    0.1906   -1.0076   O.2       1 RES1   0.0000
    14 N2       -3.2160    0.1010   -2.8775   N.am      1 RES1   0.0000
    15 C10      -3.4615   -0.3420   -4.2449   C.3       1 RES1   0.0000
    16 C11      -4.8476   -0.9606   -4.4220   C.3       1 RES1   0.0000
    17 C12      -4.0199    1.2086   -2.4205   C.ar      1 RES1   0.0000
    18 C13      -4.5382    2.1320   -3.3300   C.ar      1 RES1   0.0000
    19 C14      -5.2781    3.2131   -2.8850   C.ar      1 RES1   0.0000
    20 C15      -5.4931    3.4185   -1.5351   C.ar      1 RES1   0.0000
    21 C16      -5.0030    2.5046   -0.6136   C.ar      1 RES1   0.0000
    22 C17      -5.2059    2.7089    0.8564   C.3       1 RES1   0.0000
    23 C18      -4.3010    1.3936   -1.0679   C.ar      1 RES1   0.0000
    24 N3       -0.2163   -1.5222   -1.6905   N.ar      1 RES1   0.0000
    25 C19       3.7180   -3.2854    0.5119   C.ar      1 RES1   0.0000
    26 C20       5.0438   -3.6565    0.2681   C.ar      1 RES1   0.0000
    27 C21       5.9334   -3.8609    1.3069   C.ar      1 RES1   0.0000
    28 C22       5.5385   -3.6828    2.6177   C.ar      1 RES1   0.0000
    29 C23       4.2343   -3.2956    2.8904   C.ar      1 RES1   0.0000
    30 C24       3.8149   -3.0969    4.3170   C.3       1 RES1   0.0000
    31 C25       3.3352   -3.1067    1.8415   C.ar      1 RES1   0.0000
    32 H1        3.5983   -5.5893   -2.8581   H         1 RES1   0.0000
    33 H2        2.4830   -5.7681   -1.4953   H         1 RES1   0.0000
    34 H3        4.2001   -5.6119   -1.2027   H         1 RES1   0.0000
    35 H4        2.5867   -3.4297   -2.6417   H         1 RES1   0.0000
    36 H5        4.2322   -3.2937   -2.0689   H         1 RES1   0.0000
    37 H6        0.8125   -4.6935   -2.0490   H         1 RES1   0.0000
    38 H7       -1.2127   -4.7712   -3.4412   H         1 RES1   0.0000
    39 H8       -2.7246   -2.8269   -3.5203   H         1 RES1   0.0000
    40 H9       -2.6782   -1.0349   -4.5421   H         1 RES1   0.0000
    41 H10      -3.3776    0.5269   -4.9024   H         1 RES1   0.0000
    42 H11      -4.9896   -1.8329   -3.7874   H         1 RES1   0.0000
    43 H12      -4.9675   -1.2589   -5.4610   H         1 RES1   0.0000
    44 H13      -5.6290   -0.2425   -4.1852   H         1 RES1   0.0000
    45 H14      -4.3682    2.0493   -4.3912   H         1 RES1   0.0000
    46 H15      -5.6785    3.9056   -3.6092   H         1 RES1   0.0000
    47 H16      -6.0423    4.2814   -1.1925   H         1 RES1   0.0000
    48 H17      -5.7687    3.6203    1.0458   H         1 RES1   0.0000
    49 H18      -4.2391    2.7884    1.3556   H         1 RES1   0.0000
    50 H19      -5.7477    1.8686    1.2909   H         1 RES1   0.0000
    51 H20      -3.9590    0.6836   -0.3297   H         1 RES1   0.0000
    52 H21       5.4289   -3.7995   -0.7261   H         1 RES1   0.0000
    53 H22       6.9416   -4.1711    1.0777   H         1 RES1   0.0000
    54 H23       6.2359   -3.8456    3.4253   H         1 RES1   0.0000
    55 H24       4.6427   -3.3041    4.9920   H         1 RES1   0.0000
    56 H25       2.9957   -3.7644    4.5768   H         1 RES1   0.0000
    57 H26       3.4852   -2.0723    4.4840   H         1 RES1   0.0000
    58 H27       2.3246   -2.8149    2.0807   H         1 RES1   0.0000
    59 C26      -2.8328   -0.8218    5.7174   C.3       1 RES1   0.0000
    60 C27      -1.7299   -1.5253    4.9290   C.3       1 RES1   0.0000
    61 N4       -1.9606   -1.4800    3.4912   N.am      1 RES1   0.0000
    62 C28      -1.1633   -0.7922    2.6669   C.2       1 RES1   0.0000
    63 O3       -1.2352   -0.9308    1.4268   O.2       1 RES1   0.0000
    64 C29      -0.1070    0.2083    3.1320   C.ar      1 RES1   0.0000
    65 C30      -0.0656    1.0037    4.2755   C.ar      1 RES1   0.0000
    66 C31       0.9041    1.9994    4.3651   C.ar      1 RES1   0.0000
    67 C32       1.7766    2.2386    3.3141   C.ar      1 RES1   0.0000
    68 C33       1.7024    1.3912    2.2104   C.ar      1 RES1   0.0000
    69 C34       2.4629    1.5272    0.9084   C.2       1 RES1   0.0000
    70 O4        1.9697    0.9483   -0.0881   O.2       1 RES1   0.0000
    71 N5        3.5632    2.2630    0.7595   N.am      1 RES1   0.0000
    72 C35       4.1081    2.3868   -0.5963   C.3       1 RES1   0.0000
    73 C36       3.3034    3.3232   -1.4908   C.3       1 RES1   0.0000
    74 C37       4.4039    2.7004    1.8154   C.ar      1 RES1   0.0000
    75 C38       4.6527    1.8339    2.8761   C.ar      1 RES1   0.0000
    76 C39       5.4629    2.2511    3.9151   C.ar      1 RES1   0.0000
    77 C40       6.0605    3.4990    3.8778   C.ar      1 RES1   0.0000
    78 C41       5.8870    4.3419    2.7876   C.ar      1 RES1   0.0000
    79 C42       6.5737    5.6678    2.7288   C.3       1 RES1   0.0000
    80 C43       5.0465    3.9315    1.7545   C.ar      1 RES1   0.0000
    81 N6        0.7947    0.4129    2.1631   N.ar      1 RES1   0.0000
    82 C44      -3.0326   -2.3125    3.0081   C.ar      1 RES1   0.0000
    83 C45      -3.5301   -3.3387    3.8172   C.ar      1 RES1   0.0000
    84 C46      -4.5595   -4.1536    3.3864   C.ar      1 RES1   0.0000
    85 C47      -5.1160   -3.9871    2.1348   C.ar      1 RES1   0.0000
    86 C48      -4.6567   -2.9669    1.3151   C.ar      1 RES1   0.0000
    87 C49      -5.2602   -2.7893   -0.0482   C.3       1 RES1   0.0000
    88 C50      -3.6364   -2.1297    1.7624   C.ar      1 RES1   0.0000
    89 H28      -2.5890   -0.8793    6.7750   H         1 RES1   0.0000
    90 H29      -3.7952   -1.3046    5.5621   H         1 RES1   0.0000
    91 H30      -2.9434    0.2234    5.4312   H         1 RES1   0.0000
    92 H31      -1.6801   -2.5755    5.2219   H         1 RES1   0.0000
    93 H32      -0.7526   -1.1009    5.1401   H         1 RES1   0.0000
    94 H33      -0.7863    0.9181    5.0702   H         1 RES1   0.0000
    95 H34       0.9376    2.6275    5.2451   H         1 RES1   0.0000
    96 H35       2.4606    3.0718    3.3419   H         1 RES1   0.0000
    97 H36       4.1172    1.3883   -1.0415   H         1 RES1   0.0000
    98 H37       5.1343    2.7419   -0.5012   H         1 RES1   0.0000
    99 H38       2.2871    2.9539   -1.6291   H         1 RES1   0.0000
   100 H39       3.7946    3.3654   -2.4611   H         1 RES1   0.0000
   101 H40       3.2624    4.3336   -1.0867   H         1 RES1   0.0000
   102 H41       4.2173    0.8423    2.8619   H         1 RES1   0.0000
   103 H42       5.6301    1.5885    4.7491   H         1 RES1   0.0000
   104 H43       6.6843    3.8175    4.6955   H         1 RES1   0.0000
   105 H44       7.1463    5.8486    3.6338   H         1 RES1   0.0000
   106 H45       5.8435    6.4667    2.6143   H         1 RES1   0.0000
   107 H46       7.2538    5.7139    1.8793   H         1 RES1   0.0000
   108 H47       4.9001    4.5824    0.9029   H         1 RES1   0.0000
   109 H48      -3.1426   -3.5454    4.8000   H         1 RES1   0.0000
   110 H49      -4.9188   -4.9270    4.0478   H         1 RES1   0.0000
   111 H50      -5.9058   -4.6406    1.7986   H         1 RES1   0.0000
   112 H51      -6.0303   -3.5396   -0.2219   H         1 RES1   0.0000
   113 H52      -4.4936   -2.8942   -0.8173   H         1 RES1   0.0000
   114 H53      -5.7155   -1.8044   -0.1462   H         1 RES1   0.0000
   115 H54      -3.3181   -1.3333    1.1064   H         1 RES1   0.0000
   116 N7       -0.9811    2.5582   -0.2058   N.3       1 RES1   0.0000
   117 O5       -1.6190    3.5425   -0.3781   O.2       1 RES1   0.0000
   118 O6       -0.9866    1.9705    0.8953   O.co2     1 RES1   0.0000
   119 O7       -0.2357    2.0982   -1.0848   O.co2     1 RES1   0.0000
@<TRIPOS>BOND
     1     1     6    1
     2     1    13    1
     3     1    24    1
     4     1    63    1
     5     1    70    1
     6     1    81    1
     7     1   118    1
     8     1   119    1
     9     2     3    1
    10     2    32    1
    11     2    33    1
    12     2    34    1
    13     3     4    1
    14     3    35    1
    15     3    36    1
    16     4     5    1
    17     4    25    1
    18     5     6    2
    19     5     7    1
    20     7     8    1
    21     7    24    2
    22     8     9    2
    23     8    37    1
    24     9    10    1
    25     9    38    1
    26    10    11    2
    27    10    39    1
    28    11    12    1
    29    11    24    1
    30    12    13    2
    31    12    14    1
    32    14    15    1
    33    14    17    1
    34    15    16    1
    35    15    40    1
    36    15    41    1
    37    16    42    1
    38    16    43    1
    39    16    44    1
    40    17    18    1
    41    17    23    2
    42    18    19    2
    43    18    45    1
    44    19    20    1
    45    19    46    1
    46    20    21    2
    47    20    47    1
    48    21    22    1
    49    21    23    1
    50    22    48    1
    51    22    49    1
    52    22    50    1
    53    23    51    1
    54    25    26    1
    55    25    31    2
    56    26    27    2
    57    26    52    1
    58    27    28    1
    59    27    53    1
    60    28    29    2
    61    28    54    1
    62    29    30    1
    63    29    31    1
    64    30    55    1
    65    30    56    1
    66    30    57    1
    67    31    58    1
    68    59    60    1
    69    59    89    1
    70    59    90    1
    71    59    91    1
    72    60    61    1
    73    60    92    1
    74    60    93    1
    75    61    62    1
    76    61    82    1
    77    62    63    2
    78    62    64    1
    79    64    65    1
    80    64    81    2
    81    65    66    2
    82    65    94    1
    83    66    67    1
    84    66    95    1
    85    67    68    2
    86    67    96    1
    87    68    69    1
    88    68    81    1
    89    69    70    2
    90    69    71    1
    91    71    72    1
    92    71    74    1
    93    72    73    1
    94    72    97    1
    95    72    98    1
    96    73    99    1
    97    73   100    1
    98    73   101    1
    99    74    75    1
   100    74    80    2
   101    75    76    2
   102    75   102    1
   103    76    77    1
   104    76   103    1
   105    77    78    2
   106    77   104    1
   107    78    79    1
   108    78    80    1
   109    79   105    1
   110    79   106    1
   111    79   107    1
   112    80   108    1
   113    82    83    1
   114    82    88    2
   115    83    84    2
   116    83   109    1
   117    84    85    1
   118    84   110    1
   119    85    86    2
   120    85   111    1
   121    86    87    1
   122    86    88    1
   123    87   112    1
   124    87   113    1
   125    87   114    1
   126    88   115    1
   127   116   117    2
   128   116   118    1
   129   116   119    1
@<TRIPOS>SUBSTRUCTURE
     1 RES1      119 GROUP             0 ****  ****    0  
