@<TRIPOS>MOLECULE
dodecahedral_0_nunpairedes_0_charge_2 Charge: 2 Unpaired_Electrons: 2 XTB_Unpaired_Electrons: 0 XTB_Charge: 2
   327   331     1     0     0
SMALL
NoCharges
****
Generated from Architector

@<TRIPOS>ATOM
     1 Tm1      -0.0505   -0.0001    0.1253   Tm        1 RES1   0.0000
     2 C1        7.3638   -7.3671    3.6004   C.3       1 RES1   0.0000
     3 C2        7.3103   -6.6792    2.2381   C.3       1 RES1   0.0000
     4 C3        8.6345   -6.7486    1.4746   C.3       1 RES1   0.0000
     5 C4        9.7010   -5.7984    2.0281   C.3       1 RES1   0.0000
     6 C5        9.7339   -4.3885    1.4307   C.3       1 RES1   0.0000
     7 C6        8.6674   -3.4050    1.9277   C.3       1 RES1   0.0000
     8 C7        9.0911   -1.9520    1.6398   C.3       1 RES1   0.0000
     9 C8        8.0944   -1.1092    0.8427   C.3       1 RES1   0.0000
    10 C9        7.9595   -1.5114   -0.6362   C.3       1 RES1   0.0000
    11 C10       6.9772   -2.6391   -0.9825   C.3       1 RES1   0.0000
    12 C11       5.5808   -2.3721   -0.4339   C.3       1 RES1   0.0000
    13 C12       4.5286   -3.3955   -0.8635   C.3       1 RES1   0.0000
    14 N1        3.2779   -3.1920   -0.1408   N.am      1 RES1   0.0000
    15 C13       3.0408   -4.0955    0.9888   C.3       1 RES1   0.0000
    16 C14       3.9091   -3.8236    2.2243   C.3       1 RES1   0.0000
    17 C15       3.9643   -5.0320    3.1739   C.3       1 RES1   0.0000
    18 C16       3.7671   -4.7685    4.6766   C.3       1 RES1   0.0000
    19 C17       4.3572   -3.4838    5.2605   C.3       1 RES1   0.0000
    20 C18       5.8657   -3.3065    5.1149   C.3       1 RES1   0.0000
    21 C19       6.3393   -2.0163    5.8064   C.3       1 RES1   0.0000
    22 C20       6.9956   -2.1953    7.1805   C.3       1 RES1   0.0000
    23 C21       6.0653   -2.6348    8.3215   C.3       1 RES1   0.0000
    24 C22       5.9624   -4.1518    8.4799   C.3       1 RES1   0.0000
    25 C23       5.0786   -4.5816    9.6485   C.3       1 RES1   0.0000
    26 C24       3.6015   -4.2909    9.4223   C.3       1 RES1   0.0000
    27 C25       2.3913   -2.2626   -0.4824   C.2       1 RES1   0.0000
    28 O1        1.3879   -1.9598    0.1885   O.2       1 RES1   0.0000
    29 C26       2.5888   -1.5415   -1.8239   C.3       1 RES1   0.0000
    30 O2        1.5725   -0.5567   -1.9072   O.3       1 RES1   0.0000
    31 C27       1.6852    0.3191   -3.0176   C.3       1 RES1   0.0000
    32 C28       0.7428    1.4846   -2.7038   C.2       1 RES1   0.0000
    33 O3        0.1083    1.4273   -1.6339   O.2       1 RES1   0.0000
    34 N2        0.6625    2.5286   -3.5210   N.am      1 RES1   0.0000
    35 C29      -0.1593    3.6593   -3.0798   C.3       1 RES1   0.0000
    36 C30       0.2925    4.3139   -1.7693   C.3       1 RES1   0.0000
    37 C31       1.5023    5.2475   -1.8021   C.3       1 RES1   0.0000
    38 C32       1.6170    5.9747   -0.4549   C.3       1 RES1   0.0000
    39 C33       2.7684    6.9769   -0.3806   C.3       1 RES1   0.0000
    40 C34       3.0026    7.4907    1.0435   C.3       1 RES1   0.0000
    41 C35       3.7115    6.4839    1.9614   C.3       1 RES1   0.0000
    42 C36       5.2079    6.7562    2.1741   C.3       1 RES1   0.0000
    43 C37       6.0658    6.7681    0.9072   C.3       1 RES1   0.0000
    44 C38       6.1429    5.4202    0.1939   C.3       1 RES1   0.0000
    45 C39       6.8477    5.5252   -1.1684   C.3       1 RES1   0.0000
    46 C40       8.2846    5.0211   -1.1496   C.3       1 RES1   0.0000
    47 C41       0.9624    2.4439   -4.9486   C.3       1 RES1   0.0000
    48 C42      -0.2323    1.9676   -5.7942   C.3       1 RES1   0.0000
    49 C43      -0.5970    0.4812   -5.6349   C.3       1 RES1   0.0000
    50 C44      -1.4830    0.2266   -4.4123   C.3       1 RES1   0.0000
    51 C45      -1.4778   -1.1975   -3.8386   C.3       1 RES1   0.0000
    52 C46      -2.1259   -1.1448   -2.4508   C.3       1 RES1   0.0000
    53 C47      -2.7523   -2.4240   -1.8913   C.3       1 RES1   0.0000
    54 C48      -3.7672   -2.0247   -0.8146   C.3       1 RES1   0.0000
    55 C49      -4.4018   -3.1952   -0.0564   C.3       1 RES1   0.0000
    56 C50      -4.4871   -2.9337    1.4477   C.3       1 RES1   0.0000
    57 C51      -5.3402   -1.7217    1.8153   C.3       1 RES1   0.0000
    58 C52      -5.6135   -1.6818    3.3125   C.3       1 RES1   0.0000
    59 H1        6.3941   -7.3143    4.0937   H         1 RES1   0.0000
    60 H2        8.0995   -6.9012    4.2516   H         1 RES1   0.0000
    61 H3        7.6329   -8.4154    3.4893   H         1 RES1   0.0000
    62 H4        7.0452   -5.6298    2.3737   H         1 RES1   0.0000
    63 H5        6.5252   -7.1551    1.6469   H         1 RES1   0.0000
    64 H6        8.4576   -6.5383    0.4169   H         1 RES1   0.0000
    65 H7        9.0048   -7.7730    1.5315   H         1 RES1   0.0000
    66 H8       10.6827   -6.2403    1.8419   H         1 RES1   0.0000
    67 H9        9.5841   -5.7192    3.1078   H         1 RES1   0.0000
    68 H10       9.6780   -4.4500    0.3396   H         1 RES1   0.0000
    69 H11      10.7093   -3.9704    1.6841   H         1 RES1   0.0000
    70 H12       8.5243   -3.5351    3.0014   H         1 RES1   0.0000
    71 H13       7.7183   -3.6203    1.4479   H         1 RES1   0.0000
    72 H14      10.0273   -1.9580    1.0811   H         1 RES1   0.0000
    73 H15       9.2917   -1.4393    2.5843   H         1 RES1   0.0000
    74 H16       8.4583   -0.0779    0.8572   H         1 RES1   0.0000
    75 H17       7.1237   -1.0983    1.3406   H         1 RES1   0.0000
    76 H18       8.9461   -1.7979   -1.0033   H         1 RES1   0.0000
    77 H19       7.6447   -0.6253   -1.1948   H         1 RES1   0.0000
    78 H20       7.3363   -3.5950   -0.6128   H         1 RES1   0.0000
    79 H21       6.9319   -2.7124   -2.0715   H         1 RES1   0.0000
    80 H22       5.2733   -1.3785   -0.7519   H         1 RES1   0.0000
    81 H23       5.6207   -2.3643    0.6520   H         1 RES1   0.0000
    82 H24       4.8758   -4.4058   -0.6397   H         1 RES1   0.0000
    83 H25       4.3592   -3.3290   -1.9391   H         1 RES1   0.0000
    84 H26       3.2335   -5.1104    0.6266   H         1 RES1   0.0000
    85 H27       1.9847   -4.0146    1.2487   H         1 RES1   0.0000
    86 H28       3.5318   -2.9319    2.7227   H         1 RES1   0.0000
    87 H29       4.9282   -3.6106    1.9079   H         1 RES1   0.0000
    88 H30       4.9269   -5.5176    3.0406   H         1 RES1   0.0000
    89 H31       3.2064   -5.7570    2.8749   H         1 RES1   0.0000
    90 H32       4.1957   -5.6244    5.2015   H         1 RES1   0.0000
    91 H33       2.6959   -4.7600    4.8964   H         1 RES1   0.0000
    92 H34       4.0998   -3.4588    6.3211   H         1 RES1   0.0000
    93 H35       3.8707   -2.6261    4.7983   H         1 RES1   0.0000
    94 H36       6.1214   -3.2586    4.0538   H         1 RES1   0.0000
    95 H37       6.3828   -4.1711    5.5347   H         1 RES1   0.0000
    96 H38       5.4888   -1.3355    5.9148   H         1 RES1   0.0000
    97 H39       7.0691   -1.5082    5.1685   H         1 RES1   0.0000
    98 H40       7.4330   -1.2313    7.4497   H         1 RES1   0.0000
    99 H41       7.8158   -2.9101    7.0952   H         1 RES1   0.0000
   100 H42       5.0728   -2.2085    8.1643   H         1 RES1   0.0000
   101 H43       6.4488   -2.2238    9.2598   H         1 RES1   0.0000
   102 H44       6.9666   -4.5455    8.6412   H         1 RES1   0.0000
   103 H45       5.5734   -4.5959    7.5641   H         1 RES1   0.0000
   104 H46       5.4083   -4.0869   10.5613   H         1 RES1   0.0000
   105 H47       5.2015   -5.6546    9.7968   H         1 RES1   0.0000
   106 H48       3.4186   -3.2213    9.3441   H         1 RES1   0.0000
   107 H49       3.0123   -4.6712   10.2538   H         1 RES1   0.0000
   108 H50       3.2528   -4.7719    8.5092   H         1 RES1   0.0000
   109 H51       2.4820   -2.2655   -2.6443   H         1 RES1   0.0000
   110 H52       3.5730   -1.0752   -1.8938   H         1 RES1   0.0000
   111 H53       1.3992   -0.1925   -3.9413   H         1 RES1   0.0000
   112 H54       2.7126    0.6984   -3.1261   H         1 RES1   0.0000
   113 H55      -1.1795    3.2931   -2.9200   H         1 RES1   0.0000
   114 H56      -0.1733    4.3943   -3.8827   H         1 RES1   0.0000
   115 H57       0.4719    3.5340   -1.0320   H         1 RES1   0.0000
   116 H58      -0.5623    4.9008   -1.4336   H         1 RES1   0.0000
   117 H59       1.3983    5.9784   -2.6036   H         1 RES1   0.0000
   118 H60       2.4145    4.6783   -1.9915   H         1 RES1   0.0000
   119 H61       1.7465    5.2241    0.3305   H         1 RES1   0.0000
   120 H62       0.6832    6.5098   -0.2532   H         1 RES1   0.0000
   121 H63       2.5395    7.8208   -1.0326   H         1 RES1   0.0000
   122 H64       3.6800    6.5081   -0.7446   H         1 RES1   0.0000
   123 H65       2.0378    7.7594    1.4755   H         1 RES1   0.0000
   124 H66       3.5871    8.4088    0.9935   H         1 RES1   0.0000
   125 H67       3.5800    5.4749    1.5631   H         1 RES1   0.0000
   126 H68       3.2402    6.5052    2.9469   H         1 RES1   0.0000
   127 H69       5.5966    6.0059    2.8699   H         1 RES1   0.0000
   128 H70       5.3124    7.7301    2.6593   H         1 RES1   0.0000
   129 H71       7.0776    7.0774    1.1730   H         1 RES1   0.0000
   130 H72       5.6684    7.5171    0.2242   H         1 RES1   0.0000
   131 H73       5.1325    5.0335    0.0453   H         1 RES1   0.0000
   132 H74       6.6737    4.7069    0.8300   H         1 RES1   0.0000
   133 H75       6.8436    6.5657   -1.4950   H         1 RES1   0.0000
   134 H76       6.2939    4.9577   -1.9174   H         1 RES1   0.0000
   135 H77       8.8797    5.5748   -0.4294   H         1 RES1   0.0000
   136 H78       8.7328    5.1439   -2.1326   H         1 RES1   0.0000
   137 H79       8.3297    3.9649   -0.8890   H         1 RES1   0.0000
   138 H80       1.8066    1.7748   -5.1010   H         1 RES1   0.0000
   139 H81       1.2543    3.4388   -5.2863   H         1 RES1   0.0000
   140 H82       0.0252    2.1442   -6.8389   H         1 RES1   0.0000
   141 H83      -1.1083    2.5813   -5.5690   H         1 RES1   0.0000
   142 H84       0.3160   -0.1154   -5.5940   H         1 RES1   0.0000
   143 H85      -1.1391    0.1573   -6.5258   H         1 RES1   0.0000
   144 H86      -2.5064    0.4758   -4.6976   H         1 RES1   0.0000
   145 H87      -1.2148    0.9088   -3.6059   H         1 RES1   0.0000
   146 H88      -0.4632   -1.5919   -3.7796   H         1 RES1   0.0000
   147 H89      -2.0530   -1.8612   -4.4857   H         1 RES1   0.0000
   148 H90      -2.9362   -0.4237   -2.5433   H         1 RES1   0.0000
   149 H91      -1.3899   -0.7499   -1.6996   H         1 RES1   0.0000
   150 H92      -1.9843   -3.0704   -1.4633   H         1 RES1   0.0000
   151 H93      -3.2504   -2.9743   -2.6927   H         1 RES1   0.0000
   152 H94      -4.5520   -1.4278   -1.2775   H         1 RES1   0.0000
   153 H95      -3.2497   -1.3861   -0.0985   H         1 RES1   0.0000
   154 H96      -3.8131   -4.1009   -0.2145   H         1 RES1   0.0000
   155 H97      -5.4052   -3.3926   -0.4364   H         1 RES1   0.0000
   156 H98      -3.4823   -2.7792    1.8440   H         1 RES1   0.0000
   157 H99      -4.9078   -3.8176    1.9327   H         1 RES1   0.0000
   158 H100     -6.2847   -1.7485    1.2676   H         1 RES1   0.0000
   159 H101     -4.8123   -0.8053    1.5378   H         1 RES1   0.0000
   160 H102     -6.2258   -2.5308    3.6062   H         1 RES1   0.0000
   161 H103     -6.1341   -0.7688    3.5889   H         1 RES1   0.0000
   162 H104     -4.6736   -1.7175    3.8551   H         1 RES1   0.0000
   163 C53      -8.9253    3.3340   -3.4499   C.3       1 RES1   0.0000
   164 C54      -8.1970    4.0301   -2.3058   C.3       1 RES1   0.0000
   165 C55      -8.5994    5.4954   -2.1287   C.3       1 RES1   0.0000
   166 C56      -8.3354    6.4142   -3.3250   C.3       1 RES1   0.0000
   167 C57      -6.9173    6.9768   -3.4526   C.3       1 RES1   0.0000
   168 C58      -5.8736    5.9874   -3.9748   C.3       1 RES1   0.0000
   169 C59      -4.5674    6.6772   -4.4004   C.3       1 RES1   0.0000
   170 C60      -3.3805    6.4741   -3.4569   C.3       1 RES1   0.0000
   171 C61      -3.5258    7.1494   -2.0863   C.3       1 RES1   0.0000
   172 C62      -4.1452    6.2963   -0.9769   C.3       1 RES1   0.0000
   173 C63      -3.2730    5.0959   -0.6165   C.3       1 RES1   0.0000
   174 C64      -3.8463    4.2686    0.5467   C.3       1 RES1   0.0000
   175 N3       -3.5615    2.8470    0.3894   N.am      1 RES1   0.0000
   176 C65      -4.6525    1.9793   -0.0504   C.3       1 RES1   0.0000
   177 C66      -4.6703    1.6129   -1.5342   C.3       1 RES1   0.0000
   178 C67      -6.0621    1.0687   -1.8756   C.3       1 RES1   0.0000
   179 C68      -6.2143    0.2321   -3.1577   C.3       1 RES1   0.0000
   180 C69      -5.3430    0.6088   -4.3568   C.3       1 RES1   0.0000
   181 C70      -5.5500    1.9993   -4.9521   C.3       1 RES1   0.0000
   182 C71      -4.7164    2.2044   -6.2291   C.3       1 RES1   0.0000
   183 C72      -5.4968    2.1297   -7.5454   C.3       1 RES1   0.0000
   184 C73      -5.9214    0.7227   -7.9819   C.3       1 RES1   0.0000
   185 C74      -7.3256    0.3371   -7.5222   C.3       1 RES1   0.0000
   186 C75      -7.7527   -1.0507   -8.0028   C.3       1 RES1   0.0000
   187 C76      -6.9910   -2.1896   -7.3352   C.3       1 RES1   0.0000
   188 C77      -2.3653    2.3162    0.5906   C.2       1 RES1   0.0000
   189 O4       -2.0704    1.1600    0.2126   O.2       1 RES1   0.0000
   190 C78      -1.3065    3.1007    1.3699   C.3       1 RES1   0.0000
   191 O5       -0.0666    2.5186    1.0203   O.3       1 RES1   0.0000
   192 C79       1.0163    2.8180    1.8777   C.3       1 RES1   0.0000
   193 C80       2.1630    1.9521    1.3544   C.2       1 RES1   0.0000
   194 O6        1.8809    1.0437    0.5453   O.2       1 RES1   0.0000
   195 N4        3.4161    2.2235    1.7003   N.am      1 RES1   0.0000
   196 C81       4.5042    1.4582    1.0846   C.3       1 RES1   0.0000
   197 C82       4.4815    1.3090   -0.4431   C.3       1 RES1   0.0000
   198 C83       5.0941    2.3930   -1.3310   C.3       1 RES1   0.0000
   199 C84       5.4778    1.7666   -2.6800   C.3       1 RES1   0.0000
   200 C85       6.1572    2.7282   -3.6569   C.3       1 RES1   0.0000
   201 C86       5.9958    2.3076   -5.1218   C.3       1 RES1   0.0000
   202 C87       4.5931    2.5747   -5.6899   C.3       1 RES1   0.0000
   203 C88       4.4793    3.8403   -6.5488   C.3       1 RES1   0.0000
   204 C89       4.7737    5.1557   -5.8261   C.3       1 RES1   0.0000
   205 C90       3.7794    5.4955   -4.7159   C.3       1 RES1   0.0000
   206 C91       4.1814    6.7651   -3.9495   C.3       1 RES1   0.0000
   207 C92       3.3785    7.9947   -4.3510   C.3       1 RES1   0.0000
   208 C93       3.7486    2.8275    2.9884   C.3       1 RES1   0.0000
   209 C94       4.0273    1.7891    4.0947   C.3       1 RES1   0.0000
   210 C95       2.8218    1.0130    4.6530   C.3       1 RES1   0.0000
   211 C96       2.3322   -0.1636    3.8048   C.3       1 RES1   0.0000
   212 C97       1.2126   -0.9713    4.4727   C.3       1 RES1   0.0000
   213 C98       1.0329   -2.2979    3.7236   C.3       1 RES1   0.0000
   214 C99      -0.1980   -3.1226    4.1041   C.3       1 RES1   0.0000
   215 C100     -0.0865   -4.6021    3.6774   C.3       1 RES1   0.0000
   216 C101     -1.2505   -5.0656    2.7970   C.3       1 RES1   0.0000
   217 C102     -1.0476   -4.7559    1.3078   C.3       1 RES1   0.0000
   218 C103     -0.2629   -5.8529    0.5816   C.3       1 RES1   0.0000
   219 C104     -0.1032   -5.5777   -0.9104   C.3       1 RES1   0.0000
   220 H105     -8.7572    2.2600   -3.4133   H         1 RES1   0.0000
   221 H106     -8.5781    3.6938   -4.4144   H         1 RES1   0.0000
   222 H107     -9.9949    3.5109   -3.3831   H         1 RES1   0.0000
   223 H108     -7.1206    3.9557   -2.4705   H         1 RES1   0.0000
   224 H109     -8.4329    3.5081   -1.3729   H         1 RES1   0.0000
   225 H110     -8.0939    5.8998   -1.2471   H         1 RES1   0.0000
   226 H111     -9.6708    5.5152   -1.9164   H         1 RES1   0.0000
   227 H112     -9.0122    7.2654   -3.2314   H         1 RES1   0.0000
   228 H113     -8.5970    5.8980   -4.2477   H         1 RES1   0.0000
   229 H114     -6.6006    7.3817   -2.4889   H         1 RES1   0.0000
   230 H115     -6.9673    7.8105   -4.1565   H         1 RES1   0.0000
   231 H116     -6.2972    5.4596   -4.8315   H         1 RES1   0.0000
   232 H117     -5.6540    5.2362   -3.2176   H         1 RES1   0.0000
   233 H118     -4.7450    7.7483   -4.5038   H         1 RES1   0.0000
   234 H119     -4.2720    6.3102   -5.3862   H         1 RES1   0.0000
   235 H120     -2.5015    6.8964   -3.9503   H         1 RES1   0.0000
   236 H121     -3.1887    5.4059   -3.3386   H         1 RES1   0.0000
   237 H122     -4.1317    8.0470   -2.2088   H         1 RES1   0.0000
   238 H123     -2.5389    7.4726   -1.7476   H         1 RES1   0.0000
   239 H124     -5.1380    5.9598   -1.2715   H         1 RES1   0.0000
   240 H125     -4.2581    6.9240   -0.0910   H         1 RES1   0.0000
   241 H126     -2.2759    5.4578   -0.3658   H         1 RES1   0.0000
   242 H127     -3.1793    4.4425   -1.4845   H         1 RES1   0.0000
   243 H128     -4.9312    4.3839    0.5636   H         1 RES1   0.0000
   244 H129     -3.4713    4.6338    1.5028   H         1 RES1   0.0000
   245 H130     -5.5856    2.4798    0.2103   H         1 RES1   0.0000
   246 H131     -4.5812    1.0532    0.5262   H         1 RES1   0.0000
   247 H132     -3.8947    0.8737   -1.7081   H         1 RES1   0.0000
   248 H133     -4.4557    2.4917   -2.1408   H         1 RES1   0.0000
   249 H134     -6.7403    1.9166   -1.9216   H         1 RES1   0.0000
   250 H135     -6.3899    0.4415   -1.0421   H         1 RES1   0.0000
   251 H136     -7.2655    0.2737   -3.4489   H         1 RES1   0.0000
   252 H137     -5.9953   -0.8144   -2.9326   H         1 RES1   0.0000
   253 H138     -5.5304   -0.1319   -5.1375   H         1 RES1   0.0000
   254 H139     -4.2983    0.5178   -4.0581   H         1 RES1   0.0000
   255 H140     -5.2676    2.7542   -4.2170   H         1 RES1   0.0000
   256 H141     -6.6021    2.1498   -5.1777   H         1 RES1   0.0000
   257 H142     -3.9103    1.4668   -6.2621   H         1 RES1   0.0000
   258 H143     -4.2432    3.1892   -6.1904   H         1 RES1   0.0000
   259 H144     -4.8598    2.5557   -8.3242   H         1 RES1   0.0000
   260 H145     -6.3789    2.7680   -7.4757   H         1 RES1   0.0000
   261 H146     -5.1989   -0.0043   -7.6107   H         1 RES1   0.0000
   262 H147     -5.9016    0.6732   -9.0722   H         1 RES1   0.0000
   263 H148     -8.0322    1.0687   -7.9201   H         1 RES1   0.0000
   264 H149     -7.3882    0.3682   -6.4331   H         1 RES1   0.0000
   265 H150     -7.6221   -1.1186   -9.0841   H         1 RES1   0.0000
   266 H151     -8.8168   -1.1776   -7.7945   H         1 RES1   0.0000
   267 H152     -5.9382   -2.1742   -7.6072   H         1 RES1   0.0000
   268 H153     -7.4018   -3.1471   -7.6458   H         1 RES1   0.0000
   269 H154     -7.0714   -2.1203   -6.2518   H         1 RES1   0.0000
   270 H155     -1.5134    2.9581    2.4410   H         1 RES1   0.0000
   271 H156     -1.3052    4.1674    1.1289   H         1 RES1   0.0000
   272 H157      0.7705    2.5451    2.9115   H         1 RES1   0.0000
   273 H158      1.2717    3.8855    1.8185   H         1 RES1   0.0000
   274 H159      4.4651    0.4452    1.5010   H         1 RES1   0.0000
   275 H160      5.4439    1.9236    1.3899   H         1 RES1   0.0000
   276 H161      3.4609    1.1138   -0.7647   H         1 RES1   0.0000
   277 H162      5.0711    0.4119   -0.6262   H         1 RES1   0.0000
   278 H163      5.9834    2.8063   -0.8591   H         1 RES1   0.0000
   279 H164      4.3889    3.2114   -1.4945   H         1 RES1   0.0000
   280 H165      4.5718    1.3608   -3.1454   H         1 RES1   0.0000
   281 H166      6.1520    0.9240   -2.5027   H         1 RES1   0.0000
   282 H167      7.2195    2.7692   -3.4164   H         1 RES1   0.0000
   283 H168      5.7480    3.7280   -3.5318   H         1 RES1   0.0000
   284 H169      6.2303    1.2445   -5.2082   H         1 RES1   0.0000
   285 H170      6.7314    2.8448   -5.7198   H         1 RES1   0.0000
   286 H171      3.8789    2.6318   -4.8656   H         1 RES1   0.0000
   287 H172      4.2975    1.7330   -6.3215   H         1 RES1   0.0000
   288 H173      3.4703    3.8799   -6.9693   H         1 RES1   0.0000
   289 H174      5.1768    3.7503   -7.3844   H         1 RES1   0.0000
   290 H175      4.7600    5.9633   -6.5607   H         1 RES1   0.0000
   291 H176      5.7812    5.1135   -5.4112   H         1 RES1   0.0000
   292 H177      3.7204    4.6571   -4.0176   H         1 RES1   0.0000
   293 H178      2.7854    5.6280   -5.1508   H         1 RES1   0.0000
   294 H179      5.2399    6.9638   -4.1208   H         1 RES1   0.0000
   295 H180      4.0547    6.6042   -2.8794   H         1 RES1   0.0000
   296 H181      3.4658    8.1839   -5.4167   H         1 RES1   0.0000
   297 H182      3.7437    8.8676   -3.8152   H         1 RES1   0.0000
   298 H183      2.3237    7.8710   -4.1111   H         1 RES1   0.0000
   299 H184      2.9411    3.4872    3.3092   H         1 RES1   0.0000
   300 H185      4.6456    3.4432    2.8545   H         1 RES1   0.0000
   301 H186      4.4544    2.3530    4.9279   H         1 RES1   0.0000
   302 H187      4.7856    1.0804    3.7570   H         1 RES1   0.0000
   303 H188      1.9996    1.7055    4.8476   H         1 RES1   0.0000
   304 H189      3.1357    0.6066    5.6216   H         1 RES1   0.0000
   305 H190      3.1860   -0.8254    3.6161   H         1 RES1   0.0000
   306 H191      1.9474    0.1612    2.8327   H         1 RES1   0.0000
   307 H192      0.2925   -0.3855    4.4530   H         1 RES1   0.0000
   308 H193      1.4551   -1.1705    5.5184   H         1 RES1   0.0000
   309 H194      1.9138   -2.9021    3.9327   H         1 RES1   0.0000
   310 H195      1.0099   -2.0952    2.6432   H         1 RES1   0.0000
   311 H196     -1.0845   -2.6821    3.6442   H         1 RES1   0.0000
   312 H197     -0.3463   -3.0716    5.1824   H         1 RES1   0.0000
   313 H198     -0.0385   -5.2367    4.5639   H         1 RES1   0.0000
   314 H199      0.8440   -4.7575    3.1340   H         1 RES1   0.0000
   315 H200     -2.1659   -4.5926    3.1509   H         1 RES1   0.0000
   316 H201     -1.3865   -6.1392    2.9130   H         1 RES1   0.0000
   317 H202     -0.5389   -3.7935    1.2028   H         1 RES1   0.0000
   318 H203     -2.0217   -4.6486    0.8318   H         1 RES1   0.0000
   319 H204     -0.7855   -6.8049    0.7059   H         1 RES1   0.0000
   320 H205      0.7243   -5.9715    1.0325   H         1 RES1   0.0000
   321 H206     -1.0728   -5.5984   -1.4013   H         1 RES1   0.0000
   322 H207      0.5243   -6.3397   -1.3689   H         1 RES1   0.0000
   323 H208      0.3542   -4.6054   -1.0940   H         1 RES1   0.0000
   324 N5       -1.3960   -0.4627    1.9568   N.3       1 RES1   0.0000
   325 O7       -2.3861   -0.2965    2.5873   O.2       1 RES1   0.0000
   326 O8       -0.3826    0.2154    2.1717   O.co2     1 RES1   0.0000
   327 O9       -1.3167   -1.3043    1.0569   O.co2     1 RES1   0.0000
@<TRIPOS>BOND
     1     1    28    1
     2     1    30    1
     3     1    33    1
     4     1   189    1
     5     1   191    1
     6     1   194    1
     7     1   326    1
     8     1   327    1
     9     2     3    1
    10     2    59    1
    11     2    60    1
    12     2    61    1
    13     3     4    1
    14     3    62    1
    15     3    63    1
    16     4     5    1
    17     4    64    1
    18     4    65    1
    19     5     6    1
    20     5    66    1
    21     5    67    1
    22     6     7    1
    23     6    68    1
    24     6    69    1
    25     7     8    1
    26     7    70    1
    27     7    71    1
    28     8     9    1
    29     8    72    1
    30     8    73    1
    31     9    10    1
    32     9    74    1
    33     9    75    1
    34    10    11    1
    35    10    76    1
    36    10    77    1
    37    11    12    1
    38    11    78    1
    39    11    79    1
    40    12    13    1
    41    12    80    1
    42    12    81    1
    43    13    14    1
    44    13    82    1
    45    13    83    1
    46    14    15    1
    47    14    27    1
    48    15    16    1
    49    15    84    1
    50    15    85    1
    51    16    17    1
    52    16    86    1
    53    16    87    1
    54    17    18    1
    55    17    88    1
    56    17    89    1
    57    18    19    1
    58    18    90    1
    59    18    91    1
    60    19    20    1
    61    19    92    1
    62    19    93    1
    63    20    21    1
    64    20    94    1
    65    20    95    1
    66    21    22    1
    67    21    96    1
    68    21    97    1
    69    22    23    1
    70    22    98    1
    71    22    99    1
    72    23    24    1
    73    23   100    1
    74    23   101    1
    75    24    25    1
    76    24   102    1
    77    24   103    1
    78    25    26    1
    79    25   104    1
    80    25   105    1
    81    26   106    1
    82    26   107    1
    83    26   108    1
    84    27    28    2
    85    27    29    1
    86    29    30    1
    87    29   109    1
    88    29   110    1
    89    30    31    1
    90    31    32    1
    91    31   111    1
    92    31   112    1
    93    32    33    2
    94    32    34    1
    95    34    35    1
    96    34    47    1
    97    35    36    1
    98    35   113    1
    99    35   114    1
   100    36    37    1
   101    36   115    1
   102    36   116    1
   103    37    38    1
   104    37   117    1
   105    37   118    1
   106    38    39    1
   107    38   119    1
   108    38   120    1
   109    39    40    1
   110    39   121    1
   111    39   122    1
   112    40    41    1
   113    40   123    1
   114    40   124    1
   115    41    42    1
   116    41   125    1
   117    41   126    1
   118    42    43    1
   119    42   127    1
   120    42   128    1
   121    43    44    1
   122    43   129    1
   123    43   130    1
   124    44    45    1
   125    44   131    1
   126    44   132    1
   127    45    46    1
   128    45   133    1
   129    45   134    1
   130    46   135    1
   131    46   136    1
   132    46   137    1
   133    47    48    1
   134    47   138    1
   135    47   139    1
   136    48    49    1
   137    48   140    1
   138    48   141    1
   139    49    50    1
   140    49   142    1
   141    49   143    1
   142    50    51    1
   143    50   144    1
   144    50   145    1
   145    51    52    1
   146    51   146    1
   147    51   147    1
   148    52    53    1
   149    52   148    1
   150    52   149    1
   151    53    54    1
   152    53   150    1
   153    53   151    1
   154    54    55    1
   155    54   152    1
   156    54   153    1
   157    55    56    1
   158    55   154    1
   159    55   155    1
   160    56    57    1
   161    56   156    1
   162    56   157    1
   163    57    58    1
   164    57   158    1
   165    57   159    1
   166    58   160    1
   167    58   161    1
   168    58   162    1
   169   163   164    1
   170   163   220    1
   171   163   221    1
   172   163   222    1
   173   164   165    1
   174   164   223    1
   175   164   224    1
   176   165   166    1
   177   165   225    1
   178   165   226    1
   179   166   167    1
   180   166   227    1
   181   166   228    1
   182   167   168    1
   183   167   229    1
   184   167   230    1
   185   168   169    1
   186   168   231    1
   187   168   232    1
   188   169   170    1
   189   169   233    1
   190   169   234    1
   191   170   171    1
   192   170   235    1
   193   170   236    1
   194   171   172    1
   195   171   237    1
   196   171   238    1
   197   172   173    1
   198   172   239    1
   199   172   240    1
   200   173   174    1
   201   173   241    1
   202   173   242    1
   203   174   175    1
   204   174   243    1
   205   174   244    1
   206   175   176    1
   207   175   188    1
   208   176   177    1
   209   176   245    1
   210   176   246    1
   211   177   178    1
   212   177   247    1
   213   177   248    1
   214   178   179    1
   215   178   249    1
   216   178   250    1
   217   179   180    1
   218   179   251    1
   219   179   252    1
   220   180   181    1
   221   180   253    1
   222   180   254    1
   223   181   182    1
   224   181   255    1
   225   181   256    1
   226   182   183    1
   227   182   257    1
   228   182   258    1
   229   183   184    1
   230   183   259    1
   231   183   260    1
   232   184   185    1
   233   184   261    1
   234   184   262    1
   235   185   186    1
   236   185   263    1
   237   185   264    1
   238   186   187    1
   239   186   265    1
   240   186   266    1
   241   187   267    1
   242   187   268    1
   243   187   269    1
   244   188   189    2
   245   188   190    1
   246   190   191    1
   247   190   270    1
   248   190   271    1
   249   191   192    1
   250   192   193    1
   251   192   272    1
   252   192   273    1
   253   193   194    2
   254   193   195    1
   255   195   196    1
   256   195   208    1
   257   196   197    1
   258   196   274    1
   259   196   275    1
   260   197   198    1
   261   197   276    1
   262   197   277    1
   263   198   199    1
   264   198   278    1
   265   198   279    1
   266   199   200    1
   267   199   280    1
   268   199   281    1
   269   200   201    1
   270   200   282    1
   271   200   283    1
   272   201   202    1
   273   201   284    1
   274   201   285    1
   275   202   203    1
   276   202   286    1
   277   202   287    1
   278   203   204    1
   279   203   288    1
   280   203   289    1
   281   204   205    1
   282   204   290    1
   283   204   291    1
   284   205   206    1
   285   205   292    1
   286   205   293    1
   287   206   207    1
   288   206   294    1
   289   206   295    1
   290   207   296    1
   291   207   297    1
   292   207   298    1
   293   208   209    1
   294   208   299    1
   295   208   300    1
   296   209   210    1
   297   209   301    1
   298   209   302    1
   299   210   211    1
   300   210   303    1
   301   210   304    1
   302   211   212    1
   303   211   305    1
   304   211   306    1
   305   212   213    1
   306   212   307    1
   307   212   308    1
   308   213   214    1
   309   213   309    1
   310   213   310    1
   311   214   215    1
   312   214   311    1
   313   214   312    1
   314   215   216    1
   315   215   313    1
   316   215   314    1
   317   216   217    1
   318   216   315    1
   319   216   316    1
   320   217   218    1
   321   217   317    1
   322   217   318    1
   323   218   219    1
   324   218   319    1
   325   218   320    1
   326   219   321    1
   327   219   322    1
   328   219   323    1
   329   324   325    2
   330   324   326    1
   331   324   327    1
@<TRIPOS>SUBSTRUCTURE
     1 RES1      327 GROUP             0 ****  ****    0  
