@<TRIPOS>MOLECULE
YEMSEP_geometry_0_nunpairedes_0_charge_3 Charge: 3 Unpaired_Electrons: 2 XTB_Unpaired_Electrons: 0 XTB_Charge: 3
   305   308     1     0     0
SMALL
NoCharges
****
Generated from Architector

@<TRIPOS>ATOM
     1 Tm1      -0.3721   -0.1851    0.1610   Tm        1 RES1   0.0000
     2 C1        2.2585   -1.1289   -5.7076   C.3       1 RES1   0.0000
     3 C2        2.2820   -2.6478   -5.8587   C.3       1 RES1   0.0000
     4 C3        3.6250   -3.2800   -5.4884   C.3       1 RES1   0.0000
     5 C4        4.0621   -3.0388   -4.0341   C.3       1 RES1   0.0000
     6 C5        5.1781   -2.0024   -3.8967   C.3       1 RES1   0.0000
     7 C6        5.4572   -1.6851   -2.4294   C.3       1 RES1   0.0000
     8 C7        4.4361   -0.7069   -1.8529   C.3       1 RES1   0.0000
     9 C8        4.6281   -0.5914   -0.3467   C.3       1 RES1   0.0000
    10 N1        4.0871    0.6045    0.3027   N.am      1 RES1   0.0000
    11 C9        5.0726    1.6385    0.6011   C.3       1 RES1   0.0000
    12 C10       5.8289    2.1004   -0.6603   C.3       1 RES1   0.0000
    13 C11       5.0085    2.8152   -1.7391   C.3       1 RES1   0.0000
    14 C12       5.9350    3.2434   -2.9001   C.3       1 RES1   0.0000
    15 C13       5.9044    4.7676   -3.0985   C.3       1 RES1   0.0000
    16 C14       6.7364    5.5006   -2.0356   C.3       1 RES1   0.0000
    17 C15       8.2419    5.2533   -2.1348   C.3       1 RES1   0.0000
    18 C16       9.0143    6.0226   -1.0694   C.3       1 RES1   0.0000
    19 C17       5.8398    2.4173   -4.2052   C.3       1 RES1   0.0000
    20 C18       4.4912    2.0028   -4.7985   C.3       1 RES1   0.0000
    21 C19       3.6253    3.1224   -5.3782   C.3       1 RES1   0.0000
    22 C20       2.1510    2.6996   -5.4108   C.3       1 RES1   0.0000
    23 C21       1.5134    2.9176   -4.0273   C.3       1 RES1   0.0000
    24 C22       0.6209    1.7793   -3.5242   C.3       1 RES1   0.0000
    25 C23       2.8052    0.6246    0.6491   C.2       1 RES1   0.0000
    26 O1        1.9122    0.0596   -0.0263   O.2       1 RES1   0.0000
    27 C24       2.4031    1.1885    2.0228   C.3       1 RES1   0.0000
    28 O2        0.9929    1.0530    2.0947   O.3       1 RES1   0.0000
    29 C25       0.4130    1.0684    3.3965   C.3       1 RES1   0.0000
    30 C26      -0.9227    0.3404    3.2039   C.2       1 RES1   0.0000
    31 O3       -1.0130   -0.3701    2.1686   O.2       1 RES1   0.0000
    32 N2       -1.9307    0.4411    4.0407   N.am      1 RES1   0.0000
    33 C27      -1.9447    1.1949    5.2790   C.3       1 RES1   0.0000
    34 C28      -2.6240    2.5562    5.1119   C.3       1 RES1   0.0000
    35 C29      -3.1507    3.1442    6.4223   C.3       1 RES1   0.0000
    36 C30      -2.0513    3.5783    7.3946   C.3       1 RES1   0.0000
    37 C31      -1.6248    2.4799    8.3714   C.3       1 RES1   0.0000
    38 C32      -0.3339    2.8147    9.1297   C.3       1 RES1   0.0000
    39 C33       0.9356    2.2599    8.4768   C.3       1 RES1   0.0000
    40 C34       1.3203    2.9314    7.1625   C.3       1 RES1   0.0000
    41 C35      -3.1596   -0.2766    3.7160   C.3       1 RES1   0.0000
    42 C36      -3.3128   -1.5883    4.4913   C.3       1 RES1   0.0000
    43 C37      -2.1686   -2.5795    4.2447   C.3       1 RES1   0.0000
    44 C38      -0.9547   -2.4286    5.1873   C.3       1 RES1   0.0000
    45 C39      -1.0575   -3.3784    6.3910   C.3       1 RES1   0.0000
    46 C40      -2.2570   -3.1538    7.3124   C.3       1 RES1   0.0000
    47 C41      -2.1914   -1.8513    8.1079   C.3       1 RES1   0.0000
    48 C42      -3.4619   -1.6255    8.9163   C.3       1 RES1   0.0000
    49 C43       0.3433   -2.7135    4.4073   C.3       1 RES1   0.0000
    50 C44       1.6253   -2.2904    5.1269   C.3       1 RES1   0.0000
    51 C45       2.8549   -2.5195    4.2482   C.3       1 RES1   0.0000
    52 C46       4.1559   -2.0512    4.9069   C.3       1 RES1   0.0000
    53 C47       4.4132   -0.5472    4.7947   C.3       1 RES1   0.0000
    54 C48       5.6809   -0.1235    5.5320   C.3       1 RES1   0.0000
    55 H1        1.3071   -0.7288   -6.0624   H         1 RES1   0.0000
    56 H2        3.0450   -0.6870   -6.3202   H         1 RES1   0.0000
    57 H3        2.3992   -0.8301   -4.6668   H         1 RES1   0.0000
    58 H4        2.0654   -2.8941   -6.8985   H         1 RES1   0.0000
    59 H5        1.4831   -3.0918   -5.2533   H         1 RES1   0.0000
    60 H6        4.3961   -2.8867   -6.1516   H         1 RES1   0.0000
    61 H7        3.5365   -4.3523   -5.6732   H         1 RES1   0.0000
    62 H8        4.4286   -3.9750   -3.6069   H         1 RES1   0.0000
    63 H9        3.2124   -2.7202   -3.4197   H         1 RES1   0.0000
    64 H10       4.9145   -1.0861   -4.4265   H         1 RES1   0.0000
    65 H11       6.0832   -2.4060   -4.3474   H         1 RES1   0.0000
    66 H12       6.4434   -1.2286   -2.3317   H         1 RES1   0.0000
    67 H13       5.4613   -2.6181   -1.8570   H         1 RES1   0.0000
    68 H14       3.4143   -1.0281   -2.0614   H         1 RES1   0.0000
    69 H15       4.5898    0.2668   -2.3101   H         1 RES1   0.0000
    70 H16       5.6955   -0.6010   -0.1110   H         1 RES1   0.0000
    71 H17       4.1709   -1.4518    0.1492   H         1 RES1   0.0000
    72 H18       5.8049    1.2394    1.3078   H         1 RES1   0.0000
    73 H19       4.5727    2.4856    1.0648   H         1 RES1   0.0000
    74 H20       6.3498    1.2521   -1.1078   H         1 RES1   0.0000
    75 H21       6.5936    2.8017   -0.3211   H         1 RES1   0.0000
    76 H22       4.5460    3.7042   -1.3134   H         1 RES1   0.0000
    77 H23       4.1898    2.1904   -2.0904   H         1 RES1   0.0000
    78 H24       6.9546    3.0374   -2.5682   H         1 RES1   0.0000
    79 H25       4.8789    5.1419   -3.0601   H         1 RES1   0.0000
    80 H26       6.3029    5.0199   -4.0806   H         1 RES1   0.0000
    81 H27       6.3960    5.2198   -1.0338   H         1 RES1   0.0000
    82 H28       6.5668    6.5719   -2.1509   H         1 RES1   0.0000
    83 H29       8.5901    5.5546   -3.1220   H         1 RES1   0.0000
    84 H30       8.4652    4.1906   -2.0250   H         1 RES1   0.0000
    85 H31       8.8856    7.0943   -1.1962   H         1 RES1   0.0000
    86 H32      10.0755    5.7955   -1.1372   H         1 RES1   0.0000
    87 H33       8.6708    5.7570   -0.0708   H         1 RES1   0.0000
    88 H34       6.3960    1.4879   -4.0419   H         1 RES1   0.0000
    89 H35       6.3920    2.9696   -4.9671   H         1 RES1   0.0000
    90 H36       3.9129    1.4628   -4.0458   H         1 RES1   0.0000
    91 H37       4.7163    1.2861   -5.5949   H         1 RES1   0.0000
    92 H38       3.9581    3.3753   -6.3836   H         1 RES1   0.0000
    93 H39       3.7177    4.0219   -4.7702   H         1 RES1   0.0000
    94 H40       2.0809    1.6472   -5.6837   H         1 RES1   0.0000
    95 H41       1.6056    3.2651   -6.1711   H         1 RES1   0.0000
    96 H42       0.9217    3.8320   -4.0584   H         1 RES1   0.0000
    97 H43       2.3226    3.0821   -3.3170   H         1 RES1   0.0000
    98 H44      -0.1255    2.1542   -2.8152   H         1 RES1   0.0000
    99 H45       1.2067    1.0104   -3.0153   H         1 RES1   0.0000
   100 H46       0.1042    1.3329   -4.3725   H         1 RES1   0.0000
   101 H47       2.7178    2.2210    2.2035   H         1 RES1   0.0000
   102 H48       2.8947    0.5419    2.7691   H         1 RES1   0.0000
   103 H49       0.3048    2.1010    3.7465   H         1 RES1   0.0000
   104 H50       1.0392    0.5063    4.1069   H         1 RES1   0.0000
   105 H51      -0.9292    1.3116    5.6475   H         1 RES1   0.0000
   106 H52      -2.5078    0.6132    6.0090   H         1 RES1   0.0000
   107 H53      -3.4627    2.4448    4.4244   H         1 RES1   0.0000
   108 H54      -1.9246    3.2650    4.6713   H         1 RES1   0.0000
   109 H55      -3.7971    2.4183    6.9138   H         1 RES1   0.0000
   110 H56      -3.7653    4.0094    6.1671   H         1 RES1   0.0000
   111 H57      -2.4144    4.4146    7.9894   H         1 RES1   0.0000
   112 H58      -1.1928    3.9440    6.8342   H         1 RES1   0.0000
   113 H59      -1.4824    1.5316    7.8544   H         1 RES1   0.0000
   114 H60      -2.4362    2.3359    9.0859   H         1 RES1   0.0000
   115 H61      -0.3895    2.3924   10.1344   H         1 RES1   0.0000
   116 H62      -0.2457    3.8957    9.2388   H         1 RES1   0.0000
   117 H63       0.8136    1.1854    8.3128   H         1 RES1   0.0000
   118 H64       1.7616    2.3863    9.1781   H         1 RES1   0.0000
   119 H65       0.5625    2.7706    6.3971   H         1 RES1   0.0000
   120 H66       2.2618    2.5288    6.7944   H         1 RES1   0.0000
   121 H67       1.4477    4.0009    7.3036   H         1 RES1   0.0000
   122 H68      -3.1389   -0.4868    2.6425   H         1 RES1   0.0000
   123 H69      -4.0045    0.3792    3.9339   H         1 RES1   0.0000
   124 H70      -4.2577   -2.0351    4.1730   H         1 RES1   0.0000
   125 H71      -3.3932   -1.3787    5.5548   H         1 RES1   0.0000
   126 H72      -1.8417   -2.4585    3.2071   H         1 RES1   0.0000
   127 H73      -2.5517   -3.5951    4.3499   H         1 RES1   0.0000
   128 H74      -0.9013   -1.4019    5.5634   H         1 RES1   0.0000
   129 H75      -0.1576   -3.2797    6.9977   H         1 RES1   0.0000
   130 H76      -1.0945   -4.4044    6.0196   H         1 RES1   0.0000
   131 H77      -2.2919   -3.9794    8.0243   H         1 RES1   0.0000
   132 H78      -3.1886   -3.1882    6.7456   H         1 RES1   0.0000
   133 H79      -2.0431   -1.0036    7.4344   H         1 RES1   0.0000
   134 H80      -1.3336   -1.8738    8.7813   H         1 RES1   0.0000
   135 H81      -4.3356   -1.5952    8.2680   H         1 RES1   0.0000
   136 H82      -3.4059   -0.6886    9.4635   H         1 RES1   0.0000
   137 H83      -3.6045   -2.4302    9.6307   H         1 RES1   0.0000
   138 H84       0.3115   -2.1999    3.4345   H         1 RES1   0.0000
   139 H85       0.3956   -3.7859    4.2025   H         1 RES1   0.0000
   140 H86       1.7402   -2.8678    6.0435   H         1 RES1   0.0000
   141 H87       1.5601   -1.2379    5.4180   H         1 RES1   0.0000
   142 H88       2.7158   -2.0213    3.2805   H         1 RES1   0.0000
   143 H89       2.9314   -3.5898    4.0521   H         1 RES1   0.0000
   144 H90       4.9981   -2.5768    4.4531   H         1 RES1   0.0000
   145 H91       4.1312   -2.3254    5.9619   H         1 RES1   0.0000
   146 H92       3.5618    0.0097    5.2030   H         1 RES1   0.0000
   147 H93       4.5265   -0.2820    3.7349   H         1 RES1   0.0000
   148 H94       5.5976   -0.3289    6.5958   H         1 RES1   0.0000
   149 H95       5.8525    0.9433    5.4035   H         1 RES1   0.0000
   150 H96       6.5472   -0.6594    5.1498   H         1 RES1   0.0000
   151 C49      -2.0957    6.4101    1.4852   C.3       1 RES1   0.0000
   152 C50      -2.4039    5.6770    2.7881   C.3       1 RES1   0.0000
   153 C51      -3.8635    5.2448    2.9334   C.3       1 RES1   0.0000
   154 C52      -4.2826    4.0846    2.0259   C.3       1 RES1   0.0000
   155 C53      -4.8015    4.5520    0.6678   C.3       1 RES1   0.0000
   156 C54      -5.1920    3.3978   -0.2559   C.3       1 RES1   0.0000
   157 C55      -3.9519    2.7185   -0.8491   C.3       1 RES1   0.0000
   158 C56      -4.3175    1.7904   -2.0100   C.3       1 RES1   0.0000
   159 N3       -3.1983    1.2726   -2.8253   N.am      1 RES1   0.0000
   160 C57      -3.1463    1.7735   -4.2028   C.3       1 RES1   0.0000
   161 C58      -3.3361    3.3098   -4.2101   C.3       1 RES1   0.0000
   162 C59      -2.3696    4.1042   -5.0975   C.3       1 RES1   0.0000
   163 C60      -2.4506    5.6152   -4.7682   C.3       1 RES1   0.0000
   164 C61      -2.6932    6.4856   -6.0121   C.3       1 RES1   0.0000
   165 C62      -4.0044    6.2436   -6.7565   C.3       1 RES1   0.0000
   166 C63      -5.2581    6.4238   -5.9003   C.3       1 RES1   0.0000
   167 C64      -6.5118    6.2390   -6.7498   C.3       1 RES1   0.0000
   168 C65      -1.1814    6.1469   -4.0842   C.3       1 RES1   0.0000
   169 C66      -0.9896    5.7512   -2.6175   C.3       1 RES1   0.0000
   170 C67       0.2161    6.5245   -2.0702   C.3       1 RES1   0.0000
   171 C68       0.8190    6.0476   -0.7455   C.3       1 RES1   0.0000
   172 C69       1.5263    4.7025   -0.8612   C.3       1 RES1   0.0000
   173 C70       2.2164    4.2626    0.4272   C.3       1 RES1   0.0000
   174 C71      -2.3422    0.4422   -2.2451   C.2       1 RES1   0.0000
   175 O4       -2.2201    0.4048   -0.9924   O.2       1 RES1   0.0000
   176 C72      -1.5526   -0.6301   -3.0245   C.3       1 RES1   0.0000
   177 O5       -0.5486   -1.1466   -2.1381   O.3       1 RES1   0.0000
   178 C73      -0.2982   -2.5529   -2.2457   C.3       1 RES1   0.0000
   179 C74       0.2368   -3.0356   -0.8829   C.2       1 RES1   0.0000
   180 O6        0.3296   -2.1812    0.0350   O.2       1 RES1   0.0000
   181 N4        0.5667   -4.2984   -0.6758   N.am      1 RES1   0.0000
   182 C75       0.6028   -5.3399   -1.6878   C.3       1 RES1   0.0000
   183 C76       1.9776   -5.4679   -2.3514   C.3       1 RES1   0.0000
   184 C77       2.1694   -6.8158   -3.0496   C.3       1 RES1   0.0000
   185 C78       1.2722   -7.0049   -4.2743   C.3       1 RES1   0.0000
   186 C79      -0.0594   -7.6900   -3.9652   C.3       1 RES1   0.0000
   187 C80      -0.9709   -7.7822   -5.1974   C.3       1 RES1   0.0000
   188 C81      -2.0846   -6.7317   -5.2198   C.3       1 RES1   0.0000
   189 C82      -1.5810   -5.2974   -5.3609   C.3       1 RES1   0.0000
   190 C83       1.1514   -4.6420    0.6262   C.3       1 RES1   0.0000
   191 C84       0.5348   -5.8305    1.3668   C.3       1 RES1   0.0000
   192 C85      -0.8996   -5.6066    1.8679   C.3       1 RES1   0.0000
   193 C86      -2.0341   -6.0468    0.9214   C.3       1 RES1   0.0000
   194 C87      -2.5288   -7.4716    1.2201   C.3       1 RES1   0.0000
   195 C88      -1.5021   -8.5962    1.1066   C.3       1 RES1   0.0000
   196 C89      -1.0591   -8.8997   -0.3231   C.3       1 RES1   0.0000
   197 C90       0.0978   -9.8904   -0.3436   C.3       1 RES1   0.0000
   198 C91      -3.2548   -5.1013    1.0144   C.3       1 RES1   0.0000
   199 C92      -3.8223   -4.7791   -0.3692   C.3       1 RES1   0.0000
   200 C93      -5.0652   -3.8860   -0.3211   C.3       1 RES1   0.0000
   201 C94      -5.5935   -3.5034   -1.7088   C.3       1 RES1   0.0000
   202 C95      -4.6170   -2.6775   -2.5515   C.3       1 RES1   0.0000
   203 C96      -5.2111   -2.2740   -3.8984   C.3       1 RES1   0.0000
   204 H97      -1.1326    6.9133    1.5613   H         1 RES1   0.0000
   205 H98      -2.8457    7.1719    1.2819   H         1 RES1   0.0000
   206 H99      -2.0687    5.7219    0.6383   H         1 RES1   0.0000
   207 H100     -2.1681    6.3415    3.6205   H         1 RES1   0.0000
   208 H101     -1.7448    4.8034    2.8774   H         1 RES1   0.0000
   209 H102     -4.5029    6.1033    2.7302   H         1 RES1   0.0000
   210 H103     -4.0291    4.9693    3.9753   H         1 RES1   0.0000
   211 H104     -5.0832    3.5266    2.5136   H         1 RES1   0.0000
   212 H105     -3.4451    3.3875    1.9006   H         1 RES1   0.0000
   213 H106     -4.0625    5.1762    0.1666   H         1 RES1   0.0000
   214 H107     -5.6787    5.1708    0.8441   H         1 RES1   0.0000
   215 H108     -5.8107    3.7850   -1.0671   H         1 RES1   0.0000
   216 H109     -5.7955    2.6764    0.3023   H         1 RES1   0.0000
   217 H110     -3.4519    2.1376   -0.0739   H         1 RES1   0.0000
   218 H111     -3.2670    3.4952   -1.1998   H         1 RES1   0.0000
   219 H112     -4.9923    2.3161   -2.6870   H         1 RES1   0.0000
   220 H113     -4.8466    0.9184   -1.6141   H         1 RES1   0.0000
   221 H114     -3.9261    1.2840   -4.7919   H         1 RES1   0.0000
   222 H115     -2.1831    1.5212   -4.6450   H         1 RES1   0.0000
   223 H116     -3.2056    3.6707   -3.1948   H         1 RES1   0.0000
   224 H117     -4.3538    3.5615   -4.5073   H         1 RES1   0.0000
   225 H118     -2.6264    3.9494   -6.1441   H         1 RES1   0.0000
   226 H119     -1.3472    3.7541   -4.9478   H         1 RES1   0.0000
   227 H120     -3.2878    5.7691   -4.0803   H         1 RES1   0.0000
   228 H121     -1.8540    6.3633   -6.7053   H         1 RES1   0.0000
   229 H122     -2.6936    7.5324   -5.6950   H         1 RES1   0.0000
   230 H123     -4.0243    5.2466   -7.2009   H         1 RES1   0.0000
   231 H124     -4.0422    6.9663   -7.5746   H         1 RES1   0.0000
   232 H125     -5.2634    7.4191   -5.4486   H         1 RES1   0.0000
   233 H126     -5.2754    5.6946   -5.0843   H         1 RES1   0.0000
   234 H127     -6.5732    7.0203   -7.5065   H         1 RES1   0.0000
   235 H128     -7.4063    6.2653   -6.1309   H         1 RES1   0.0000
   236 H129     -6.4903    5.2693   -7.2480   H         1 RES1   0.0000
   237 H130     -1.2077    7.2389   -4.1130   H         1 RES1   0.0000
   238 H131     -0.3049    5.8411   -4.6606   H         1 RES1   0.0000
   239 H132     -0.8336    4.6726   -2.5318   H         1 RES1   0.0000
   240 H133     -1.8908    6.0090   -2.0499   H         1 RES1   0.0000
   241 H134     -0.0924    7.5636   -1.9623   H         1 RES1   0.0000
   242 H135      1.0024    6.5116   -2.8260   H         1 RES1   0.0000
   243 H136      0.0517    5.9897    0.0244   H         1 RES1   0.0000
   244 H137      1.5517    6.7942   -0.4309   H         1 RES1   0.0000
   245 H138      2.2631    4.7673   -1.6647   H         1 RES1   0.0000
   246 H139      0.8050    3.9289   -1.1499   H         1 RES1   0.0000
   247 H140      2.5222    3.2260    0.3128   H         1 RES1   0.0000
   248 H141      1.5634    4.3568    1.2988   H         1 RES1   0.0000
   249 H142      3.1052    4.8655    0.6011   H         1 RES1   0.0000
   250 H143     -1.0998   -0.2612   -3.9537   H         1 RES1   0.0000
   251 H144     -2.2811   -1.4169   -3.2816   H         1 RES1   0.0000
   252 H145      0.4358   -2.7487   -3.0394   H         1 RES1   0.0000
   253 H146     -1.2225   -3.0925   -2.4882   H         1 RES1   0.0000
   254 H147     -0.1653   -5.1542   -2.4372   H         1 RES1   0.0000
   255 H148      0.3630   -6.2824   -1.1936   H         1 RES1   0.0000
   256 H149      2.7520   -5.3615   -1.5896   H         1 RES1   0.0000
   257 H150      2.1142   -4.6676   -3.0769   H         1 RES1   0.0000
   258 H151      1.9913   -7.6233   -2.3398   H         1 RES1   0.0000
   259 H152      3.2158   -6.8829   -3.3490   H         1 RES1   0.0000
   260 H153      1.7952   -7.6306   -4.9955   H         1 RES1   0.0000
   261 H154      1.1048   -6.0391   -4.7513   H         1 RES1   0.0000
   262 H155     -0.6001   -7.1724   -3.1729   H         1 RES1   0.0000
   263 H156      0.1545   -8.6921   -3.5940   H         1 RES1   0.0000
   264 H157     -1.4465   -8.7634   -5.2269   H         1 RES1   0.0000
   265 H158     -0.3691   -7.6887   -6.1019   H         1 RES1   0.0000
   266 H159     -2.6823   -6.8203   -4.3069   H         1 RES1   0.0000
   267 H160     -2.7454   -6.9496   -6.0608   H         1 RES1   0.0000
   268 H161     -0.9383   -5.0221   -4.5240   H         1 RES1   0.0000
   269 H162     -2.4208   -4.6040   -5.3908   H         1 RES1   0.0000
   270 H163     -1.0123   -5.1793   -6.2804   H         1 RES1   0.0000
   271 H164      1.0528   -3.7541    1.2527   H         1 RES1   0.0000
   272 H165      2.2164   -4.8320    0.4689   H         1 RES1   0.0000
   273 H166      1.1857   -5.9750    2.2329   H         1 RES1   0.0000
   274 H167      0.5906   -6.7425    0.7790   H         1 RES1   0.0000
   275 H168     -0.9922   -4.5452    2.1136   H         1 RES1   0.0000
   276 H169     -1.0144   -6.1525    2.8039   H         1 RES1   0.0000
   277 H170     -1.6735   -6.0227   -0.1108   H         1 RES1   0.0000
   278 H171     -3.3464   -7.6879    0.5310   H         1 RES1   0.0000
   279 H172     -2.9396   -7.4816    2.2316   H         1 RES1   0.0000
   280 H173     -1.9555   -9.4983    1.5174   H         1 RES1   0.0000
   281 H174     -0.6279   -8.3786    1.7215   H         1 RES1   0.0000
   282 H175     -0.7508   -7.9793   -0.8255   H         1 RES1   0.0000
   283 H176     -1.8942   -9.3096   -0.8937   H         1 RES1   0.0000
   284 H177      0.9559   -9.5022    0.2032   H         1 RES1   0.0000
   285 H178      0.4076  -10.0998   -1.3641   H         1 RES1   0.0000
   286 H179     -0.1979  -10.8274    0.1190   H         1 RES1   0.0000
   287 H180     -2.9926   -4.1699    1.5336   H         1 RES1   0.0000
   288 H181     -4.0350   -5.5768    1.6110   H         1 RES1   0.0000
   289 H182     -4.0823   -5.7174   -0.8621   H         1 RES1   0.0000
   290 H183     -3.0396   -4.3023   -0.9694   H         1 RES1   0.0000
   291 H184     -4.8576   -2.9771    0.2580   H         1 RES1   0.0000
   292 H185     -5.8601   -4.4217    0.2019   H         1 RES1   0.0000
   293 H186     -6.5197   -2.9373   -1.5885   H         1 RES1   0.0000
   294 H187     -5.8427   -4.4152   -2.2519   H         1 RES1   0.0000
   295 H188     -3.7150   -3.2720   -2.7313   H         1 RES1   0.0000
   296 H189     -4.3335   -1.7718   -1.9954   H         1 RES1   0.0000
   297 H190     -5.5137   -3.1532   -4.4593   H         1 RES1   0.0000
   298 H191     -4.4829   -1.7274   -4.4951   H         1 RES1   0.0000
   299 H192     -6.0854   -1.6430   -3.7664   H         1 RES1   0.0000
   300 O7       -0.7961    2.2977    0.5778   O.3       1 RES1   0.0000
   301 H193     -1.5639    2.6221    1.0722   H         1 RES1   0.0000
   302 H194     -0.3229    3.0987    0.2874   H         1 RES1   0.0000
   303 O8       -2.2986   -1.8691    0.2771   O.3       1 RES1   0.0000
   304 H195     -3.1936   -1.8078   -0.0935   H         1 RES1   0.0000
   305 H196     -2.2698   -2.7331    0.7240   H         1 RES1   0.0000
@<TRIPOS>BOND
     1     1    26    1
     2     1    28    1
     3     1    31    1
     4     1   175    1
     5     1   177    1
     6     1   180    1
     7     1   300    1
     8     1   303    1
     9     2     3    1
    10     2    55    1
    11     2    56    1
    12     2    57    1
    13     3     4    1
    14     3    58    1
    15     3    59    1
    16     4     5    1
    17     4    60    1
    18     4    61    1
    19     5     6    1
    20     5    62    1
    21     5    63    1
    22     6     7    1
    23     6    64    1
    24     6    65    1
    25     7     8    1
    26     7    66    1
    27     7    67    1
    28     8     9    1
    29     8    68    1
    30     8    69    1
    31     9    10    1
    32     9    70    1
    33     9    71    1
    34    10    11    1
    35    10    25    1
    36    11    12    1
    37    11    72    1
    38    11    73    1
    39    12    13    1
    40    12    74    1
    41    12    75    1
    42    13    14    1
    43    13    76    1
    44    13    77    1
    45    14    15    1
    46    14    19    1
    47    14    78    1
    48    15    16    1
    49    15    79    1
    50    15    80    1
    51    16    17    1
    52    16    81    1
    53    16    82    1
    54    17    18    1
    55    17    83    1
    56    17    84    1
    57    18    85    1
    58    18    86    1
    59    18    87    1
    60    19    20    1
    61    19    88    1
    62    19    89    1
    63    20    21    1
    64    20    90    1
    65    20    91    1
    66    21    22    1
    67    21    92    1
    68    21    93    1
    69    22    23    1
    70    22    94    1
    71    22    95    1
    72    23    24    1
    73    23    96    1
    74    23    97    1
    75    24    98    1
    76    24    99    1
    77    24   100    1
    78    25    26    2
    79    25    27    1
    80    27    28    1
    81    27   101    1
    82    27   102    1
    83    28    29    1
    84    29    30    1
    85    29   103    1
    86    29   104    1
    87    30    31    2
    88    30    32    1
    89    32    33    1
    90    32    41    1
    91    33    34    1
    92    33   105    1
    93    33   106    1
    94    34    35    1
    95    34   107    1
    96    34   108    1
    97    35    36    1
    98    35   109    1
    99    35   110    1
   100    36    37    1
   101    36   111    1
   102    36   112    1
   103    37    38    1
   104    37   113    1
   105    37   114    1
   106    38    39    1
   107    38   115    1
   108    38   116    1
   109    39    40    1
   110    39   117    1
   111    39   118    1
   112    40   119    1
   113    40   120    1
   114    40   121    1
   115    41    42    1
   116    41   122    1
   117    41   123    1
   118    42    43    1
   119    42   124    1
   120    42   125    1
   121    43    44    1
   122    43   126    1
   123    43   127    1
   124    44    45    1
   125    44    49    1
   126    44   128    1
   127    45    46    1
   128    45   129    1
   129    45   130    1
   130    46    47    1
   131    46   131    1
   132    46   132    1
   133    47    48    1
   134    47   133    1
   135    47   134    1
   136    48   135    1
   137    48   136    1
   138    48   137    1
   139    49    50    1
   140    49   138    1
   141    49   139    1
   142    50    51    1
   143    50   140    1
   144    50   141    1
   145    51    52    1
   146    51   142    1
   147    51   143    1
   148    52    53    1
   149    52   144    1
   150    52   145    1
   151    53    54    1
   152    53   146    1
   153    53   147    1
   154    54   148    1
   155    54   149    1
   156    54   150    1
   157   151   152    1
   158   151   204    1
   159   151   205    1
   160   151   206    1
   161   152   153    1
   162   152   207    1
   163   152   208    1
   164   153   154    1
   165   153   209    1
   166   153   210    1
   167   154   155    1
   168   154   211    1
   169   154   212    1
   170   155   156    1
   171   155   213    1
   172   155   214    1
   173   156   157    1
   174   156   215    1
   175   156   216    1
   176   157   158    1
   177   157   217    1
   178   157   218    1
   179   158   159    1
   180   158   219    1
   181   158   220    1
   182   159   160    1
   183   159   174    1
   184   160   161    1
   185   160   221    1
   186   160   222    1
   187   161   162    1
   188   161   223    1
   189   161   224    1
   190   162   163    1
   191   162   225    1
   192   162   226    1
   193   163   164    1
   194   163   168    1
   195   163   227    1
   196   164   165    1
   197   164   228    1
   198   164   229    1
   199   165   166    1
   200   165   230    1
   201   165   231    1
   202   166   167    1
   203   166   232    1
   204   166   233    1
   205   167   234    1
   206   167   235    1
   207   167   236    1
   208   168   169    1
   209   168   237    1
   210   168   238    1
   211   169   170    1
   212   169   239    1
   213   169   240    1
   214   170   171    1
   215   170   241    1
   216   170   242    1
   217   171   172    1
   218   171   243    1
   219   171   244    1
   220   172   173    1
   221   172   245    1
   222   172   246    1
   223   173   247    1
   224   173   248    1
   225   173   249    1
   226   174   175    2
   227   174   176    1
   228   176   177    1
   229   176   250    1
   230   176   251    1
   231   177   178    1
   232   178   179    1
   233   178   252    1
   234   178   253    1
   235   179   180    2
   236   179   181    1
   237   181   182    1
   238   181   190    1
   239   182   183    1
   240   182   254    1
   241   182   255    1
   242   183   184    1
   243   183   256    1
   244   183   257    1
   245   184   185    1
   246   184   258    1
   247   184   259    1
   248   185   186    1
   249   185   260    1
   250   185   261    1
   251   186   187    1
   252   186   262    1
   253   186   263    1
   254   187   188    1
   255   187   264    1
   256   187   265    1
   257   188   189    1
   258   188   266    1
   259   188   267    1
   260   189   268    1
   261   189   269    1
   262   189   270    1
   263   190   191    1
   264   190   271    1
   265   190   272    1
   266   191   192    1
   267   191   273    1
   268   191   274    1
   269   192   193    1
   270   192   275    1
   271   192   276    1
   272   193   194    1
   273   193   198    1
   274   193   277    1
   275   194   195    1
   276   194   278    1
   277   194   279    1
   278   195   196    1
   279   195   280    1
   280   195   281    1
   281   196   197    1
   282   196   282    1
   283   196   283    1
   284   197   284    1
   285   197   285    1
   286   197   286    1
   287   198   199    1
   288   198   287    1
   289   198   288    1
   290   199   200    1
   291   199   289    1
   292   199   290    1
   293   200   201    1
   294   200   291    1
   295   200   292    1
   296   201   202    1
   297   201   293    1
   298   201   294    1
   299   202   203    1
   300   202   295    1
   301   202   296    1
   302   203   297    1
   303   203   298    1
   304   203   299    1
   305   300   301    1
   306   300   302    1
   307   303   304    1
   308   303   305    1
@<TRIPOS>SUBSTRUCTURE
     1 RES1      305 GROUP             0 ****  ****    0  
