@<TRIPOS>MOLECULE
ICIGOT_geomtry_0_nunpairedes_0_charge_3 Charge: 3 Unpaired_Electrons: 2 XTB_Unpaired_Electrons: 0 XTB_Charge: 3
   149   152     1     0     0
SMALL
NoCharges
****
Generated from Architector

@<TRIPOS>ATOM
     1 Tm1       0.0242   -0.0082   -0.0838   Tm        1 RES1   0.0000
     2 C1        1.2497   -3.4074   -6.6064   C.3       1 RES1   0.0000
     3 C2        0.4945   -3.0314   -5.3367   C.3       1 RES1   0.0000
     4 C3       -0.1734   -4.2585   -4.7259   C.3       1 RES1   0.0000
     5 C4       -0.9576   -3.9866   -3.4445   C.3       1 RES1   0.0000
     6 C5       -1.6011   -5.2795   -2.9417   C.3       1 RES1   0.0000
     7 C6       -2.2278   -5.1932   -1.5480   C.3       1 RES1   0.0000
     8 C7       -3.6095   -4.5237   -1.5032   C.3       1 RES1   0.0000
     9 C8       -3.6262   -3.0836   -0.9831   C.3       1 RES1   0.0000
    10 N1       -3.3082   -2.0270   -1.9475   N.am      1 RES1   0.0000
    11 C9       -4.2509   -1.9063   -3.0390   C.3       1 RES1   0.0000
    12 C10      -2.2836   -1.2254   -1.7412   C.2       1 RES1   0.0000
    13 O1       -1.4366   -1.4366   -0.8353   O.2       1 RES1   0.0000
    14 C11      -2.1317    0.0499   -2.5940   C.3       1 RES1   0.0000
    15 O2       -0.9709    0.7713   -2.1670   O.3       1 RES1   0.0000
    16 C12      -1.0500    2.1907   -2.3009   C.3       1 RES1   0.0000
    17 C13      -1.3660    2.7745   -0.9119   C.2       1 RES1   0.0000
    18 O3       -1.3427    1.9585    0.0455   O.2       1 RES1   0.0000
    19 N2       -1.6158    4.0601   -0.7799   N.am      1 RES1   0.0000
    20 C14      -1.6145    5.0118   -1.8728   C.3       1 RES1   0.0000
    21 C15      -1.8406    4.6606    0.5335   C.3       1 RES1   0.0000
    22 C16      -3.2761    5.1422    0.7611   C.3       1 RES1   0.0000
    23 C17      -4.2428    4.0036    1.1225   C.3       1 RES1   0.0000
    24 C18      -4.9303    4.2329    2.4736   C.3       1 RES1   0.0000
    25 C19      -3.9885    4.2490    3.6856   C.3       1 RES1   0.0000
    26 C20      -3.8439    2.9065    4.4012   C.3       1 RES1   0.0000
    27 C21      -3.1881    1.7946    3.5816   C.3       1 RES1   0.0000
    28 C22      -2.9298    0.5834    4.4761   C.3       1 RES1   0.0000
    29 H1        1.7247   -2.5383   -7.0529   H         1 RES1   0.0000
    30 H2        2.0193   -4.1423   -6.3844   H         1 RES1   0.0000
    31 H3        0.5740   -3.8383   -7.3395   H         1 RES1   0.0000
    32 H4        1.2043   -2.5988   -4.6233   H         1 RES1   0.0000
    33 H5       -0.2575   -2.2737   -5.5699   H         1 RES1   0.0000
    34 H6       -0.8527   -4.6877   -5.4623   H         1 RES1   0.0000
    35 H7        0.5914   -5.0072   -4.5187   H         1 RES1   0.0000
    36 H8       -0.2901   -3.6072   -2.6604   H         1 RES1   0.0000
    37 H9       -1.7206   -3.2281   -3.6347   H         1 RES1   0.0000
    38 H10      -2.3532   -5.6169   -3.6574   H         1 RES1   0.0000
    39 H11      -0.8274   -6.0489   -2.9119   H         1 RES1   0.0000
    40 H12      -2.3397   -6.2156   -1.1827   H         1 RES1   0.0000
    41 H13      -1.5388   -4.6860   -0.8664   H         1 RES1   0.0000
    42 H14      -4.0874   -4.5949   -2.4804   H         1 RES1   0.0000
    43 H15      -4.2445   -5.0929   -0.8239   H         1 RES1   0.0000
    44 H16      -4.6351   -2.8693   -0.6218   H         1 RES1   0.0000
    45 H17      -2.9233   -2.9809   -0.1547   H         1 RES1   0.0000
    46 H18      -4.2581   -2.8348   -3.6131   H         1 RES1   0.0000
    47 H19      -5.2614   -1.7493   -2.6577   H         1 RES1   0.0000
    48 H20      -3.9977   -1.0932   -3.7087   H         1 RES1   0.0000
    49 H21      -1.9997   -0.2081   -3.6526   H         1 RES1   0.0000
    50 H22      -3.0268    0.6676   -2.4541   H         1 RES1   0.0000
    51 H23      -0.0534    2.5234   -2.6243   H         1 RES1   0.0000
    52 H24      -1.7875    2.4741   -3.0542   H         1 RES1   0.0000
    53 H25      -1.2176    4.5849   -2.7866   H         1 RES1   0.0000
    54 H26      -2.6235    5.3882   -2.0534   H         1 RES1   0.0000
    55 H27      -0.9951    5.8697   -1.6048   H         1 RES1   0.0000
    56 H28      -1.5651    3.9104    1.2775   H         1 RES1   0.0000
    57 H29      -1.1633    5.5138    0.6071   H         1 RES1   0.0000
    58 H30      -3.2497    5.8633    1.5777   H         1 RES1   0.0000
    59 H31      -3.6333    5.6925   -0.1091   H         1 RES1   0.0000
    60 H32      -5.0229    3.9275    0.3641   H         1 RES1   0.0000
    61 H33      -3.6961    3.0580    1.1355   H         1 RES1   0.0000
    62 H34      -5.4557    5.1874    2.4187   H         1 RES1   0.0000
    63 H35      -5.6907    3.4641    2.6191   H         1 RES1   0.0000
    64 H36      -3.0007    4.6149    3.3937   H         1 RES1   0.0000
    65 H37      -4.3882    4.9549    4.4147   H         1 RES1   0.0000
    66 H38      -3.2471    3.0683    5.3007   H         1 RES1   0.0000
    67 H39      -4.8291    2.5672    4.7219   H         1 RES1   0.0000
    68 H40      -3.8578    1.5171    2.7620   H         1 RES1   0.0000
    69 H41      -2.2476    2.1609    3.1507   H         1 RES1   0.0000
    70 H42      -3.8706    0.2013    4.8637   H         1 RES1   0.0000
    71 H43      -2.4219   -0.2296    3.9592   H         1 RES1   0.0000
    72 H44      -2.3168    0.8701    5.3273   H         1 RES1   0.0000
    73 C23      -0.1892   -6.2717    3.7235   C.3       1 RES1   0.0000
    74 C24       0.4446   -5.1659    2.8888   C.3       1 RES1   0.0000
    75 C25       0.9220   -5.6958    1.5403   C.3       1 RES1   0.0000
    76 C26       1.6209   -4.6278    0.7040   C.3       1 RES1   0.0000
    77 C27       2.2018   -5.2091   -0.5830   C.3       1 RES1   0.0000
    78 C28       2.8467   -4.1715   -1.5089   C.3       1 RES1   0.0000
    79 C29       4.2439   -3.6926   -1.0752   C.3       1 RES1   0.0000
    80 C30       4.3161   -2.2790   -0.4875   C.3       1 RES1   0.0000
    81 N3        3.7501   -2.1394    0.8530   N.am      1 RES1   0.0000
    82 C31       4.5153   -2.7744    1.9032   C.3       1 RES1   0.0000
    83 C32       2.6207   -1.4858    1.0143   C.2       1 RES1   0.0000
    84 O4        2.0126   -0.9464    0.0531   O.2       1 RES1   0.0000
    85 C33       1.9530   -1.3740    2.3911   C.3       1 RES1   0.0000
    86 O5        0.8041   -0.5211    2.2917   O.3       1 RES1   0.0000
    87 C34       0.8492    0.6835    3.0587   C.3       1 RES1   0.0000
    88 C35       1.1835    1.8868    2.1556   C.2       1 RES1   0.0000
    89 O6        1.1550    1.7003    0.9139   O.2       1 RES1   0.0000
    90 N4        1.4340    3.0597    2.7080   N.am      1 RES1   0.0000
    91 C36       1.4066    3.3214    4.1313   C.3       1 RES1   0.0000
    92 C37       1.5917    4.2630    1.8904   C.3       1 RES1   0.0000
    93 C38       2.9604    4.9436    1.9999   C.3       1 RES1   0.0000
    94 C39       4.0180    4.3426    1.0608   C.3       1 RES1   0.0000
    95 C40       4.4755    5.3353   -0.0155   C.3       1 RES1   0.0000
    96 C41       3.3896    5.7878   -1.0014   C.3       1 RES1   0.0000
    97 C42       3.2901    4.9418   -2.2721   C.3       1 RES1   0.0000
    98 C43       2.8688    3.4913   -2.0442   C.3       1 RES1   0.0000
    99 C44       2.6384    2.7672   -3.3673   C.3       1 RES1   0.0000
   100 H45      -0.5295   -5.8914    4.6831   H         1 RES1   0.0000
   101 H46      -1.0405   -6.7050    3.2049   H         1 RES1   0.0000
   102 H47       0.5325   -7.0626    3.9087   H         1 RES1   0.0000
   103 H48      -0.2796   -4.3594    2.7311   H         1 RES1   0.0000
   104 H49       1.2952   -4.7514    3.4375   H         1 RES1   0.0000
   105 H50       1.6191   -6.5152    1.7149   H         1 RES1   0.0000
   106 H51       0.0734   -6.1015    0.9896   H         1 RES1   0.0000
   107 H52       0.9180   -3.8168    0.4581   H         1 RES1   0.0000
   108 H53       2.4264   -4.2040    1.3022   H         1 RES1   0.0000
   109 H54       2.9398   -5.9727   -0.3297   H         1 RES1   0.0000
   110 H55       1.4029   -5.7094   -1.1340   H         1 RES1   0.0000
   111 H56       2.9429   -4.6347   -2.4934   H         1 RES1   0.0000
   112 H57       2.1720   -3.3151   -1.6096   H         1 RES1   0.0000
   113 H58       4.6870   -4.4202   -0.3942   H         1 RES1   0.0000
   114 H59       4.8895   -3.6702   -1.9531   H         1 RES1   0.0000
   115 H60       5.3658   -1.9823   -0.4402   H         1 RES1   0.0000
   116 H61       3.7772   -1.5785   -1.1269   H         1 RES1   0.0000
   117 H62       4.6921   -3.8164    1.6350   H         1 RES1   0.0000
   118 H63       5.4932   -2.2990    2.0081   H         1 RES1   0.0000
   119 H64       4.0057   -2.7500    2.8602   H         1 RES1   0.0000
   120 H65       1.5836   -2.3648    2.6918   H         1 RES1   0.0000
   121 H66       2.6492   -0.9996    3.1439   H         1 RES1   0.0000
   122 H67      -0.1628    0.8216    3.4665   H         1 RES1   0.0000
   123 H68       1.5552    0.5808    3.8856   H         1 RES1   0.0000
   124 H69       1.1004    2.4567    4.7065   H         1 RES1   0.0000
   125 H70       2.3894    3.6491    4.4749   H         1 RES1   0.0000
   126 H71       0.6997    4.1283    4.3341   H         1 RES1   0.0000
   127 H72       1.3917    3.9755    0.8572   H         1 RES1   0.0000
   128 H73       0.8218    4.9603    2.2295   H         1 RES1   0.0000
   129 H74       2.8215    5.9955    1.7485   H         1 RES1   0.0000
   130 H75       3.3084    4.9296    3.0323   H         1 RES1   0.0000
   131 H76       4.8998    4.0610    1.6374   H         1 RES1   0.0000
   132 H77       3.6199    3.4380    0.5977   H         1 RES1   0.0000
   133 H78       4.8768    6.2128    0.4952   H         1 RES1   0.0000
   134 H79       5.3017    4.8927   -0.5737   H         1 RES1   0.0000
   135 H80       2.4167    5.8206   -0.5032   H         1 RES1   0.0000
   136 H81       3.6246    6.8072   -1.3116   H         1 RES1   0.0000
   137 H82       2.5711    5.4188   -2.9422   H         1 RES1   0.0000
   138 H83       4.2569    4.9511   -2.7764   H         1 RES1   0.0000
   139 H84       3.6496    2.9673   -1.4930   H         1 RES1   0.0000
   140 H85       1.9514    3.4568   -1.4414   H         1 RES1   0.0000
   141 H86       3.5550    2.7600   -3.9522   H         1 RES1   0.0000
   142 H87       2.3280    1.7335   -3.1972   H         1 RES1   0.0000
   143 H88       1.8769    3.2714   -3.9612   H         1 RES1   0.0000
   144 O7       -1.9213   -0.3752    1.5424   O.3       1 RES1   0.0000
   145 H89      -2.2590   -1.1537    2.0114   H         1 RES1   0.0000
   146 H90      -2.5905    0.3167    1.6778   H         1 RES1   0.0000
   147 O8        0.9158   -1.0549   -2.3704   O.3       1 RES1   0.0000
   148 H91       0.5329   -1.8414   -2.7988   H         1 RES1   0.0000
   149 H92       1.7758   -0.9286   -2.7934   H         1 RES1   0.0000
@<TRIPOS>BOND
     1     1    13    1
     2     1    15    1
     3     1    18    1
     4     1    84    1
     5     1    86    1
     6     1    89    1
     7     1   144    1
     8     1   147    1
     9     2     3    1
    10     2    29    1
    11     2    30    1
    12     2    31    1
    13     3     4    1
    14     3    32    1
    15     3    33    1
    16     4     5    1
    17     4    34    1
    18     4    35    1
    19     5     6    1
    20     5    36    1
    21     5    37    1
    22     6     7    1
    23     6    38    1
    24     6    39    1
    25     7     8    1
    26     7    40    1
    27     7    41    1
    28     8     9    1
    29     8    42    1
    30     8    43    1
    31     9    10    1
    32     9    44    1
    33     9    45    1
    34    10    11    1
    35    10    12    1
    36    11    46    1
    37    11    47    1
    38    11    48    1
    39    12    13    2
    40    12    14    1
    41    14    15    1
    42    14    49    1
    43    14    50    1
    44    15    16    1
    45    16    17    1
    46    16    51    1
    47    16    52    1
    48    17    18    2
    49    17    19    1
    50    19    20    1
    51    19    21    1
    52    20    53    1
    53    20    54    1
    54    20    55    1
    55    21    22    1
    56    21    56    1
    57    21    57    1
    58    22    23    1
    59    22    58    1
    60    22    59    1
    61    23    24    1
    62    23    60    1
    63    23    61    1
    64    24    25    1
    65    24    62    1
    66    24    63    1
    67    25    26    1
    68    25    64    1
    69    25    65    1
    70    26    27    1
    71    26    66    1
    72    26    67    1
    73    27    28    1
    74    27    68    1
    75    27    69    1
    76    28    70    1
    77    28    71    1
    78    28    72    1
    79    73    74    1
    80    73   100    1
    81    73   101    1
    82    73   102    1
    83    74    75    1
    84    74   103    1
    85    74   104    1
    86    75    76    1
    87    75   105    1
    88    75   106    1
    89    76    77    1
    90    76   107    1
    91    76   108    1
    92    77    78    1
    93    77   109    1
    94    77   110    1
    95    78    79    1
    96    78   111    1
    97    78   112    1
    98    79    80    1
    99    79   113    1
   100    79   114    1
   101    80    81    1
   102    80   115    1
   103    80   116    1
   104    81    82    1
   105    81    83    1
   106    82   117    1
   107    82   118    1
   108    82   119    1
   109    83    84    2
   110    83    85    1
   111    85    86    1
   112    85   120    1
   113    85   121    1
   114    86    87    1
   115    87    88    1
   116    87   122    1
   117    87   123    1
   118    88    89    2
   119    88    90    1
   120    90    91    1
   121    90    92    1
   122    91   124    1
   123    91   125    1
   124    91   126    1
   125    92    93    1
   126    92   127    1
   127    92   128    1
   128    93    94    1
   129    93   129    1
   130    93   130    1
   131    94    95    1
   132    94   131    1
   133    94   132    1
   134    95    96    1
   135    95   133    1
   136    95   134    1
   137    96    97    1
   138    96   135    1
   139    96   136    1
   140    97    98    1
   141    97   137    1
   142    97   138    1
   143    98    99    1
   144    98   139    1
   145    98   140    1
   146    99   141    1
   147    99   142    1
   148    99   143    1
   149   144   145    1
   150   144   146    1
   151   147   148    1
   152   147   149    1
@<TRIPOS>SUBSTRUCTURE
     1 RES1      149 GROUP             0 ****  ****    0  
