@<TRIPOS>MOLECULE
ICIGOT_geomtry_0_nunpairedes_0_charge_2 Charge: 2 Unpaired_Electrons: 2 XTB_Unpaired_Electrons: 0 XTB_Charge: 2
    87    91     1     0     0
SMALL
NoCharges
****
Generated from Architector

@<TRIPOS>ATOM
     1 Tm1      -0.0045    0.0159   -0.0521   Tm        1 RES1   0.0000
     2 C1       -5.4025    1.7756    2.8883   C.3       1 RES1   0.0000
     3 C2       -5.0777    0.7420    1.8152   C.3       1 RES1   0.0000
     4 N1       -3.7548    0.1572    1.9876   N.am      1 RES1   0.0000
     5 C3       -3.6106   -1.0287    2.8310   C.3       1 RES1   0.0000
     6 C4       -2.8914   -0.7187    4.1419   C.3       1 RES1   0.0000
     7 C5       -2.6682    0.6296    1.4089   C.2       1 RES1   0.0000
     8 O1       -1.5507    0.0819    1.5466   O.2       1 RES1   0.0000
     9 C6       -2.7766    1.9051    0.5629   C.3       1 RES1   0.0000
    10 O2       -1.4946    2.2532    0.0728   O.3       1 RES1   0.0000
    11 C7       -0.8589    3.3867    0.6559   C.3       1 RES1   0.0000
    12 C8        0.5391    2.9479    1.1060   C.2       1 RES1   0.0000
    13 O3        0.8579    1.7524    0.9432   O.2       1 RES1   0.0000
    14 N2        1.3535    3.8052    1.6937   N.am      1 RES1   0.0000
    15 C9        2.6164    3.3031    2.2262   C.3       1 RES1   0.0000
    16 C10       2.4113    2.7733    3.6425   C.3       1 RES1   0.0000
    17 C11       1.1532    5.2408    1.7292   C.3       1 RES1   0.0000
    18 C12       1.7426    5.8866    0.4779   C.3       1 RES1   0.0000
    19 H1       -6.3401    2.2628    2.6444   H         1 RES1   0.0000
    20 H2       -4.6349    2.5402    2.9574   H         1 RES1   0.0000
    21 H3       -5.5059    1.3032    3.8582   H         1 RES1   0.0000
    22 H4       -5.1565    1.1838    0.8209   H         1 RES1   0.0000
    23 H5       -5.8025   -0.0716    1.8678   H         1 RES1   0.0000
    24 H6       -3.0345   -1.7628    2.2589   H         1 RES1   0.0000
    25 H7       -4.6063   -1.4228    3.0240   H         1 RES1   0.0000
    26 H8       -1.8425   -0.4970    3.9565   H         1 RES1   0.0000
    27 H9       -2.9665   -1.5805    4.7990   H         1 RES1   0.0000
    28 H10      -3.3442    0.1326    4.6426   H         1 RES1   0.0000
    29 H11      -3.2179    2.7174    1.1494   H         1 RES1   0.0000
    30 H12      -3.4104    1.7248   -0.3148   H         1 RES1   0.0000
    31 H13      -1.4164    3.7644    1.5235   H         1 RES1   0.0000
    32 H14      -0.7980    4.1696   -0.1108   H         1 RES1   0.0000
    33 H15       3.3338    4.1201    2.2258   H         1 RES1   0.0000
    34 H16       2.9708    2.4971    1.5785   H         1 RES1   0.0000
    35 H17       1.9979    3.5427    4.2942   H         1 RES1   0.0000
    36 H18       3.3637    2.4503    4.0581   H         1 RES1   0.0000
    37 H19       1.7270    1.9265    3.6249   H         1 RES1   0.0000
    38 H20       1.6615    5.6237    2.6143   H         1 RES1   0.0000
    39 H21       0.0942    5.4798    1.8210   H         1 RES1   0.0000
    40 H22       2.8222    5.7623    0.4440   H         1 RES1   0.0000
    41 H23       1.5256    6.9493    0.4866   H         1 RES1   0.0000
    42 H24       1.3110    5.4508   -0.4197   H         1 RES1   0.0000
    43 C13       2.7585   -1.1225   -4.0701   C.3       1 RES1   0.0000
    44 C14       1.2968   -1.5129   -4.2459   C.3       1 RES1   0.0000
    45 N3        0.8738   -2.5685   -3.3168   N.am      1 RES1   0.0000
    46 C15       0.4897   -3.8385   -3.9210   C.3       1 RES1   0.0000
    47 C16      -0.8848   -3.7510   -4.5798   C.3       1 RES1   0.0000
    48 C17       0.7575   -2.2728   -2.0377   C.2       1 RES1   0.0000
    49 O4        1.1008   -1.1636   -1.5761   O.2       1 RES1   0.0000
    50 C18       0.1627   -3.2862   -1.0435   C.3       1 RES1   0.0000
    51 O5       -0.0950   -2.6272    0.1993   O.3       1 RES1   0.0000
    52 C19       0.6763   -3.0575    1.3199   C.3       1 RES1   0.0000
    53 C20       1.6877   -1.9748    1.7217   C.2       1 RES1   0.0000
    54 O6        1.5279   -0.8324    1.2485   O.2       1 RES1   0.0000
    55 N4        2.6797   -2.2484    2.5600   N.am      1 RES1   0.0000
    56 C21       2.8551   -3.5413    3.2090   C.3       1 RES1   0.0000
    57 C22       3.7226   -4.5182    2.4198   C.3       1 RES1   0.0000
    58 C23       3.5952   -1.1527    2.8983   C.3       1 RES1   0.0000
    59 C24       4.5596   -0.8117    1.7678   C.3       1 RES1   0.0000
    60 H25       3.0437   -0.4504   -4.8746   H         1 RES1   0.0000
    61 H26       3.4028   -1.9958   -4.1125   H         1 RES1   0.0000
    62 H27       2.9075   -0.6107   -3.1227   H         1 RES1   0.0000
    63 H28       1.1222   -1.8809   -5.2541   H         1 RES1   0.0000
    64 H29       0.6703   -0.6341   -4.0743   H         1 RES1   0.0000
    65 H30       0.5011   -4.6273   -3.1700   H         1 RES1   0.0000
    66 H31       1.2413   -4.0856   -4.6738   H         1 RES1   0.0000
    67 H32      -1.6254   -3.3750   -3.8794   H         1 RES1   0.0000
    68 H33      -1.1878   -4.7382   -4.9153   H         1 RES1   0.0000
    69 H34      -0.8599   -3.0893   -5.4403   H         1 RES1   0.0000
    70 H35       0.8378   -4.1379   -0.8987   H         1 RES1   0.0000
    71 H36      -0.7957   -3.6627   -1.4197   H         1 RES1   0.0000
    72 H37       1.1833   -4.0029    1.1078   H         1 RES1   0.0000
    73 H38      -0.0330   -3.2028    2.1445   H         1 RES1   0.0000
    74 H39       1.8755   -3.9836    3.4027   H         1 RES1   0.0000
    75 H40       3.3202   -3.3696    4.1816   H         1 RES1   0.0000
    76 H41       3.3101   -4.7124    1.4346   H         1 RES1   0.0000
    77 H42       3.7673   -5.4585    2.9636   H         1 RES1   0.0000
    78 H43       4.7380   -4.1507    2.3108   H         1 RES1   0.0000
    79 H44       4.1475   -1.4338    3.7925   H         1 RES1   0.0000
    80 H45       2.9844   -0.2740    3.1202   H         1 RES1   0.0000
    81 H46       5.1399   -1.6794    1.4643   H         1 RES1   0.0000
    82 H47       5.2530   -0.0475    2.1137   H         1 RES1   0.0000
    83 H48       4.0105   -0.4299    0.9091   H         1 RES1   0.0000
    84 N5       -1.3076    0.2931   -2.0456   N.3       1 RES1   0.0000
    85 O7       -1.9416    0.3558   -3.0448   O.2       1 RES1   0.0000
    86 O8       -1.6327   -0.5062   -1.1389   O.co2     1 RES1   0.0000
    87 O9       -0.3085    0.9931   -1.8506   O.co2     1 RES1   0.0000
@<TRIPOS>BOND
     1     1     8    1
     2     1    10    1
     3     1    13    1
     4     1    49    1
     5     1    51    1
     6     1    54    1
     7     1    86    1
     8     1    87    1
     9     2     3    1
    10     2    19    1
    11     2    20    1
    12     2    21    1
    13     3     4    1
    14     3    22    1
    15     3    23    1
    16     4     5    1
    17     4     7    1
    18     5     6    1
    19     5    24    1
    20     5    25    1
    21     6    26    1
    22     6    27    1
    23     6    28    1
    24     7     8    2
    25     7     9    1
    26     9    10    1
    27     9    29    1
    28     9    30    1
    29    10    11    1
    30    11    12    1
    31    11    31    1
    32    11    32    1
    33    12    13    2
    34    12    14    1
    35    14    15    1
    36    14    17    1
    37    15    16    1
    38    15    33    1
    39    15    34    1
    40    16    35    1
    41    16    36    1
    42    16    37    1
    43    17    18    1
    44    17    38    1
    45    17    39    1
    46    18    40    1
    47    18    41    1
    48    18    42    1
    49    43    44    1
    50    43    60    1
    51    43    61    1
    52    43    62    1
    53    44    45    1
    54    44    63    1
    55    44    64    1
    56    45    46    1
    57    45    48    1
    58    46    47    1
    59    46    65    1
    60    46    66    1
    61    47    67    1
    62    47    68    1
    63    47    69    1
    64    48    49    2
    65    48    50    1
    66    50    51    1
    67    50    70    1
    68    50    71    1
    69    51    52    1
    70    52    53    1
    71    52    72    1
    72    52    73    1
    73    53    54    2
    74    53    55    1
    75    55    56    1
    76    55    58    1
    77    56    57    1
    78    56    74    1
    79    56    75    1
    80    57    76    1
    81    57    77    1
    82    57    78    1
    83    58    59    1
    84    58    79    1
    85    58    80    1
    86    59    81    1
    87    59    82    1
    88    59    83    1
    89    84    85    2
    90    84    86    1
    91    84    87    1
@<TRIPOS>SUBSTRUCTURE
     1 RES1       87 GROUP             0 ****  ****    0  
