@<TRIPOS>MOLECULE
ICIGOT_geomtry_0_nunpairedes_0_charge_3 Charge: 3 Unpaired_Electrons: 2 XTB_Unpaired_Electrons: 0 XTB_Charge: 3
   241   246     1     0     0
SMALL
NoCharges
****
Generated from Architector

@<TRIPOS>ATOM
     1 Tm1      -0.1250    0.2386    0.5890   Tm        1 RES1   0.0000
     2 C1        5.0014    0.0595   -2.5345   C.3       1 RES1   0.0000
     3 C2        3.6599    0.7885   -2.5225   C.3       1 RES1   0.0000
     4 C3        3.7649    2.3178   -2.4324   C.3       1 RES1   0.0000
     5 C4        3.5626    2.8930   -1.0256   C.3       1 RES1   0.0000
     6 C5        2.1490    3.3989   -0.7208   C.3       1 RES1   0.0000
     7 C6        2.1421    4.4565    0.3925   C.3       1 RES1   0.0000
     8 C7        2.0849    3.8947    1.8225   C.3       1 RES1   0.0000
     9 C8        0.7601    4.2694    2.5125   C.3       1 RES1   0.0000
    10 N1        0.3355    3.2657    3.4890   N.am      1 RES1   0.0000
    11 C9        0.4002    3.5663    4.9120   C.3       1 RES1   0.0000
    12 C10       1.8266    3.4787    5.4673   C.3       1 RES1   0.0000
    13 C11       2.3770    2.0556    5.4512   C.3       1 RES1   0.0000
    14 C12       1.7145    1.1543    6.4966   C.3       1 RES1   0.0000
    15 C13       2.0562   -0.3094    6.2306   C.3       1 RES1   0.0000
    16 C14       1.1174   -1.3187    6.8894   C.3       1 RES1   0.0000
    17 C15       1.1628   -2.6551    6.1484   C.3       1 RES1   0.0000
    18 C16       0.2450   -3.7004    6.7649   C.3       1 RES1   0.0000
    19 C17      -0.1063    2.1431    2.9603   C.2       1 RES1   0.0000
    20 O1       -0.2034    2.0047    1.7141   O.2       1 RES1   0.0000
    21 C18      -0.5045    0.9385    3.8125   C.3       1 RES1   0.0000
    22 O2       -0.8409   -0.1532    2.9439   O.3       1 RES1   0.0000
    23 C19      -2.2221   -0.5193    2.9920   C.3       1 RES1   0.0000
    24 C20      -3.1110    0.5050    2.2781   C.3       1 RES1   0.0000
    25 O3       -2.6025    0.7388    0.9604   O.3       1 RES1   0.0000
    26 C21      -3.4033    0.2788   -0.1200   C.3       1 RES1   0.0000
    27 C22      -2.7602   -0.9694   -0.7382   C.2       1 RES1   0.0000
    28 O4       -1.7381   -1.4015   -0.1529   O.2       1 RES1   0.0000
    29 N2       -3.3321   -1.5464   -1.7905   N.am      1 RES1   0.0000
    30 C23      -4.2164   -0.8006   -2.6899   C.3       1 RES1   0.0000
    31 C24      -5.6808   -0.6269   -2.2731   C.3       1 RES1   0.0000
    32 C25      -6.3849    0.2882   -3.2843   C.3       1 RES1   0.0000
    33 C26      -7.7974    0.6786   -2.8469   C.3       1 RES1   0.0000
    34 C27      -8.5675    1.3867   -3.9631   C.3       1 RES1   0.0000
    35 C28      -7.8714    2.6495   -4.4960   C.3       1 RES1   0.0000
    36 C29      -7.1811    2.4368   -5.8458   C.3       1 RES1   0.0000
    37 C30      -6.4194    3.6776   -6.3005   C.3       1 RES1   0.0000
    38 C31      -3.0883   -2.9681   -2.0924   C.3       1 RES1   0.0000
    39 C32      -1.6568   -3.3168   -2.5335   C.3       1 RES1   0.0000
    40 C33      -1.4327   -3.5388   -4.0300   C.3       1 RES1   0.0000
    41 C34       0.0121   -3.9696   -4.3403   C.3       1 RES1   0.0000
    42 C35       0.4283   -3.5975   -5.7730   C.3       1 RES1   0.0000
    43 C36       1.0344   -2.1969   -5.8862   C.3       1 RES1   0.0000
    44 C37       1.2253   -1.7799   -7.3437   C.3       1 RES1   0.0000
    45 C38       1.9669   -0.4544   -7.4865   C.3       1 RES1   0.0000
    46 H1        4.8894   -0.9697   -2.8702   H         1 RES1   0.0000
    47 H2        5.6970    0.5487   -3.2100   H         1 RES1   0.0000
    48 H3        5.4556    0.0331   -1.5503   H         1 RES1   0.0000
    49 H4        3.1341    0.5187   -3.4448   H         1 RES1   0.0000
    50 H5        3.0651    0.4460   -1.6696   H         1 RES1   0.0000
    51 H6        4.7460    2.6237   -2.7895   H         1 RES1   0.0000
    52 H7        3.0354    2.7684   -3.1070   H         1 RES1   0.0000
    53 H8        3.8324    2.1435   -0.2874   H         1 RES1   0.0000
    54 H9        4.2509    3.7311   -0.9242   H         1 RES1   0.0000
    55 H10       1.7562    3.8729   -1.6212   H         1 RES1   0.0000
    56 H11       1.4788    2.5547   -0.4531   H         1 RES1   0.0000
    57 H12       3.0292    5.0819    0.2814   H         1 RES1   0.0000
    58 H13       1.2899    5.1191    0.2418   H         1 RES1   0.0000
    59 H14       2.1820    2.8050    1.7987   H         1 RES1   0.0000
    60 H15       2.9226    4.2817    2.4018   H         1 RES1   0.0000
    61 H16       0.8439    5.2360    3.0034   H         1 RES1   0.0000
    62 H17      -0.0321    4.3119    1.7581   H         1 RES1   0.0000
    63 H18       0.0311    4.5821    5.0642   H         1 RES1   0.0000
    64 H19      -0.2560    2.8979    5.4711   H         1 RES1   0.0000
    65 H20       2.4730    4.1328    4.8821   H         1 RES1   0.0000
    66 H21       1.8310    3.8378    6.4975   H         1 RES1   0.0000
    67 H22       2.2505    1.6347    4.4464   H         1 RES1   0.0000
    68 H23       3.4480    2.0843    5.6523   H         1 RES1   0.0000
    69 H24       2.0485    1.4497    7.4896   H         1 RES1   0.0000
    70 H25       0.6296    1.2803    6.4877   H         1 RES1   0.0000
    71 H26       2.0233   -0.4756    5.1455   H         1 RES1   0.0000
    72 H27       3.0769   -0.5055    6.5519   H         1 RES1   0.0000
    73 H28       1.3952   -1.4704    7.9316   H         1 RES1   0.0000
    74 H29       0.0911   -0.9451    6.8766   H         1 RES1   0.0000
    75 H30       0.8693   -2.4971    5.1017   H         1 RES1   0.0000
    76 H31       2.1889   -3.0261    6.1521   H         1 RES1   0.0000
    77 H32      -0.7703   -3.3175    6.8397   H         1 RES1   0.0000
    78 H33       0.2329   -4.6063    6.1633   H         1 RES1   0.0000
    79 H34       0.5865   -3.9628    7.7611   H         1 RES1   0.0000
    80 H35       0.3361    0.6098    4.4304   H         1 RES1   0.0000
    81 H36      -1.3429    1.1807    4.4710   H         1 RES1   0.0000
    82 H37      -2.2674   -1.4739    2.4597   H         1 RES1   0.0000
    83 H38      -2.5329   -0.6567    4.0334   H         1 RES1   0.0000
    84 H39      -4.1448    0.1382    2.2716   H         1 RES1   0.0000
    85 H40      -3.0938    1.4725    2.7943   H         1 RES1   0.0000
    86 H41      -4.4090    0.0188    0.2276   H         1 RES1   0.0000
    87 H42      -3.4812    1.0920   -0.8471   H         1 RES1   0.0000
    88 H43      -3.7711    0.1851   -2.8632   H         1 RES1   0.0000
    89 H44      -4.2197   -1.3269   -3.6477   H         1 RES1   0.0000
    90 H45      -6.1699   -1.6028   -2.2484   H         1 RES1   0.0000
    91 H46      -5.7813   -0.1760   -1.2857   H         1 RES1   0.0000
    92 H47      -5.8003    1.2038   -3.4119   H         1 RES1   0.0000
    93 H48      -6.4441   -0.2101   -4.2555   H         1 RES1   0.0000
    94 H49      -8.3541   -0.2158   -2.5708   H         1 RES1   0.0000
    95 H50      -7.7529    1.3173   -1.9621   H         1 RES1   0.0000
    96 H51      -8.7182    0.6743   -4.7764   H         1 RES1   0.0000
    97 H52      -9.5565    1.6406   -3.5795   H         1 RES1   0.0000
    98 H53      -8.6060    3.4473   -4.6130   H         1 RES1   0.0000
    99 H54      -7.1456    3.0092   -3.7606   H         1 RES1   0.0000
   100 H55      -6.4891    1.5929   -5.8017   H         1 RES1   0.0000
   101 H56      -7.9363    2.1905   -6.5917   H         1 RES1   0.0000
   102 H57      -5.5871    3.8907   -5.6284   H         1 RES1   0.0000
   103 H58      -6.0219    3.5371   -7.3039   H         1 RES1   0.0000
   104 H59      -7.0757    4.5445   -6.3119   H         1 RES1   0.0000
   105 H60      -3.2972   -3.5175   -1.1710   H         1 RES1   0.0000
   106 H61      -3.8194   -3.2770   -2.8419   H         1 RES1   0.0000
   107 H62      -1.0025   -2.5238   -2.1772   H         1 RES1   0.0000
   108 H63      -1.3702   -4.2345   -2.0200   H         1 RES1   0.0000
   109 H64      -1.6591   -2.6369   -4.5972   H         1 RES1   0.0000
   110 H65      -2.1156   -4.3145   -4.3824   H         1 RES1   0.0000
   111 H66       0.7038   -3.5098   -3.6246   H         1 RES1   0.0000
   112 H67       0.0991   -5.0478   -4.1936   H         1 RES1   0.0000
   113 H68       1.1495   -4.3246   -6.1498   H         1 RES1   0.0000
   114 H69      -0.4433   -3.6644   -6.4261   H         1 RES1   0.0000
   115 H70       0.3832   -1.4612   -5.4072   H         1 RES1   0.0000
   116 H71       1.9963   -2.1770   -5.3696   H         1 RES1   0.0000
   117 H72       1.7700   -2.5605   -7.8758   H         1 RES1   0.0000
   118 H73       0.2445   -1.6883   -7.8159   H         1 RES1   0.0000
   119 H74       3.0097   -0.5600   -7.2021   H         1 RES1   0.0000
   120 H75       1.9333   -0.1306   -8.5215   H         1 RES1   0.0000
   121 H76       1.5171    0.3241   -6.8695   H         1 RES1   0.0000
   122 C39      -6.0105    5.3809   -0.4800   C.3       1 RES1   0.0000
   123 C40      -4.7358    6.2143   -0.4533   C.3       1 RES1   0.0000
   124 C41      -3.5531    5.4183   -0.9921   C.3       1 RES1   0.0000
   125 C42      -2.2617    6.2254   -0.9522   C.3       1 RES1   0.0000
   126 C43      -1.1133    5.4988   -1.6475   C.3       1 RES1   0.0000
   127 C44      -1.2954    5.3430   -3.1688   C.3       1 RES1   0.0000
   128 C45      -0.8569    3.9569   -3.6541   C.3       1 RES1   0.0000
   129 C46      -1.8685    2.8493   -3.3262   C.3       1 RES1   0.0000
   130 N3       -1.2202    1.5482   -3.5103   N.am      1 RES1   0.0000
   131 C47      -1.0277    1.1114   -4.8882   C.3       1 RES1   0.0000
   132 C48      -1.9828   -0.0039   -5.3460   C.3       1 RES1   0.0000
   133 C49      -3.3277    0.4722   -5.9122   C.3       1 RES1   0.0000
   134 C50      -3.8235   -0.4215   -7.0569   C.3       1 RES1   0.0000
   135 C51      -4.0912   -1.9098   -6.7750   C.3       1 RES1   0.0000
   136 C52      -5.5119   -2.2520   -6.3194   C.3       1 RES1   0.0000
   137 C53      -5.7553   -3.7540   -6.1389   C.3       1 RES1   0.0000
   138 C54      -7.1176   -4.0018   -5.4954   C.3       1 RES1   0.0000
   139 C55      -0.6197    0.9747   -2.4827   C.2       1 RES1   0.0000
   140 O5       -0.7862    1.3478   -1.2938   O.2       1 RES1   0.0000
   141 C56       0.3483   -0.1889   -2.7131   C.3       1 RES1   0.0000
   142 O6        0.7125   -0.6324   -1.4029   O.3       1 RES1   0.0000
   143 C57       1.5495   -1.7945   -1.3148   C.3       1 RES1   0.0000
   144 C58       1.0041   -2.6987   -0.2022   C.3       1 RES1   0.0000
   145 O7        0.9873   -2.0381    1.0655   O.3       1 RES1   0.0000
   146 C59       2.2222   -2.0745    1.7811   C.3       1 RES1   0.0000
   147 C60       2.8877   -0.6936    1.7424   C.2       1 RES1   0.0000
   148 O8        2.1943    0.2408    1.2510   O.2       1 RES1   0.0000
   149 N4        4.1115   -0.5554    2.2127   N.am      1 RES1   0.0000
   150 C61       4.8703   -1.6089    2.8941   C.3       1 RES1   0.0000
   151 C62       4.7168   -1.5631    4.4242   C.3       1 RES1   0.0000
   152 C63       5.8839   -2.2195    5.1901   C.3       1 RES1   0.0000
   153 C64       5.6738   -3.6538    5.6843   C.3       1 RES1   0.0000
   154 C65       5.6313   -4.7164    4.5825   C.3       1 RES1   0.0000
   155 C66       4.2136   -5.0198    4.1075   C.3       1 RES1   0.0000
   156 C67       4.2059   -6.0268    2.9612   C.3       1 RES1   0.0000
   157 C68       2.7919   -6.3222    2.4732   C.3       1 RES1   0.0000
   158 C69       4.8232    0.7284    2.1773   C.3       1 RES1   0.0000
   159 C70       5.9986    0.7537    1.1853   C.3       1 RES1   0.0000
   160 C71       7.0610    1.8224    1.5111   C.3       1 RES1   0.0000
   161 C72       6.9803    3.0892    0.6511   C.3       1 RES1   0.0000
   162 C73       7.4833    2.8511   -0.7750   C.3       1 RES1   0.0000
   163 C74       7.4155    4.1042   -1.6536   C.3       1 RES1   0.0000
   164 C75       8.0757    3.8939   -3.0204   C.3       1 RES1   0.0000
   165 C76       7.2433    3.0290   -3.9584   C.3       1 RES1   0.0000
   166 H77      -6.8593    5.9474   -0.1072   H         1 RES1   0.0000
   167 H78      -5.8976    4.4888    0.1360   H         1 RES1   0.0000
   168 H79      -6.2340    5.0682   -1.4989   H         1 RES1   0.0000
   169 H80      -4.5176    6.5395    0.5651   H         1 RES1   0.0000
   170 H81      -4.8795    7.1082   -1.0618   H         1 RES1   0.0000
   171 H82      -3.7754    5.1265   -2.0192   H         1 RES1   0.0000
   172 H83      -3.4269    4.4996   -0.4075   H         1 RES1   0.0000
   173 H84      -1.9807    6.4098    0.0884   H         1 RES1   0.0000
   174 H85      -2.4193    7.1943   -1.4245   H         1 RES1   0.0000
   175 H86      -1.0128    4.5114   -1.1854   H         1 RES1   0.0000
   176 H87      -0.1861    6.0443   -1.4651   H         1 RES1   0.0000
   177 H88      -0.6891    6.0929   -3.6830   H         1 RES1   0.0000
   178 H89      -2.3340    5.5156   -3.4610   H         1 RES1   0.0000
   179 H90       0.0889    3.6990   -3.1694   H         1 RES1   0.0000
   180 H91      -0.6804    3.9788   -4.7317   H         1 RES1   0.0000
   181 H92      -2.7312    2.9175   -3.9896   H         1 RES1   0.0000
   182 H93      -2.1967    2.9375   -2.2891   H         1 RES1   0.0000
   183 H94       0.0096    0.7914   -5.0290   H         1 RES1   0.0000
   184 H95      -1.1869    1.9808   -5.5217   H         1 RES1   0.0000
   185 H96      -2.1346   -0.6931   -4.5145   H         1 RES1   0.0000
   186 H97      -1.4718   -0.5288   -6.1551   H         1 RES1   0.0000
   187 H98      -3.1795    1.4605   -6.3504   H         1 RES1   0.0000
   188 H99      -4.0860    0.5742   -5.1355   H         1 RES1   0.0000
   189 H100     -3.0718   -0.3670   -7.8429   H         1 RES1   0.0000
   190 H101     -4.7199    0.0345   -7.4688   H         1 RES1   0.0000
   191 H102     -3.3785   -2.2785   -6.0335   H         1 RES1   0.0000
   192 H103     -3.8938   -2.4690   -7.6942   H         1 RES1   0.0000
   193 H104     -6.2224   -1.8735   -7.0530   H         1 RES1   0.0000
   194 H105     -5.7342   -1.7635   -5.3690   H         1 RES1   0.0000
   195 H106     -4.9758   -4.1873   -5.5018   H         1 RES1   0.0000
   196 H107     -5.7012   -4.2633   -7.1029   H         1 RES1   0.0000
   197 H108     -7.1053   -3.6743   -4.4576   H         1 RES1   0.0000
   198 H109     -7.3748   -5.0566   -5.5085   H         1 RES1   0.0000
   199 H110     -7.9040   -3.4535   -6.0111   H         1 RES1   0.0000
   200 H111      1.2332    0.1970   -3.2446   H         1 RES1   0.0000
   201 H112     -0.0969   -0.9995   -3.3022   H         1 RES1   0.0000
   202 H113      2.5605   -1.4624   -1.0542   H         1 RES1   0.0000
   203 H114      1.5959   -2.3228   -2.2714   H         1 RES1   0.0000
   204 H115      1.5883   -3.6222   -0.1500   H         1 RES1   0.0000
   205 H116     -0.0478   -2.9440   -0.3733   H         1 RES1   0.0000
   206 H117      2.8691   -2.8572    1.3739   H         1 RES1   0.0000
   207 H118      1.9718   -2.3216    2.8192   H         1 RES1   0.0000
   208 H119      5.9188   -1.4190    2.6602   H         1 RES1   0.0000
   209 H120      4.6085   -2.5890    2.4995   H         1 RES1   0.0000
   210 H121      3.7811   -2.0199    4.7434   H         1 RES1   0.0000
   211 H122      4.6813   -0.5140    4.7209   H         1 RES1   0.0000
   212 H123      6.0796   -1.6113    6.0738   H         1 RES1   0.0000
   213 H124      6.7881   -2.1939    4.5807   H         1 RES1   0.0000
   214 H125      4.7670   -3.7094    6.2908   H         1 RES1   0.0000
   215 H126      6.5060   -3.8855    6.3503   H         1 RES1   0.0000
   216 H127      6.0619   -5.6489    4.9530   H         1 RES1   0.0000
   217 H128      6.2480   -4.3916    3.7413   H         1 RES1   0.0000
   218 H129      3.7111   -4.1021    3.7891   H         1 RES1   0.0000
   219 H130      3.6421   -5.4247    4.9450   H         1 RES1   0.0000
   220 H131      4.6695   -6.9508    3.3079   H         1 RES1   0.0000
   221 H132      4.8075   -5.6467    2.1290   H         1 RES1   0.0000
   222 H133      2.1871   -6.7330    3.2773   H         1 RES1   0.0000
   223 H134      2.8103   -7.0438    1.6603   H         1 RES1   0.0000
   224 H135      2.3024   -5.4119    2.1209   H         1 RES1   0.0000
   225 H136      5.1992    0.9062    3.1862   H         1 RES1   0.0000
   226 H137      4.1149    1.5182    1.9297   H         1 RES1   0.0000
   227 H138      5.6163    0.9307    0.1820   H         1 RES1   0.0000
   228 H139      6.4799   -0.2218    1.1658   H         1 RES1   0.0000
   229 H140      8.0529    1.3940    1.3618   H         1 RES1   0.0000
   230 H141      6.9965    2.0972    2.5647   H         1 RES1   0.0000
   231 H142      7.6168    3.8477    1.1118   H         1 RES1   0.0000
   232 H143      5.9592    3.4776    0.6424   H         1 RES1   0.0000
   233 H144      6.9052    2.0531   -1.2472   H         1 RES1   0.0000
   234 H145      8.5232    2.5220   -0.7056   H         1 RES1   0.0000
   235 H146      7.9130    4.9311   -1.1401   H         1 RES1   0.0000
   236 H147      6.3719    4.4011   -1.8052   H         1 RES1   0.0000
   237 H148      9.0545    3.4298   -2.8846   H         1 RES1   0.0000
   238 H149      8.2351    4.8687   -3.4823   H         1 RES1   0.0000
   239 H150      7.0981    2.0389   -3.5329   H         1 RES1   0.0000
   240 H151      7.7480    2.9110   -4.9124   H         1 RES1   0.0000
   241 H152      6.2759    3.4936   -4.1435   H         1 RES1   0.0000
@<TRIPOS>BOND
     1     1    20    1
     2     1    22    1
     3     1    25    1
     4     1    28    1
     5     1   140    1
     6     1   142    1
     7     1   145    1
     8     1   148    1
     9     2     3    1
    10     2    46    1
    11     2    47    1
    12     2    48    1
    13     3     4    1
    14     3    49    1
    15     3    50    1
    16     4     5    1
    17     4    51    1
    18     4    52    1
    19     5     6    1
    20     5    53    1
    21     5    54    1
    22     6     7    1
    23     6    55    1
    24     6    56    1
    25     7     8    1
    26     7    57    1
    27     7    58    1
    28     8     9    1
    29     8    59    1
    30     8    60    1
    31     9    10    1
    32     9    61    1
    33     9    62    1
    34    10    11    1
    35    10    19    1
    36    11    12    1
    37    11    63    1
    38    11    64    1
    39    12    13    1
    40    12    65    1
    41    12    66    1
    42    13    14    1
    43    13    67    1
    44    13    68    1
    45    14    15    1
    46    14    69    1
    47    14    70    1
    48    15    16    1
    49    15    71    1
    50    15    72    1
    51    16    17    1
    52    16    73    1
    53    16    74    1
    54    17    18    1
    55    17    75    1
    56    17    76    1
    57    18    77    1
    58    18    78    1
    59    18    79    1
    60    19    20    2
    61    19    21    1
    62    21    22    1
    63    21    80    1
    64    21    81    1
    65    22    23    1
    66    23    24    1
    67    23    82    1
    68    23    83    1
    69    24    25    1
    70    24    84    1
    71    24    85    1
    72    25    26    1
    73    26    27    1
    74    26    86    1
    75    26    87    1
    76    27    28    2
    77    27    29    1
    78    29    30    1
    79    29    38    1
    80    30    31    1
    81    30    88    1
    82    30    89    1
    83    31    32    1
    84    31    90    1
    85    31    91    1
    86    32    33    1
    87    32    92    1
    88    32    93    1
    89    33    34    1
    90    33    94    1
    91    33    95    1
    92    34    35    1
    93    34    96    1
    94    34    97    1
    95    35    36    1
    96    35    98    1
    97    35    99    1
    98    36    37    1
    99    36   100    1
   100    36   101    1
   101    37   102    1
   102    37   103    1
   103    37   104    1
   104    38    39    1
   105    38   105    1
   106    38   106    1
   107    39    40    1
   108    39   107    1
   109    39   108    1
   110    40    41    1
   111    40   109    1
   112    40   110    1
   113    41    42    1
   114    41   111    1
   115    41   112    1
   116    42    43    1
   117    42   113    1
   118    42   114    1
   119    43    44    1
   120    43   115    1
   121    43   116    1
   122    44    45    1
   123    44   117    1
   124    44   118    1
   125    45   119    1
   126    45   120    1
   127    45   121    1
   128   122   123    1
   129   122   166    1
   130   122   167    1
   131   122   168    1
   132   123   124    1
   133   123   169    1
   134   123   170    1
   135   124   125    1
   136   124   171    1
   137   124   172    1
   138   125   126    1
   139   125   173    1
   140   125   174    1
   141   126   127    1
   142   126   175    1
   143   126   176    1
   144   127   128    1
   145   127   177    1
   146   127   178    1
   147   128   129    1
   148   128   179    1
   149   128   180    1
   150   129   130    1
   151   129   181    1
   152   129   182    1
   153   130   131    1
   154   130   139    1
   155   131   132    1
   156   131   183    1
   157   131   184    1
   158   132   133    1
   159   132   185    1
   160   132   186    1
   161   133   134    1
   162   133   187    1
   163   133   188    1
   164   134   135    1
   165   134   189    1
   166   134   190    1
   167   135   136    1
   168   135   191    1
   169   135   192    1
   170   136   137    1
   171   136   193    1
   172   136   194    1
   173   137   138    1
   174   137   195    1
   175   137   196    1
   176   138   197    1
   177   138   198    1
   178   138   199    1
   179   139   140    2
   180   139   141    1
   181   141   142    1
   182   141   200    1
   183   141   201    1
   184   142   143    1
   185   143   144    1
   186   143   202    1
   187   143   203    1
   188   144   145    1
   189   144   204    1
   190   144   205    1
   191   145   146    1
   192   146   147    1
   193   146   206    1
   194   146   207    1
   195   147   148    2
   196   147   149    1
   197   149   150    1
   198   149   158    1
   199   150   151    1
   200   150   208    1
   201   150   209    1
   202   151   152    1
   203   151   210    1
   204   151   211    1
   205   152   153    1
   206   152   212    1
   207   152   213    1
   208   153   154    1
   209   153   214    1
   210   153   215    1
   211   154   155    1
   212   154   216    1
   213   154   217    1
   214   155   156    1
   215   155   218    1
   216   155   219    1
   217   156   157    1
   218   156   220    1
   219   156   221    1
   220   157   222    1
   221   157   223    1
   222   157   224    1
   223   158   159    1
   224   158   225    1
   225   158   226    1
   226   159   160    1
   227   159   227    1
   228   159   228    1
   229   160   161    1
   230   160   229    1
   231   160   230    1
   232   161   162    1
   233   161   231    1
   234   161   232    1
   235   162   163    1
   236   162   233    1
   237   162   234    1
   238   163   164    1
   239   163   235    1
   240   163   236    1
   241   164   165    1
   242   164   237    1
   243   164   238    1
   244   165   239    1
   245   165   240    1
   246   165   241    1
@<TRIPOS>SUBSTRUCTURE
     1 RES1      241 GROUP             0 ****  ****    0  
