@<TRIPOS>MOLECULE
ICIGOT_geomtry_0_nunpairedes_0_charge_3 Charge: 3 Unpaired_Electrons: 2 XTB_Unpaired_Electrons: 0 XTB_Charge: 3
    93   100     1     0     0
SMALL
NoCharges
****
Generated from Architector

@<TRIPOS>ATOM
     1 Tm1      -0.1323    0.0575    0.3023   Tm        1 RES1   0.0000
     2 O1       -1.9888   -0.5041   -0.5795   O.2       1 RES1   0.0000
     3 C1       -2.1236   -0.8110   -1.7922   C.2       1 RES1   0.0000
     4 C2       -1.1568   -0.1879   -2.8152   C.3       1 RES1   0.0000
     5 O2       -0.1711    0.6392   -2.1805   O.3       1 RES1   0.0000
     6 C3       -0.2936    2.0548   -2.4079   C.3       1 RES1   0.0000
     7 C4       -0.6823    2.7643   -1.1046   C.2       1 RES1   0.0000
     8 O3       -0.7750    2.0549   -0.0715   O.2       1 RES1   0.0000
     9 N1       -0.8860    4.0582   -1.0557   N.am      1 RES1   0.0000
    10 C5       -1.2838    4.6043    0.2462   C.3       1 RES1   0.0000
    11 C6       -1.4290    6.1122    0.1937   C.3       1 RES1   0.0000
    12 C7       -2.4162    6.5310   -0.8983   C.3       1 RES1   0.0000
    13 C8       -2.2134    5.7213   -2.1906   C.3       1 RES1   0.0000
    14 C9       -0.8700    4.9904   -2.1683   C.3       1 RES1   0.0000
    15 N2       -3.0090   -1.6890   -2.2048   N.am      1 RES1   0.0000
    16 C10      -3.2629   -2.0659   -3.5847   C.3       1 RES1   0.0000
    17 C11      -4.6077   -1.4813   -4.0258   C.3       1 RES1   0.0000
    18 C12      -5.7099   -2.0102   -3.1125   C.3       1 RES1   0.0000
    19 C13      -5.3867   -1.6921   -1.6558   C.3       1 RES1   0.0000
    20 C14      -4.0056   -2.2360   -1.2898   C.3       1 RES1   0.0000
    21 H1       -1.7185    0.3750   -3.5644   H         1 RES1   0.0000
    22 H2       -0.6079   -0.9904   -3.3215   H         1 RES1   0.0000
    23 H3       -1.0325    2.2534   -3.1866   H         1 RES1   0.0000
    24 H4        0.6802    2.4269   -2.7516   H         1 RES1   0.0000
    25 H5       -0.5390    4.2968    0.9858   H         1 RES1   0.0000
    26 H6       -2.2332    4.1442    0.5306   H         1 RES1   0.0000
    27 H7       -0.4554    6.5722    0.0297   H         1 RES1   0.0000
    28 H8       -1.7912    6.4608    1.1596   H         1 RES1   0.0000
    29 H9       -2.2871    7.5946   -1.0918   H         1 RES1   0.0000
    30 H10      -3.4363    6.3860   -0.5443   H         1 RES1   0.0000
    31 H11      -2.2649    6.3768   -3.0597   H         1 RES1   0.0000
    32 H12      -3.0032    4.9743   -2.2958   H         1 RES1   0.0000
    33 H13      -0.0593    5.7107   -2.0290   H         1 RES1   0.0000
    34 H14      -0.7012    4.4655   -3.1069   H         1 RES1   0.0000
    35 H15      -3.3211   -3.1575   -3.6190   H         1 RES1   0.0000
    36 H16      -2.4611   -1.7388   -4.2418   H         1 RES1   0.0000
    37 H17      -4.8059   -1.7589   -5.0611   H         1 RES1   0.0000
    38 H18      -4.5660   -0.3921   -3.9667   H         1 RES1   0.0000
    39 H19      -5.7875   -3.0903   -3.2382   H         1 RES1   0.0000
    40 H20      -6.6680   -1.5694   -3.3860   H         1 RES1   0.0000
    41 H21      -6.1337   -2.1341   -0.9976   H         1 RES1   0.0000
    42 H22      -5.3967   -0.6132   -1.4984   H         1 RES1   0.0000
    43 H23      -3.9918   -3.3229   -1.3912   H         1 RES1   0.0000
    44 H24      -3.7365   -1.9563   -0.2724   H         1 RES1   0.0000
    45 O4        1.6398    1.2161    1.0397   O.2       1 RES1   0.0000
    46 C15       2.8523    1.1182    0.7113   C.2       1 RES1   0.0000
    47 C16       3.2392   -0.1634   -0.0423   C.3       1 RES1   0.0000
    48 O5        2.1568   -1.0986    0.0285   O.3       1 RES1   0.0000
    49 C17       2.3364   -2.1720    0.9660   C.3       1 RES1   0.0000
    50 C18       1.0787   -2.3367    1.8244   C.2       1 RES1   0.0000
    51 O6        0.1892   -1.4511    1.7454   O.2       1 RES1   0.0000
    52 N3        0.9198   -3.3681    2.6159   N.am      1 RES1   0.0000
    53 C19      -0.2780   -3.3767    3.4621   C.3       1 RES1   0.0000
    54 C20      -0.3525   -4.6415    4.2947   C.3       1 RES1   0.0000
    55 C21       0.9204   -4.8282    5.1235   C.3       1 RES1   0.0000
    56 C22       2.1882   -4.5439    4.2998   C.3       1 RES1   0.0000
    57 C23       1.8623   -4.4518    2.8112   C.3       1 RES1   0.0000
    58 N4        3.7401    2.0550    0.9372   N.am      1 RES1   0.0000
    59 C24       5.1517    2.0025    0.5959   C.3       1 RES1   0.0000
    60 C25       5.9814    1.9248    1.8811   C.3       1 RES1   0.0000
    61 C26       5.6867    3.1432    2.7499   C.3       1 RES1   0.0000
    62 C27       4.1909    3.2247    3.0347   C.3       1 RES1   0.0000
    63 C28       3.4005    3.2352    1.7253   C.3       1 RES1   0.0000
    64 H25       4.1601   -0.6053    0.3409   H         1 RES1   0.0000
    65 H26       3.3760    0.0772   -1.1028   H         1 RES1   0.0000
    66 H27       3.1856   -1.9670    1.6245   H         1 RES1   0.0000
    67 H28       2.5377   -3.0924    0.4059   H         1 RES1   0.0000
    68 H29      -1.1581   -3.2651    2.8209   H         1 RES1   0.0000
    69 H30      -0.2325   -2.5020    4.1161   H         1 RES1   0.0000
    70 H31      -0.5217   -5.5015    3.6481   H         1 RES1   0.0000
    71 H32      -1.2083   -4.5667    4.9635   H         1 RES1   0.0000
    72 H33       0.9371   -5.8476    5.5046   H         1 RES1   0.0000
    73 H34       0.8977   -4.1595    5.9834   H         1 RES1   0.0000
    74 H35       2.9294   -5.3261    4.4558   H         1 RES1   0.0000
    75 H36       2.6370   -3.5974    4.6080   H         1 RES1   0.0000
    76 H37       1.4064   -5.3835    2.4673   H         1 RES1   0.0000
    77 H38       2.7691   -4.2759    2.2370   H         1 RES1   0.0000
    78 H39       5.3960    2.9303    0.0706   H         1 RES1   0.0000
    79 H40       5.3709    1.1657   -0.0629   H         1 RES1   0.0000
    80 H41       7.0405    1.8915    1.6286   H         1 RES1   0.0000
    81 H42       5.7309    1.0117    2.4265   H         1 RES1   0.0000
    82 H43       6.0096    4.0458    2.2308   H         1 RES1   0.0000
    83 H44       6.2451    3.0832    3.6835   H         1 RES1   0.0000
    84 H45       3.9641    4.1293    3.5968   H         1 RES1   0.0000
    85 H46       3.8847    2.3681    3.6369   H         1 RES1   0.0000
    86 H47       3.6627    4.1202    1.1415   H         1 RES1   0.0000
    87 H48       2.3290    3.2258    1.9210   H         1 RES1   0.0000
    88 O7       -1.4192    0.5304    2.3008   O.3       1 RES1   0.0000
    89 H49      -2.2297    0.0622    2.5518   H         1 RES1   0.0000
    90 H50      -1.0378    0.8472    3.1338   H         1 RES1   0.0000
    91 O8        0.0111   -2.3487   -1.1296   O.3       1 RES1   0.0000
    92 H51      -0.4938   -3.1094   -0.8127   H         1 RES1   0.0000
    93 H52       0.6619   -2.7135   -1.7470   H         1 RES1   0.0000
@<TRIPOS>BOND
     1     1     2    1
     2     1     5    1
     3     1     8    1
     4     1    45    1
     5     1    48    1
     6     1    51    1
     7     1    88    1
     8     1    91    1
     9     2     3    2
    10     3     4    1
    11     3    15    1
    12     4     5    1
    13     4    21    1
    14     4    22    1
    15     5     6    1
    16     6     7    1
    17     6    23    1
    18     6    24    1
    19     7     8    2
    20     7     9    1
    21     9    10    1
    22     9    14    1
    23    10    11    1
    24    10    25    1
    25    10    26    1
    26    11    12    1
    27    11    27    1
    28    11    28    1
    29    12    13    1
    30    12    29    1
    31    12    30    1
    32    13    14    1
    33    13    31    1
    34    13    32    1
    35    14    33    1
    36    14    34    1
    37    15    16    1
    38    15    20    1
    39    16    17    1
    40    16    35    1
    41    16    36    1
    42    17    18    1
    43    17    37    1
    44    17    38    1
    45    18    19    1
    46    18    39    1
    47    18    40    1
    48    19    20    1
    49    19    41    1
    50    19    42    1
    51    20    43    1
    52    20    44    1
    53    45    46    2
    54    46    47    1
    55    46    58    1
    56    47    48    1
    57    47    64    1
    58    47    65    1
    59    48    49    1
    60    49    50    1
    61    49    66    1
    62    49    67    1
    63    50    51    2
    64    50    52    1
    65    52    53    1
    66    52    57    1
    67    53    54    1
    68    53    68    1
    69    53    69    1
    70    54    55    1
    71    54    70    1
    72    54    71    1
    73    55    56    1
    74    55    72    1
    75    55    73    1
    76    56    57    1
    77    56    74    1
    78    56    75    1
    79    57    76    1
    80    57    77    1
    81    58    59    1
    82    58    63    1
    83    59    60    1
    84    59    78    1
    85    59    79    1
    86    60    61    1
    87    60    80    1
    88    60    81    1
    89    61    62    1
    90    61    82    1
    91    61    83    1
    92    62    63    1
    93    62    84    1
    94    62    85    1
    95    63    86    1
    96    63    87    1
    97    88    89    1
    98    88    90    1
    99    91    92    1
   100    91    93    1
@<TRIPOS>SUBSTRUCTURE
     1 RES1       93 GROUP             0 ****  ****    0  
