@<TRIPOS>MOLECULE
YEMSEP_geometry_0_nunpairedes_0_charge_3 Charge: 3 Unpaired_Electrons: 2 XTB_Unpaired_Electrons: 0 XTB_Charge: 3
   233   236     1     0     0
SMALL
NoCharges
****
Generated from Architector

@<TRIPOS>ATOM
     1 Tm1      -0.2605   -0.1895    0.0620   Tm        1 RES1   0.0000
     2 C1        3.8546   -6.0924    3.7882   C.3       1 RES1   0.0000
     3 C2        4.2380   -4.6433    4.0486   C.3       1 RES1   0.0000
     4 C3        4.5382   -3.9290    2.7298   C.3       1 RES1   0.0000
     5 C4        4.4772   -2.3988    2.7998   C.3       1 RES1   0.0000
     6 C5        4.3294   -1.8560    1.3784   C.3       1 RES1   0.0000
     7 C6        4.7698   -0.4103    1.1759   C.3       1 RES1   0.0000
     8 N1        3.9561    0.6088    1.8471   N.am      1 RES1   0.0000
     9 C7        4.7175    1.7327    2.4163   C.3       1 RES1   0.0000
    10 C8        5.8842    1.3984    3.3524   C.3       1 RES1   0.0000
    11 C9        5.5480    0.5903    4.6155   C.3       1 RES1   0.0000
    12 C10       6.7721   -0.2283    5.0312   C.3       1 RES1   0.0000
    13 C11       5.1263    1.4841    5.7910   C.3       1 RES1   0.0000
    14 C12       3.6425    1.8805    5.7750   C.3       1 RES1   0.0000
    15 C13       2.7889    1.2550    6.8837   C.3       1 RES1   0.0000
    16 C14       2.3264   -0.1812    6.5893   C.3       1 RES1   0.0000
    17 C15       3.3595   -1.2314    6.9831   C.3       1 RES1   0.0000
    18 C16       1.0110   -0.4692    7.3110   C.3       1 RES1   0.0000
    19 C17       2.6621    0.6966    1.5742   C.2       1 RES1   0.0000
    20 O1        2.0613   -0.0326    0.7466   O.2       1 RES1   0.0000
    21 C18       1.7931    1.7071    2.3436   C.3       1 RES1   0.0000
    22 O2        0.4265    1.4146    2.0336   O.3       1 RES1   0.0000
    23 C19      -0.4451    1.4532    3.1618   C.3       1 RES1   0.0000
    24 C20      -1.6678    0.6097    2.8010   C.2       1 RES1   0.0000
    25 O3       -1.6124   -0.0499    1.7310   O.2       1 RES1   0.0000
    26 N2       -2.7077    0.5403    3.6040   N.am      1 RES1   0.0000
    27 C21      -3.8164   -0.3585    3.2811   C.3       1 RES1   0.0000
    28 C22      -3.7786   -1.6660    4.0906   C.3       1 RES1   0.0000
    29 C23      -3.3111   -2.8911    3.2998   C.3       1 RES1   0.0000
    30 C24      -4.3984   -3.4512    2.3830   C.3       1 RES1   0.0000
    31 C25      -4.1179   -4.8593    1.8416   C.3       1 RES1   0.0000
    32 C26      -3.4325   -4.8974    0.4821   C.3       1 RES1   0.0000
    33 C27      -2.9149    1.3823    4.7702   C.3       1 RES1   0.0000
    34 C28      -3.8686    2.5614    4.5229   C.3       1 RES1   0.0000
    35 C29      -3.4302    3.5682    3.4458   C.3       1 RES1   0.0000
    36 C30      -4.1423    4.8987    3.6980   C.3       1 RES1   0.0000
    37 C31      -3.7253    3.0333    2.0292   C.3       1 RES1   0.0000
    38 C32      -2.7014    3.3986    0.9438   C.3       1 RES1   0.0000
    39 C33      -2.8986    4.8085    0.3886   C.3       1 RES1   0.0000
    40 C34      -2.0916    5.1411   -0.8714   C.3       1 RES1   0.0000
    41 C35      -2.5483    4.3519   -2.0985   C.3       1 RES1   0.0000
    42 C36      -2.2379    6.6357   -1.1549   C.3       1 RES1   0.0000
    43 H1        4.7123   -6.6520    3.4227   H         1 RES1   0.0000
    44 H2        3.4905   -6.5690    4.6966   H         1 RES1   0.0000
    45 H3        3.0660   -6.1584    3.0380   H         1 RES1   0.0000
    46 H4        3.4232   -4.1355    4.5657   H         1 RES1   0.0000
    47 H5        5.1052   -4.6043    4.7105   H         1 RES1   0.0000
    48 H6        5.5233   -4.2396    2.3725   H         1 RES1   0.0000
    49 H7        3.8086   -4.2593    1.9800   H         1 RES1   0.0000
    50 H8        3.6178   -2.0934    3.4008   H         1 RES1   0.0000
    51 H9        5.3751   -2.0202    3.2891   H         1 RES1   0.0000
    52 H10       4.9753   -2.4501    0.7272   H         1 RES1   0.0000
    53 H11       3.2941   -1.9837    1.0491   H         1 RES1   0.0000
    54 H12       5.7856   -0.3141    1.5521   H         1 RES1   0.0000
    55 H13       4.7769   -0.1957    0.1039   H         1 RES1   0.0000
    56 H14       5.1422    2.2726    1.5610   H         1 RES1   0.0000
    57 H15       4.0316    2.3936    2.9360   H         1 RES1   0.0000
    58 H16       6.6685    0.8790    2.8034   H         1 RES1   0.0000
    59 H17       6.3139    2.3587    3.6472   H         1 RES1   0.0000
    60 H18       4.7257   -0.0934    4.3834   H         1 RES1   0.0000
    61 H19       7.5973    0.4345    5.2787   H         1 RES1   0.0000
    62 H20       6.5485   -0.8340    5.9066   H         1 RES1   0.0000
    63 H21       7.1007   -0.8976    4.2388   H         1 RES1   0.0000
    64 H22       5.3459    0.9561    6.7186   H         1 RES1   0.0000
    65 H23       5.7503    2.3795    5.7894   H         1 RES1   0.0000
    66 H24       3.5531    2.9660    5.8426   H         1 RES1   0.0000
    67 H25       3.2088    1.5761    4.8188   H         1 RES1   0.0000
    68 H26       3.3347    1.2768    7.8269   H         1 RES1   0.0000
    69 H27       1.8966    1.8747    7.0156   H         1 RES1   0.0000
    70 H28       2.1473   -0.2658    5.5069   H         1 RES1   0.0000
    71 H29       3.6175   -1.1314    8.0324   H         1 RES1   0.0000
    72 H30       2.9601   -2.2316    6.8318   H         1 RES1   0.0000
    73 H31       4.2658   -1.1388    6.3967   H         1 RES1   0.0000
    74 H32       1.1374   -0.3444    8.3817   H         1 RES1   0.0000
    75 H33       0.2247    0.2101    6.9830   H         1 RES1   0.0000
    76 H34       0.6885   -1.4910    7.1263   H         1 RES1   0.0000
    77 H35       1.9772    1.5837    3.4191   H         1 RES1   0.0000
    78 H36       2.0211    2.7397    2.0489   H         1 RES1   0.0000
    79 H37       0.0388    1.0002    4.0391   H         1 RES1   0.0000
    80 H38      -0.7096    2.4926    3.3868   H         1 RES1   0.0000
    81 H39      -4.7425    0.1795    3.4900   H         1 RES1   0.0000
    82 H40      -3.7598   -0.5687    2.2130   H         1 RES1   0.0000
    83 H41      -3.1249   -1.5395    4.9546   H         1 RES1   0.0000
    84 H42      -4.7795   -1.8707    4.4729   H         1 RES1   0.0000
    85 H43      -2.4020   -2.6494    2.7458   H         1 RES1   0.0000
    86 H44      -3.0635   -3.6666    4.0248   H         1 RES1   0.0000
    87 H45      -5.3157   -3.5041    2.9692   H         1 RES1   0.0000
    88 H46      -4.5896   -2.7723    1.5506   H         1 RES1   0.0000
    89 H47      -3.5279   -5.4178    2.5684   H         1 RES1   0.0000
    90 H48      -5.0685   -5.3812    1.7396   H         1 RES1   0.0000
    91 H49      -2.4366   -4.4619    0.5060   H         1 RES1   0.0000
    92 H50      -3.3333   -5.9306    0.1627   H         1 RES1   0.0000
    93 H51      -4.0334   -4.3837   -0.2636   H         1 RES1   0.0000
    94 H52      -3.3481    0.7547    5.5523   H         1 RES1   0.0000
    95 H53      -1.9547    1.7526    5.1217   H         1 RES1   0.0000
    96 H54      -4.8663    2.1979    4.2740   H         1 RES1   0.0000
    97 H55      -3.9504    3.0819    5.4777   H         1 RES1   0.0000
    98 H56      -2.3540    3.7463    3.5500   H         1 RES1   0.0000
    99 H57      -5.2154    4.7536    3.7871   H         1 RES1   0.0000
   100 H58      -3.7874    5.3538    4.6185   H         1 RES1   0.0000
   101 H59      -3.9557    5.5946    2.8871   H         1 RES1   0.0000
   102 H60      -3.7937    1.9479    2.0598   H         1 RES1   0.0000
   103 H61      -4.7051    3.3990    1.7192   H         1 RES1   0.0000
   104 H62      -1.6835    3.3042    1.3373   H         1 RES1   0.0000
   105 H63      -2.8004    2.6692    0.1350   H         1 RES1   0.0000
   106 H64      -3.9561    4.9651    0.1691   H         1 RES1   0.0000
   107 H65      -2.6112    5.5305    1.1525   H         1 RES1   0.0000
   108 H66      -1.0321    4.9212   -0.6847   H         1 RES1   0.0000
   109 H67      -3.6197    4.4734   -2.2414   H         1 RES1   0.0000
   110 H68      -2.0538    4.7364   -2.9879   H         1 RES1   0.0000
   111 H69      -2.3252    3.2868   -2.0153   H         1 RES1   0.0000
   112 H70      -3.2839    6.8819   -1.3196   H         1 RES1   0.0000
   113 H71      -1.8814    7.2241   -0.3137   H         1 RES1   0.0000
   114 H72      -1.6771    6.9264   -2.0395   H         1 RES1   0.0000
   115 C37      -8.1513   -2.7841    1.9268   C.3       1 RES1   0.0000
   116 C38      -7.4162   -2.4509    0.6343   C.3       1 RES1   0.0000
   117 C39      -6.6831   -1.1071    0.6932   C.3       1 RES1   0.0000
   118 C40      -5.8772   -0.8576   -0.5867   C.3       1 RES1   0.0000
   119 C41      -4.9555    0.3629   -0.4987   C.3       1 RES1   0.0000
   120 C42      -4.6485    1.0394   -1.8411   C.3       1 RES1   0.0000
   121 N3       -3.7279    0.3149   -2.7311   N.am      1 RES1   0.0000
   122 C43      -4.1135    0.1510   -4.1429   C.3       1 RES1   0.0000
   123 C44      -5.5029   -0.4171   -4.4241   C.3       1 RES1   0.0000
   124 C45      -5.7754   -1.8443   -3.9369   C.3       1 RES1   0.0000
   125 C46      -7.2889   -2.0648   -3.9222   C.3       1 RES1   0.0000
   126 C47      -5.1249   -2.9477   -4.7843   C.3       1 RES1   0.0000
   127 C48      -3.6674   -3.2547   -4.4118   C.3       1 RES1   0.0000
   128 C49      -3.2664   -4.7320   -4.5512   C.3       1 RES1   0.0000
   129 C50      -3.3421   -5.5097   -3.2323   C.3       1 RES1   0.0000
   130 C51      -4.7785   -5.6628   -2.7422   C.3       1 RES1   0.0000
   131 C52      -2.7044   -6.8873   -3.3928   C.3       1 RES1   0.0000
   132 C53      -2.4756    0.1720   -2.3275   C.2       1 RES1   0.0000
   133 O4       -2.0591    0.6056   -1.2248   O.2       1 RES1   0.0000
   134 C54      -1.4602   -0.5892   -3.1909   C.3       1 RES1   0.0000
   135 O5       -0.4104   -1.0291   -2.3251   O.3       1 RES1   0.0000
   136 C55       0.0010   -2.3764   -2.5521   C.3       1 RES1   0.0000
   137 C56       0.5786   -2.8946   -1.2332   C.2       1 RES1   0.0000
   138 O6        0.4448   -2.1779   -0.2104   O.2       1 RES1   0.0000
   139 N4        1.1627   -4.0719   -1.1735   N.am      1 RES1   0.0000
   140 C57       1.6036   -4.5610    0.1323   C.3       1 RES1   0.0000
   141 C58       0.4722   -5.2701    0.8943   C.3       1 RES1   0.0000
   142 C59      -0.1247   -4.4283    2.0257   C.3       1 RES1   0.0000
   143 C60       0.8044   -4.2916    3.2282   C.3       1 RES1   0.0000
   144 C61       0.1805   -3.4917    4.3703   C.3       1 RES1   0.0000
   145 C62       0.1525   -1.9916    4.0878   C.3       1 RES1   0.0000
   146 C63       1.5319   -4.8879   -2.3177   C.3       1 RES1   0.0000
   147 C64       3.0089   -4.7385   -2.7100   C.3       1 RES1   0.0000
   148 C65       3.3986   -3.3799   -3.3195   C.3       1 RES1   0.0000
   149 C66       4.6236   -3.5827   -4.2120   C.3       1 RES1   0.0000
   150 C67       3.6640   -2.3311   -2.2196   C.3       1 RES1   0.0000
   151 C68       3.2880   -0.8803   -2.5557   C.3       1 RES1   0.0000
   152 C69       4.3374   -0.1441   -3.3888   C.3       1 RES1   0.0000
   153 C70       4.1409    1.3760   -3.4458   C.3       1 RES1   0.0000
   154 C71       4.5540    2.0615   -2.1440   C.3       1 RES1   0.0000
   155 C72       4.9660    1.9485   -4.5966   C.3       1 RES1   0.0000
   156 H73      -8.5794   -3.7798    1.8600   H         1 RES1   0.0000
   157 H74      -7.4789   -2.7604    2.7813   H         1 RES1   0.0000
   158 H75      -8.9585   -2.0823    2.1094   H         1 RES1   0.0000
   159 H76      -6.6969   -3.2464    0.4225   H         1 RES1   0.0000
   160 H77      -8.1324   -2.4299   -0.1878   H         1 RES1   0.0000
   161 H78      -7.4101   -0.3039    0.8208   H         1 RES1   0.0000
   162 H79      -6.0270   -1.0922    1.5659   H         1 RES1   0.0000
   163 H80      -5.3003   -1.7602   -0.8140   H         1 RES1   0.0000
   164 H81      -6.5920   -0.7115   -1.3959   H         1 RES1   0.0000
   165 H82      -5.4591    1.1210    0.1036   H         1 RES1   0.0000
   166 H83      -4.0182    0.1226    0.0089   H         1 RES1   0.0000
   167 H84      -5.5828    1.1895   -2.3732   H         1 RES1   0.0000
   168 H85      -4.2099    2.0167   -1.6250   H         1 RES1   0.0000
   169 H86      -4.0597    1.1393   -4.6097   H         1 RES1   0.0000
   170 H87      -3.3773   -0.4787   -4.6312   H         1 RES1   0.0000
   171 H88      -6.2636    0.2359   -4.0012   H         1 RES1   0.0000
   172 H89      -5.6435   -0.3794   -5.5053   H         1 RES1   0.0000
   173 H90      -5.4007   -1.9434   -2.9149   H         1 RES1   0.0000
   174 H91      -7.6780   -1.9969   -4.9339   H         1 RES1   0.0000
   175 H92      -7.5292   -3.0471   -3.5226   H         1 RES1   0.0000
   176 H93      -7.7999   -1.3206   -3.3153   H         1 RES1   0.0000
   177 H94      -5.7175   -3.8501   -4.6403   H         1 RES1   0.0000
   178 H95      -5.1915   -2.6922   -5.8423   H         1 RES1   0.0000
   179 H96      -3.0056   -2.6618   -5.0493   H         1 RES1   0.0000
   180 H97      -3.5020   -2.9594   -3.3678   H         1 RES1   0.0000
   181 H98      -3.8943   -5.2203   -5.2948   H         1 RES1   0.0000
   182 H99      -2.2383   -4.7887   -4.9172   H         1 RES1   0.0000
   183 H100     -2.7678   -4.9558   -2.4733   H         1 RES1   0.0000
   184 H101     -5.3891   -6.1289   -3.5099   H         1 RES1   0.0000
   185 H102     -4.8095   -6.3004   -1.8629   H         1 RES1   0.0000
   186 H103     -5.2224   -4.7040   -2.4860   H         1 RES1   0.0000
   187 H104     -3.2701   -7.4868   -4.0997   H         1 RES1   0.0000
   188 H105     -1.6832   -6.8069   -3.7597   H         1 RES1   0.0000
   189 H106     -2.6880   -7.4149   -2.4418   H         1 RES1   0.0000
   190 H107     -1.9269   -1.4500   -3.6767   H         1 RES1   0.0000
   191 H108     -1.0447    0.0841   -3.9524   H         1 RES1   0.0000
   192 H109     -0.8526   -3.0098   -2.8322   H         1 RES1   0.0000
   193 H110      0.7398   -2.3964   -3.3607   H         1 RES1   0.0000
   194 H111      2.4364   -5.2418   -0.0356   H         1 RES1   0.0000
   195 H112      1.9537   -3.7022    0.7084   H         1 RES1   0.0000
   196 H113     -0.3197   -5.5352    0.1893   H         1 RES1   0.0000
   197 H114      0.8544   -6.2016    1.3128   H         1 RES1   0.0000
   198 H115     -0.3818   -3.4360    1.6386   H         1 RES1   0.0000
   199 H116     -1.0354   -4.9203    2.3660   H         1 RES1   0.0000
   200 H117      1.0375   -5.2909    3.5933   H         1 RES1   0.0000
   201 H118      1.7350   -3.8103    2.9344   H         1 RES1   0.0000
   202 H119     -0.8266   -3.8636    4.5627   H         1 RES1   0.0000
   203 H120      0.7616   -3.6603    5.2786   H         1 RES1   0.0000
   204 H121     -0.1878   -1.7730    3.0691   H         1 RES1   0.0000
   205 H122     -0.5009   -1.4885    4.7972   H         1 RES1   0.0000
   206 H123      1.1536   -1.5826    4.1979   H         1 RES1   0.0000
   207 H124      1.3451   -5.9285   -2.0450   H         1 RES1   0.0000
   208 H125      0.8975   -4.6436   -3.1680   H         1 RES1   0.0000
   209 H126      3.6535   -4.9325   -1.8517   H         1 RES1   0.0000
   210 H127      3.2132   -5.5216   -3.4407   H         1 RES1   0.0000
   211 H128      2.5808   -3.0326   -3.9620   H         1 RES1   0.0000
   212 H129      5.4196   -4.0822   -3.6668   H         1 RES1   0.0000
   213 H130      4.3677   -4.1981   -5.0700   H         1 RES1   0.0000
   214 H131      4.9996   -2.6349   -4.5818   H         1 RES1   0.0000
   215 H132      3.1105   -2.6047   -1.3220   H         1 RES1   0.0000
   216 H133      4.7236   -2.3640   -1.9605   H         1 RES1   0.0000
   217 H134      2.3352   -0.8527   -3.0925   H         1 RES1   0.0000
   218 H135      3.1333   -0.3545   -1.6066   H         1 RES1   0.0000
   219 H136      5.3356   -0.3522   -2.9998   H         1 RES1   0.0000
   220 H137      4.2995   -0.5189   -4.4113   H         1 RES1   0.0000
   221 H138      3.0803    1.5871   -3.6386   H         1 RES1   0.0000
   222 H139      5.6042    1.8640   -1.9431   H         1 RES1   0.0000
   223 H140      4.4327    3.1387   -2.2347   H         1 RES1   0.0000
   224 H141      3.9693    1.7162   -1.2898   H         1 RES1   0.0000
   225 H142      6.0186    1.7214   -4.4495   H         1 RES1   0.0000
   226 H143      4.6559    1.5195   -5.5458   H         1 RES1   0.0000
   227 H144      4.8564    3.0285   -4.6565   H         1 RES1   0.0000
   228 O7        0.5636    1.8016   -1.1194   O.3       1 RES1   0.0000
   229 H145      1.3697    1.9597   -1.6364   H         1 RES1   0.0000
   230 H146      0.0110    2.5860   -1.2642   H         1 RES1   0.0000
   231 O8       -2.2716   -1.9006   -0.2129   O.3       1 RES1   0.0000
   232 H147     -2.5193   -2.4984    0.5163   H         1 RES1   0.0000
   233 H148     -3.1095   -1.6020   -0.5985   H         1 RES1   0.0000
@<TRIPOS>BOND
     1     1    20    1
     2     1    22    1
     3     1    25    1
     4     1   133    1
     5     1   135    1
     6     1   138    1
     7     1   228    1
     8     1   231    1
     9     2     3    1
    10     2    43    1
    11     2    44    1
    12     2    45    1
    13     3     4    1
    14     3    46    1
    15     3    47    1
    16     4     5    1
    17     4    48    1
    18     4    49    1
    19     5     6    1
    20     5    50    1
    21     5    51    1
    22     6     7    1
    23     6    52    1
    24     6    53    1
    25     7     8    1
    26     7    54    1
    27     7    55    1
    28     8     9    1
    29     8    19    1
    30     9    10    1
    31     9    56    1
    32     9    57    1
    33    10    11    1
    34    10    58    1
    35    10    59    1
    36    11    12    1
    37    11    13    1
    38    11    60    1
    39    12    61    1
    40    12    62    1
    41    12    63    1
    42    13    14    1
    43    13    64    1
    44    13    65    1
    45    14    15    1
    46    14    66    1
    47    14    67    1
    48    15    16    1
    49    15    68    1
    50    15    69    1
    51    16    17    1
    52    16    18    1
    53    16    70    1
    54    17    71    1
    55    17    72    1
    56    17    73    1
    57    18    74    1
    58    18    75    1
    59    18    76    1
    60    19    20    2
    61    19    21    1
    62    21    22    1
    63    21    77    1
    64    21    78    1
    65    22    23    1
    66    23    24    1
    67    23    79    1
    68    23    80    1
    69    24    25    2
    70    24    26    1
    71    26    27    1
    72    26    33    1
    73    27    28    1
    74    27    81    1
    75    27    82    1
    76    28    29    1
    77    28    83    1
    78    28    84    1
    79    29    30    1
    80    29    85    1
    81    29    86    1
    82    30    31    1
    83    30    87    1
    84    30    88    1
    85    31    32    1
    86    31    89    1
    87    31    90    1
    88    32    91    1
    89    32    92    1
    90    32    93    1
    91    33    34    1
    92    33    94    1
    93    33    95    1
    94    34    35    1
    95    34    96    1
    96    34    97    1
    97    35    36    1
    98    35    37    1
    99    35    98    1
   100    36    99    1
   101    36   100    1
   102    36   101    1
   103    37    38    1
   104    37   102    1
   105    37   103    1
   106    38    39    1
   107    38   104    1
   108    38   105    1
   109    39    40    1
   110    39   106    1
   111    39   107    1
   112    40    41    1
   113    40    42    1
   114    40   108    1
   115    41   109    1
   116    41   110    1
   117    41   111    1
   118    42   112    1
   119    42   113    1
   120    42   114    1
   121   115   116    1
   122   115   156    1
   123   115   157    1
   124   115   158    1
   125   116   117    1
   126   116   159    1
   127   116   160    1
   128   117   118    1
   129   117   161    1
   130   117   162    1
   131   118   119    1
   132   118   163    1
   133   118   164    1
   134   119   120    1
   135   119   165    1
   136   119   166    1
   137   120   121    1
   138   120   167    1
   139   120   168    1
   140   121   122    1
   141   121   132    1
   142   122   123    1
   143   122   169    1
   144   122   170    1
   145   123   124    1
   146   123   171    1
   147   123   172    1
   148   124   125    1
   149   124   126    1
   150   124   173    1
   151   125   174    1
   152   125   175    1
   153   125   176    1
   154   126   127    1
   155   126   177    1
   156   126   178    1
   157   127   128    1
   158   127   179    1
   159   127   180    1
   160   128   129    1
   161   128   181    1
   162   128   182    1
   163   129   130    1
   164   129   131    1
   165   129   183    1
   166   130   184    1
   167   130   185    1
   168   130   186    1
   169   131   187    1
   170   131   188    1
   171   131   189    1
   172   132   133    2
   173   132   134    1
   174   134   135    1
   175   134   190    1
   176   134   191    1
   177   135   136    1
   178   136   137    1
   179   136   192    1
   180   136   193    1
   181   137   138    2
   182   137   139    1
   183   139   140    1
   184   139   146    1
   185   140   141    1
   186   140   194    1
   187   140   195    1
   188   141   142    1
   189   141   196    1
   190   141   197    1
   191   142   143    1
   192   142   198    1
   193   142   199    1
   194   143   144    1
   195   143   200    1
   196   143   201    1
   197   144   145    1
   198   144   202    1
   199   144   203    1
   200   145   204    1
   201   145   205    1
   202   145   206    1
   203   146   147    1
   204   146   207    1
   205   146   208    1
   206   147   148    1
   207   147   209    1
   208   147   210    1
   209   148   149    1
   210   148   150    1
   211   148   211    1
   212   149   212    1
   213   149   213    1
   214   149   214    1
   215   150   151    1
   216   150   215    1
   217   150   216    1
   218   151   152    1
   219   151   217    1
   220   151   218    1
   221   152   153    1
   222   152   219    1
   223   152   220    1
   224   153   154    1
   225   153   155    1
   226   153   221    1
   227   154   222    1
   228   154   223    1
   229   154   224    1
   230   155   225    1
   231   155   226    1
   232   155   227    1
   233   228   229    1
   234   228   230    1
   235   231   232    1
   236   231   233    1
@<TRIPOS>SUBSTRUCTURE
     1 RES1      233 GROUP             0 ****  ****    0  
