@<TRIPOS>MOLECULE
ICIGOT_geomtry_0_nunpairedes_0_charge_2 Charge: 2 Unpaired_Electrons: 2 XTB_Unpaired_Electrons: 0 XTB_Charge: 2
   115   129     1     0     0
SMALL
NoCharges
****
Generated from Architector

@<TRIPOS>ATOM
     1 Tm1       0.8586    0.4355    0.2627   Tm        1 RES1   0.0000
     2 C1        1.3414    6.8969    5.3272   C.3       1 RES1   0.0000
     3 C2        1.6728    5.4697    4.9077   C.3       1 RES1   0.0000
     4 C3        0.4133    4.6327    4.7175   C.3       1 RES1   0.0000
     5 C4       -0.3504    5.1137    3.4895   C.3       1 RES1   0.0000
     6 C5       -1.4100    4.1218    3.0088   C.3       1 RES1   0.0000
     7 C6       -1.8175    4.5433    1.5946   C.3       1 RES1   0.0000
     8 N1       -2.4149    3.4852    0.7986   N.ar      1 RES1   0.0000
     9 C7       -3.7223    3.5623    0.3521   C.ar      1 RES1   0.0000
    10 C8       -4.5077    4.7184    0.8554   C.ar      1 RES1   0.0000
    11 C9       -5.2293    4.6726    2.0451   C.ar      1 RES1   0.0000
    12 C10      -5.9267    5.7888    2.4757   C.ar      1 RES1   0.0000
    13 C11      -5.9200    6.9519    1.7295   C.ar      1 RES1   0.0000
    14 C12      -5.1558    7.0225    0.5775   C.ar      1 RES1   0.0000
    15 C13      -4.4539    5.9155    0.1439   C.ar      1 RES1   0.0000
    16 C14      -4.2426    2.6552   -0.5440   C.ar      1 RES1   0.0000
    17 C15      -5.5810    2.7856   -1.1489   C.ar      1 RES1   0.0000
    18 C16      -6.4890    1.7306   -1.0941   C.ar      1 RES1   0.0000
    19 C17      -7.6641    1.7868   -1.8218   C.ar      1 RES1   0.0000
    20 C18      -7.9404    2.8898   -2.6119   C.ar      1 RES1   0.0000
    21 C19      -7.0544    3.9548   -2.6483   C.ar      1 RES1   0.0000
    22 C20      -5.8648    3.8895   -1.9451   C.ar      1 RES1   0.0000
    23 C21      -3.4083    1.6153   -1.0632   C.ar      1 RES1   0.0000
    24 C22      -3.7568    0.6788   -2.0578   C.ar      1 RES1   0.0000
    25 C23      -2.8055   -0.2323   -2.5168   C.ar      1 RES1   0.0000
    26 C24      -3.0352   -1.3238   -3.4242   C.ar      1 RES1   0.0000
    27 C25      -2.0719   -2.2322   -3.7302   C.ar      1 RES1   0.0000
    28 C26      -0.7391   -2.1608   -3.1863   C.ar      1 RES1   0.0000
    29 C27       0.2571   -3.1363   -3.2250   C.ar      1 RES1   0.0000
    30 C28       1.4038   -2.9887   -2.4072   C.ar      1 RES1   0.0000
    31 C29       2.1817   -4.0574   -1.8578   C.ar      1 RES1   0.0000
    32 C30       2.3384   -5.3693   -2.5121   C.ar      1 RES1   0.0000
    33 C31       3.6585   -5.6997   -2.8444   C.ar      1 RES1   0.0000
    34 C32       3.9445   -6.8681   -3.5201   C.ar      1 RES1   0.0000
    35 C33       2.9233   -7.7387   -3.8572   C.ar      1 RES1   0.0000
    36 C34       1.6121   -7.4194   -3.5425   C.ar      1 RES1   0.0000
    37 C35       1.3156   -6.2448   -2.8668   C.ar      1 RES1   0.0000
    38 C36       2.8608   -3.8046   -0.6725   C.ar      1 RES1   0.0000
    39 C37       2.8614   -4.7968    0.4328   C.ar      1 RES1   0.0000
    40 C38       3.8363   -5.7012    0.8142   C.ar      1 RES1   0.0000
    41 C39       3.6689   -6.4263    1.9869   C.ar      1 RES1   0.0000
    42 C40       2.5539   -6.2427    2.7880   C.ar      1 RES1   0.0000
    43 C41       1.5688   -5.3554    2.3961   C.ar      1 RES1   0.0000
    44 C42       1.7137   -4.6480    1.2202   C.ar      1 RES1   0.0000
    45 N2        3.1779   -2.5242   -0.2615   N.ar      1 RES1   0.0000
    46 C43       3.9423   -2.2777    0.9627   C.3       1 RES1   0.0000
    47 C44       3.0371   -1.7204    2.0695   C.3       1 RES1   0.0000
    48 C45       3.3536   -2.3375    3.4332   C.3       1 RES1   0.0000
    49 C46       4.7767   -2.0888    3.9413   C.3       1 RES1   0.0000
    50 C47       4.7896   -2.0583    5.4703   C.3       1 RES1   0.0000
    51 C48       6.1262   -1.6444    6.0663   C.3       1 RES1   0.0000
    52 C49       2.6407   -1.4421   -0.8519   C.ar      1 RES1   0.0000
    53 O1        2.8065   -0.2720   -0.3772   O.2       1 RES1   0.0000
    54 C50       1.6308   -1.7057   -1.8479   C.ar      1 RES1   0.0000
    55 N3        0.7307   -0.7215   -1.8998   N.ar      1 RES1   0.0000
    56 C51      -0.4534   -1.0022   -2.4235   C.ar      1 RES1   0.0000
    57 C52      -1.4962   -0.1155   -1.9987   C.ar      1 RES1   0.0000
    58 N4       -1.1687    0.7139   -1.0133   N.ar      1 RES1   0.0000
    59 C53      -2.0949    1.5600   -0.5514   C.ar      1 RES1   0.0000
    60 C54      -1.5793    2.5028    0.4110   C.ar      1 RES1   0.0000
    61 O2       -0.3581    2.4329    0.7559   O.2       1 RES1   0.0000
    62 H1        2.2380    7.4320    5.6299   H         1 RES1   0.0000
    63 H2        0.6423    6.8861    6.1618   H         1 RES1   0.0000
    64 H3        0.8865    7.4486    4.5067   H         1 RES1   0.0000
    65 H4        2.3096    4.9971    5.6534   H         1 RES1   0.0000
    66 H5        2.2293    5.4868    3.9702   H         1 RES1   0.0000
    67 H6       -0.1912    4.6834    5.6250   H         1 RES1   0.0000
    68 H7        0.6884    3.5910    4.5501   H         1 RES1   0.0000
    69 H8        0.3838    5.2426    2.6848   H         1 RES1   0.0000
    70 H9       -0.8170    6.0820    3.6748   H         1 RES1   0.0000
    71 H10      -2.2851    4.1176    3.6639   H         1 RES1   0.0000
    72 H11      -0.9785    3.1163    3.0052   H         1 RES1   0.0000
    73 H12      -0.9099    4.8532    1.0618   H         1 RES1   0.0000
    74 H13      -2.5105    5.3787    1.6494   H         1 RES1   0.0000
    75 H14      -5.2748    3.7764    2.6436   H         1 RES1   0.0000
    76 H15      -6.4854    5.7473    3.3986   H         1 RES1   0.0000
    77 H16      -6.5084    7.7894    2.0546   H         1 RES1   0.0000
    78 H17      -5.0888    7.9389    0.0165   H         1 RES1   0.0000
    79 H18      -3.8556    5.9736   -0.7514   H         1 RES1   0.0000
    80 H19      -6.2718    0.8761   -0.4696   H         1 RES1   0.0000
    81 H20      -8.3520    0.9576   -1.7927   H         1 RES1   0.0000
    82 H21      -8.8379    2.9140   -3.2099   H         1 RES1   0.0000
    83 H22      -7.2612    4.8294   -3.2489   H         1 RES1   0.0000
    84 H23      -5.1291    4.6734   -2.0353   H         1 RES1   0.0000
    85 H24      -4.7598    0.6828   -2.4674   H         1 RES1   0.0000
    86 H25      -4.0392   -1.4272   -3.8060   H         1 RES1   0.0000
    87 H26      -2.2962   -3.0804   -4.3550   H         1 RES1   0.0000
    88 H27       0.1032   -4.0439   -3.7859   H         1 RES1   0.0000
    89 H28       4.4610   -5.0132   -2.6151   H         1 RES1   0.0000
    90 H29       4.9617   -7.0887   -3.8000   H         1 RES1   0.0000
    91 H30       3.1568   -8.6523   -4.3778   H         1 RES1   0.0000
    92 H31       0.8177   -8.0854   -3.8449   H         1 RES1   0.0000
    93 H32       0.2977   -6.0188   -2.5777   H         1 RES1   0.0000
    94 H33       4.7211   -5.8169    0.2104   H         1 RES1   0.0000
    95 H34       4.4186   -7.1337    2.2895   H         1 RES1   0.0000
    96 H35       2.4474   -6.7863    3.7129   H         1 RES1   0.0000
    97 H36       0.6894   -5.2061    3.0058   H         1 RES1   0.0000
    98 H37       0.9226   -3.9768    0.9116   H         1 RES1   0.0000
    99 H38       4.7398   -1.5714    0.7321   H         1 RES1   0.0000
   100 H39       4.3933   -3.2119    1.2866   H         1 RES1   0.0000
   101 H40       2.0052   -1.9928    1.8162   H         1 RES1   0.0000
   102 H41       3.1354   -0.6212    2.1190   H         1 RES1   0.0000
   103 H42       3.1628   -3.4085    3.3813   H         1 RES1   0.0000
   104 H43       2.6468   -1.9188    4.1496   H         1 RES1   0.0000
   105 H44       5.1302   -1.1346    3.5516   H         1 RES1   0.0000
   106 H45       5.4676   -2.8560    3.5881   H         1 RES1   0.0000
   107 H46       4.4987   -3.0365    5.8553   H         1 RES1   0.0000
   108 H47       4.0365   -1.3460    5.8025   H         1 RES1   0.0000
   109 H48       6.8977   -2.3736    5.8415   H         1 RES1   0.0000
   110 H49       6.0344   -1.5685    7.1472   H         1 RES1   0.0000
   111 H50       6.4340   -0.6800    5.6695   H         1 RES1   0.0000
   112 N5       -0.4159   -0.9793    1.7086   N.3       1 RES1   0.0000
   113 O3       -1.4112   -1.4100    2.1682   O.2       1 RES1   0.0000
   114 O4        0.1948   -0.0123    2.1922   O.co2     1 RES1   0.0000
   115 O5        0.0920   -1.4756    0.6749   O.co2     1 RES1   0.0000
@<TRIPOS>BOND
     1     1     8    1
     2     1    45    1
     3     1    53    1
     4     1    55    1
     5     1    58    1
     6     1    61    1
     7     1   114    1
     8     1   115    1
     9     2     3    1
    10     2    62    1
    11     2    63    1
    12     2    64    1
    13     3     4    1
    14     3    65    1
    15     3    66    1
    16     4     5    1
    17     4    67    1
    18     4    68    1
    19     5     6    1
    20     5    69    1
    21     5    70    1
    22     6     7    1
    23     6    71    1
    24     6    72    1
    25     7     8    1
    26     7    73    1
    27     7    74    1
    28     8     9    1
    29     8    60    1
    30     9    10    1
    31     9    16    2
    32    10    11    1
    33    10    15    2
    34    11    12    2
    35    11    75    1
    36    12    13    1
    37    12    76    1
    38    13    14    2
    39    13    77    1
    40    14    15    1
    41    14    78    1
    42    15    79    1
    43    16    17    1
    44    16    23    1
    45    17    18    1
    46    17    22    2
    47    18    19    2
    48    18    80    1
    49    19    20    1
    50    19    81    1
    51    20    21    2
    52    20    82    1
    53    21    22    1
    54    21    83    1
    55    22    84    1
    56    23    24    1
    57    23    59    2
    58    24    25    2
    59    24    85    1
    60    25    26    1
    61    25    57    1
    62    26    27    2
    63    26    86    1
    64    27    28    1
    65    27    87    1
    66    28    29    1
    67    28    56    2
    68    29    30    2
    69    29    88    1
    70    30    31    1
    71    30    54    1
    72    31    32    1
    73    31    38    2
    74    32    33    1
    75    32    37    2
    76    33    34    2
    77    33    89    1
    78    34    35    1
    79    34    90    1
    80    35    36    2
    81    35    91    1
    82    36    37    1
    83    36    92    1
    84    37    93    1
    85    38    39    1
    86    38    45    1
    87    39    40    1
    88    39    44    2
    89    40    41    2
    90    40    94    1
    91    41    42    1
    92    41    95    1
    93    42    43    2
    94    42    96    1
    95    43    44    1
    96    43    97    1
    97    44    98    1
    98    45    46    1
    99    45    52    1
   100    46    47    1
   101    46    99    1
   102    46   100    1
   103    47    48    1
   104    47   101    1
   105    47   102    1
   106    48    49    1
   107    48   103    1
   108    48   104    1
   109    49    50    1
   110    49   105    1
   111    49   106    1
   112    50    51    1
   113    50   107    1
   114    50   108    1
   115    51   109    1
   116    51   110    1
   117    51   111    1
   118    52    53    2
   119    52    54    1
   120    54    55    2
   121    55    56    1
   122    56    57    1
   123    57    58    2
   124    58    59    1
   125    59    60    1
   126    60    61    2
   127   112   113    2
   128   112   114    1
   129   112   115    1
@<TRIPOS>SUBSTRUCTURE
     1 RES1      115 GROUP             0 ****  ****    0  
