@<TRIPOS>MOLECULE
YEMSEP_geometry_0_nunpairedes_0_charge_2 Charge: 2 Unpaired_Electrons: 2 XTB_Unpaired_Electrons: 0 XTB_Charge: 2
   243   247     1     0     0
SMALL
NoCharges
****
Generated from Architector

@<TRIPOS>ATOM
     1 Tm1      -0.2391   -0.0479    0.2451   Tm        1 RES1   0.0000
     2 C1        1.9055    5.5852    0.7996   C.3       1 RES1   0.0000
     3 C2        2.8811    4.9621   -0.1866   C.3       1 RES1   0.0000
     4 C3        3.3625    3.6058    0.3111   C.3       1 RES1   0.0000
     5 C4        4.5459    3.0705   -0.4874   C.3       1 RES1   0.0000
     6 C5        4.8553    1.6378   -0.0697   C.3       1 RES1   0.0000
     7 C6        6.0199    1.0084   -0.8432   C.3       1 RES1   0.0000
     8 C7        5.9787   -0.5264   -0.8785   C.3       1 RES1   0.0000
     9 C8        5.1396   -1.1096   -2.0291   C.3       1 RES1   0.0000
    10 N1        3.8010   -0.5431   -2.1562   N.am      1 RES1   0.0000
    11 C9        3.6485    0.4429   -3.2250   C.3       1 RES1   0.0000
    12 C10       2.7396    0.0502   -4.3954   C.3       1 RES1   0.0000
    13 C11       2.9209   -1.3376   -5.0152   C.3       1 RES1   0.0000
    14 C12       2.2267   -1.4102   -6.3867   C.3       1 RES1   0.0000
    15 C13       1.8880   -2.8283   -6.8621   C.3       1 RES1   0.0000
    16 C14       0.7675   -3.4739   -6.0474   C.3       1 RES1   0.0000
    17 C15       0.1425   -4.7157   -6.6869   C.3       1 RES1   0.0000
    18 C16       1.0441   -5.9414   -6.6560   C.3       1 RES1   0.0000
    19 C17       2.8536   -0.6298   -1.2235   C.2       1 RES1   0.0000
    20 O1        1.8225    0.0720   -1.2404   O.2       1 RES1   0.0000
    21 C18       3.0016   -1.5805   -0.0186   C.3       1 RES1   0.0000
    22 C19       3.3757   -3.0248   -0.3119   C.3       1 RES1   0.0000
    23 O2        1.7121   -1.5998    0.6004   O.3       1 RES1   0.0000
    24 C20       1.7753   -2.0255    1.9632   C.3       1 RES1   0.0000
    25 C21       0.8741   -3.2480    2.1298   C.3       1 RES1   0.0000
    26 C22       1.3707   -0.7952    2.7855   C.2       1 RES1   0.0000
    27 O3        0.8202    0.1474    2.1599   O.2       1 RES1   0.0000
    28 N2        1.6891   -0.7047    4.0581   N.am      1 RES1   0.0000
    29 C23       2.3672   -1.7535    4.8100   C.3       1 RES1   0.0000
    30 C24       1.6275   -2.2293    6.0646   C.3       1 RES1   0.0000
    31 C25       0.1878   -2.7040    5.8279   C.3       1 RES1   0.0000
    32 C26      -0.2321   -3.7815    6.8373   C.3       1 RES1   0.0000
    33 C27      -0.0228   -5.2144    6.3402   C.3       1 RES1   0.0000
    34 C28       1.4228   -5.5820    6.0196   C.3       1 RES1   0.0000
    35 C29       1.5521   -7.0340    5.5670   C.3       1 RES1   0.0000
    36 C30       2.9808   -7.3812    5.1691   C.3       1 RES1   0.0000
    37 C31       1.5340    0.5955    4.7094   C.3       1 RES1   0.0000
    38 C32       0.0967    1.0211    5.0073   C.3       1 RES1   0.0000
    39 C33       0.0705    2.2591    5.9168   C.3       1 RES1   0.0000
    40 C34       0.8867    2.1532    7.2133   C.3       1 RES1   0.0000
    41 C35       0.5082    0.9762    8.1144   C.3       1 RES1   0.0000
    42 C36       1.6131    0.6300    9.1101   C.3       1 RES1   0.0000
    43 C37       1.2895   -0.6237    9.9191   C.3       1 RES1   0.0000
    44 C38       2.4759   -1.0805   10.7579   C.3       1 RES1   0.0000
    45 H1        1.5772    6.5581    0.4502   H         1 RES1   0.0000
    46 H2        2.3808    5.7084    1.7697   H         1 RES1   0.0000
    47 H3        1.0350    4.9460    0.9255   H         1 RES1   0.0000
    48 H4        3.7338    5.6285   -0.3126   H         1 RES1   0.0000
    49 H5        2.4109    4.8403   -1.1663   H         1 RES1   0.0000
    50 H6        2.5328    2.8899    0.2621   H         1 RES1   0.0000
    51 H7        3.6535    3.6897    1.3605   H         1 RES1   0.0000
    52 H8        5.4096    3.7115   -0.3227   H         1 RES1   0.0000
    53 H9        4.3245    3.0893   -1.5574   H         1 RES1   0.0000
    54 H10       3.9371    1.0702   -0.2075   H         1 RES1   0.0000
    55 H11       5.0782    1.6115    0.9984   H         1 RES1   0.0000
    56 H12       6.9442    1.3123   -0.3531   H         1 RES1   0.0000
    57 H13       6.0479    1.3979   -1.8614   H         1 RES1   0.0000
    58 H14       5.6387   -0.8815    0.0952   H         1 RES1   0.0000
    59 H15       6.9881   -0.9195   -1.0149   H         1 RES1   0.0000
    60 H16       5.0643   -2.1908   -1.9502   H         1 RES1   0.0000
    61 H17       5.6596   -0.9066   -2.9662   H         1 RES1   0.0000
    62 H18       4.6405    0.6639   -3.6106   H         1 RES1   0.0000
    63 H19       3.2527    1.3584   -2.7804   H         1 RES1   0.0000
    64 H20       2.9090    0.8063   -5.1653   H         1 RES1   0.0000
    65 H21       1.7097    0.1381   -4.0692   H         1 RES1   0.0000
    66 H22       2.4989   -2.0851   -4.3404   H         1 RES1   0.0000
    67 H23       3.9798   -1.5591   -5.1469   H         1 RES1   0.0000
    68 H24       2.8802   -0.9388   -7.1226   H         1 RES1   0.0000
    69 H25       1.3040   -0.8242   -6.3667   H         1 RES1   0.0000
    70 H26       2.7831   -3.4462   -6.8306   H         1 RES1   0.0000
    71 H27       1.5659   -2.7685   -7.9025   H         1 RES1   0.0000
    72 H28      -0.0243   -2.7312   -5.9303   H         1 RES1   0.0000
    73 H29       1.1347   -3.7351   -5.0566   H         1 RES1   0.0000
    74 H30      -0.1253   -4.4900   -7.7193   H         1 RES1   0.0000
    75 H31      -0.7825   -4.9574   -6.1530   H         1 RES1   0.0000
    76 H32       1.9735   -5.7674   -7.1898   H         1 RES1   0.0000
    77 H33       0.5442   -6.7905   -7.1132   H         1 RES1   0.0000
    78 H34       1.2764   -6.2143   -5.6298   H         1 RES1   0.0000
    79 H35       3.7205   -1.1161    0.6759   H         1 RES1   0.0000
    80 H36       2.7678   -3.3881   -1.1303   H         1 RES1   0.0000
    81 H37       3.1853   -3.6588    0.5509   H         1 RES1   0.0000
    82 H38       4.4221   -3.1503   -0.5449   H         1 RES1   0.0000
    83 H39       2.8125   -2.2712    2.2229   H         1 RES1   0.0000
    84 H40      -0.1688   -2.9654    2.0194   H         1 RES1   0.0000
    85 H41       1.0041   -3.7222    3.0958   H         1 RES1   0.0000
    86 H42       1.0999   -3.9772    1.3544   H         1 RES1   0.0000
    87 H43       3.3562   -1.3722    5.0915   H         1 RES1   0.0000
    88 H44       2.5221   -2.6279    4.1820   H         1 RES1   0.0000
    89 H45       1.6266   -1.4510    6.8256   H         1 RES1   0.0000
    90 H46       2.2232   -3.0561    6.4522   H         1 RES1   0.0000
    91 H47       0.0597   -3.0977    4.8198   H         1 RES1   0.0000
    92 H48      -0.4850   -1.8500    5.9106   H         1 RES1   0.0000
    93 H49      -1.2938   -3.6650    7.0593   H         1 RES1   0.0000
    94 H50       0.3164   -3.6280    7.7683   H         1 RES1   0.0000
    95 H51      -0.6377   -5.3778    5.4516   H         1 RES1   0.0000
    96 H52      -0.3847   -5.8942    7.1119   H         1 RES1   0.0000
    97 H53       2.0429   -5.4289    6.9040   H         1 RES1   0.0000
    98 H54       1.8055   -4.9390    5.2241   H         1 RES1   0.0000
    99 H55       0.8873   -7.2088    4.7192   H         1 RES1   0.0000
   100 H56       1.2311   -7.6947    6.3712   H         1 RES1   0.0000
   101 H57       3.3213   -6.7392    4.3579   H         1 RES1   0.0000
   102 H58       3.0432   -8.4138    4.8364   H         1 RES1   0.0000
   103 H59       3.6550   -7.2523    6.0120   H         1 RES1   0.0000
   104 H60       1.9869    1.3484    4.0574   H         1 RES1   0.0000
   105 H61       2.0961    0.5382    5.6361   H         1 RES1   0.0000
   106 H62      -0.4419    0.1976    5.4712   H         1 RES1   0.0000
   107 H63      -0.4223    1.2607    4.0755   H         1 RES1   0.0000
   108 H64      -0.9705    2.4668    6.1694   H         1 RES1   0.0000
   109 H65       0.4481    3.1131    5.3471   H         1 RES1   0.0000
   110 H66       0.7445    3.0774    7.7733   H         1 RES1   0.0000
   111 H67       1.9521    2.1037    6.9743   H         1 RES1   0.0000
   112 H68       0.3083    0.0945    7.5080   H         1 RES1   0.0000
   113 H69      -0.4117    1.2052    8.6513   H         1 RES1   0.0000
   114 H70       1.7769    1.4645    9.7911   H         1 RES1   0.0000
   115 H71       2.5481    0.4718    8.5652   H         1 RES1   0.0000
   116 H72       0.9985   -1.4301    9.2418   H         1 RES1   0.0000
   117 H73       0.4370   -0.4265   10.5692   H         1 RES1   0.0000
   118 H74       3.3282   -1.3117   10.1213   H         1 RES1   0.0000
   119 H75       2.2212   -1.9719   11.3255   H         1 RES1   0.0000
   120 H76       2.7740   -0.3027   11.4561   H         1 RES1   0.0000
   121 C39      -5.9665   -1.0728    2.8877   C.3       1 RES1   0.0000
   122 C40      -6.1165   -1.8633    1.5951   C.3       1 RES1   0.0000
   123 C41      -5.4292   -1.1735    0.4212   C.3       1 RES1   0.0000
   124 C42      -5.6301   -1.9300   -0.8881   C.3       1 RES1   0.0000
   125 C43      -4.6932   -1.4280   -1.9821   C.3       1 RES1   0.0000
   126 C44      -4.8869   -2.1924   -3.2931   C.3       1 RES1   0.0000
   127 C45      -3.7938   -1.9457   -4.3364   C.3       1 RES1   0.0000
   128 C46      -2.5287   -2.7979   -4.1501   C.3       1 RES1   0.0000
   129 N3       -1.7969   -2.6982   -2.8888   N.am      1 RES1   0.0000
   130 C47      -1.7934   -3.8987   -2.0329   C.3       1 RES1   0.0000
   131 C48      -0.4539   -4.4718   -1.5432   C.3       1 RES1   0.0000
   132 C49       0.6032   -4.7662   -2.6100   C.3       1 RES1   0.0000
   133 C50       1.6341   -5.7851   -2.1006   C.3       1 RES1   0.0000
   134 C51       2.8519   -5.9841   -3.0151   C.3       1 RES1   0.0000
   135 C52       3.8934   -4.8727   -2.9043   C.3       1 RES1   0.0000
   136 C53       5.1400   -5.0593   -3.7702   C.3       1 RES1   0.0000
   137 C54       4.8835   -4.8906   -5.2596   C.3       1 RES1   0.0000
   138 C55      -1.2847   -1.5848   -2.3815   C.2       1 RES1   0.0000
   139 O4       -0.6884   -1.5958   -1.2854   O.2       1 RES1   0.0000
   140 C56      -1.4029   -0.2086   -3.0817   C.3       1 RES1   0.0000
   141 C57      -0.8132   -0.2096   -4.4927   C.3       1 RES1   0.0000
   142 O5       -0.6907    0.6742   -2.2056   O.3       1 RES1   0.0000
   143 C58      -0.7487    2.0849   -2.4765   C.3       1 RES1   0.0000
   144 C59       0.6658    2.6034   -2.7354   C.3       1 RES1   0.0000
   145 C60      -1.2037    2.7410   -1.1613   C.2       1 RES1   0.0000
   146 O6       -0.8568    2.1368   -0.1253   O.2       1 RES1   0.0000
   147 N4       -1.9010    3.8667   -1.1743   N.am      1 RES1   0.0000
   148 C61      -2.0947    4.6836   -2.3740   C.3       1 RES1   0.0000
   149 C62      -1.7037    6.1676   -2.2191   C.3       1 RES1   0.0000
   150 C63      -0.3759    6.3982   -1.4964   C.3       1 RES1   0.0000
   151 C64       0.2590    7.7605   -1.8272   C.3       1 RES1   0.0000
   152 C65       1.5462    7.6585   -2.6467   C.3       1 RES1   0.0000
   153 C66       1.3517    7.0324   -4.0234   C.3       1 RES1   0.0000
   154 C67       2.6781    6.8684   -4.7594   C.3       1 RES1   0.0000
   155 C68       2.5040    6.2043   -6.1184   C.3       1 RES1   0.0000
   156 C69      -2.7092    4.2257   -0.0017   C.3       1 RES1   0.0000
   157 C70      -1.9742    4.4285    1.3214   C.3       1 RES1   0.0000
   158 C71      -2.9203    4.9645    2.4069   C.3       1 RES1   0.0000
   159 C72      -3.6899    6.2445    2.0532   C.3       1 RES1   0.0000
   160 C73      -2.7989    7.4349    1.6906   C.3       1 RES1   0.0000
   161 C74      -3.5055    8.4633    0.8110   C.3       1 RES1   0.0000
   162 C75      -2.5436    9.5426    0.3187   C.3       1 RES1   0.0000
   163 C76      -3.1500   10.3968   -0.7866   C.3       1 RES1   0.0000
   164 H77      -6.4397   -1.6018    3.7099   H         1 RES1   0.0000
   165 H78      -6.4357   -0.0962    2.7944   H         1 RES1   0.0000
   166 H79      -4.9174   -0.9298    3.1376   H         1 RES1   0.0000
   167 H80      -7.1763   -1.9893    1.3715   H         1 RES1   0.0000
   168 H81      -5.6862   -2.8579    1.7259   H         1 RES1   0.0000
   169 H82      -4.3575   -1.0951    0.6327   H         1 RES1   0.0000
   170 H83      -5.8151   -0.1578    0.3180   H         1 RES1   0.0000
   171 H84      -6.6660   -1.8314   -1.2084   H         1 RES1   0.0000
   172 H85      -5.4381   -2.9926   -0.7290   H         1 RES1   0.0000
   173 H86      -3.6703   -1.5330   -1.6131   H         1 RES1   0.0000
   174 H87      -4.8679   -0.3632   -2.1578   H         1 RES1   0.0000
   175 H88      -5.8383   -1.8776   -3.7231   H         1 RES1   0.0000
   176 H89      -4.9575   -3.2629   -3.0947   H         1 RES1   0.0000
   177 H90      -3.5890   -0.8770   -4.3878   H         1 RES1   0.0000
   178 H91      -4.1767   -2.2312   -5.3195   H         1 RES1   0.0000
   179 H92      -1.8333   -2.6099   -4.9708   H         1 RES1   0.0000
   180 H93      -2.8476   -3.8366   -4.2393   H         1 RES1   0.0000
   181 H94      -2.3017   -4.6853   -2.5873   H         1 RES1   0.0000
   182 H95      -2.3884   -3.6646   -1.1434   H         1 RES1   0.0000
   183 H96      -0.7192   -5.4122   -1.0545   H         1 RES1   0.0000
   184 H97      -0.0264   -3.8237   -0.7794   H         1 RES1   0.0000
   185 H98       1.0918   -3.8293   -2.8850   H         1 RES1   0.0000
   186 H99       0.1293   -5.1781   -3.5018   H         1 RES1   0.0000
   187 H100      1.1222   -6.7433   -1.9947   H         1 RES1   0.0000
   188 H101      1.9791   -5.4995   -1.1045   H         1 RES1   0.0000
   189 H102      2.5125   -6.0798   -4.0430   H         1 RES1   0.0000
   190 H103      3.3392   -6.9219   -2.7446   H         1 RES1   0.0000
   191 H104      4.2297   -4.8551   -1.8690   H         1 RES1   0.0000
   192 H105      3.4428   -3.9067   -3.1492   H         1 RES1   0.0000
   193 H106      5.5676   -6.0436   -3.5803   H         1 RES1   0.0000
   194 H107      5.8823   -4.3152   -3.4635   H         1 RES1   0.0000
   195 H108      4.2096   -5.6540   -5.6362   H         1 RES1   0.0000
   196 H109      5.8167   -4.9637   -5.8104   H         1 RES1   0.0000
   197 H110      4.4506   -3.9136   -5.4591   H         1 RES1   0.0000
   198 H111     -2.4609    0.0931   -3.0888   H         1 RES1   0.0000
   199 H112     -1.5441   -0.4962   -5.2400   H         1 RES1   0.0000
   200 H113      0.0212   -0.9009   -4.5497   H         1 RES1   0.0000
   201 H114     -0.4575    0.7825   -4.7605   H         1 RES1   0.0000
   202 H115     -1.4534    2.2810   -3.2878   H         1 RES1   0.0000
   203 H116      1.2750    2.3101   -1.8792   H         1 RES1   0.0000
   204 H117      0.6716    3.6878   -2.8036   H         1 RES1   0.0000
   205 H118      1.0974    2.1781   -3.6366   H         1 RES1   0.0000
   206 H119     -3.1472    4.6225   -2.6752   H         1 RES1   0.0000
   207 H120     -1.4858    4.2895   -3.1862   H         1 RES1   0.0000
   208 H121     -2.4805    6.7294   -1.7004   H         1 RES1   0.0000
   209 H122     -1.6370    6.5676   -3.2330   H         1 RES1   0.0000
   210 H123      0.3266    5.6000   -1.7358   H         1 RES1   0.0000
   211 H124     -0.5651    6.3391   -0.4279   H         1 RES1   0.0000
   212 H125      0.4982    8.2875   -0.9010   H         1 RES1   0.0000
   213 H126     -0.4652    8.3701   -2.3681   H         1 RES1   0.0000
   214 H127      2.2841    7.0812   -2.0859   H         1 RES1   0.0000
   215 H128      1.9519    8.6621   -2.7777   H         1 RES1   0.0000
   216 H129      0.6851    7.6602   -4.6152   H         1 RES1   0.0000
   217 H130      0.8800    6.0521   -3.9258   H         1 RES1   0.0000
   218 H131      3.3573    6.2702   -4.1482   H         1 RES1   0.0000
   219 H132      3.1402    7.8457   -4.8939   H         1 RES1   0.0000
   220 H133      2.0600    5.2156   -6.0119   H         1 RES1   0.0000
   221 H134      3.4648    6.0962   -6.6145   H         1 RES1   0.0000
   222 H135      1.8567    6.8017   -6.7548   H         1 RES1   0.0000
   223 H136     -3.4437    3.4274    0.1418   H         1 RES1   0.0000
   224 H137     -3.2273    5.1424   -0.2662   H         1 RES1   0.0000
   225 H138     -1.1423    5.1139    1.1761   H         1 RES1   0.0000
   226 H139     -1.5642    3.4778    1.6658   H         1 RES1   0.0000
   227 H140     -2.3297    5.1458    3.3074   H         1 RES1   0.0000
   228 H141     -3.6448    4.1813    2.6432   H         1 RES1   0.0000
   229 H142     -4.3035    6.5153    2.9122   H         1 RES1   0.0000
   230 H143     -4.3837    6.0400    1.2352   H         1 RES1   0.0000
   231 H144     -1.9236    7.0850    1.1464   H         1 RES1   0.0000
   232 H145     -2.4367    7.9133    2.6003   H         1 RES1   0.0000
   233 H146     -4.3254    8.9283    1.3561   H         1 RES1   0.0000
   234 H147     -3.9410    7.9514   -0.0517   H         1 RES1   0.0000
   235 H148     -1.6365    9.0686   -0.0604   H         1 RES1   0.0000
   236 H149     -2.2507   10.1796    1.1536   H         1 RES1   0.0000
   237 H150     -3.4190    9.7791   -1.6419   H         1 RES1   0.0000
   238 H151     -2.4380   11.1486   -1.1184   H         1 RES1   0.0000
   239 H152     -4.0458   10.9028   -0.4369   H         1 RES1   0.0000
   240 N5       -1.9129   -0.7102    2.0071   N.3       1 RES1   0.0000
   241 O7       -2.3256   -1.0502    3.0697   O.2       1 RES1   0.0000
   242 O8       -1.3884   -1.5376    1.2290   O.co2     1 RES1   0.0000
   243 O9       -1.9670    0.4523    1.5994   O.co2     1 RES1   0.0000
@<TRIPOS>BOND
     1     1    20    1
     2     1    23    1
     3     1    27    1
     4     1   139    1
     5     1   142    1
     6     1   146    1
     7     1   242    1
     8     1   243    1
     9     2     3    1
    10     2    45    1
    11     2    46    1
    12     2    47    1
    13     3     4    1
    14     3    48    1
    15     3    49    1
    16     4     5    1
    17     4    50    1
    18     4    51    1
    19     5     6    1
    20     5    52    1
    21     5    53    1
    22     6     7    1
    23     6    54    1
    24     6    55    1
    25     7     8    1
    26     7    56    1
    27     7    57    1
    28     8     9    1
    29     8    58    1
    30     8    59    1
    31     9    10    1
    32     9    60    1
    33     9    61    1
    34    10    11    1
    35    10    19    1
    36    11    12    1
    37    11    62    1
    38    11    63    1
    39    12    13    1
    40    12    64    1
    41    12    65    1
    42    13    14    1
    43    13    66    1
    44    13    67    1
    45    14    15    1
    46    14    68    1
    47    14    69    1
    48    15    16    1
    49    15    70    1
    50    15    71    1
    51    16    17    1
    52    16    72    1
    53    16    73    1
    54    17    18    1
    55    17    74    1
    56    17    75    1
    57    18    76    1
    58    18    77    1
    59    18    78    1
    60    19    20    2
    61    19    21    1
    62    21    22    1
    63    21    23    1
    64    21    79    1
    65    22    80    1
    66    22    81    1
    67    22    82    1
    68    23    24    1
    69    24    25    1
    70    24    26    1
    71    24    83    1
    72    25    84    1
    73    25    85    1
    74    25    86    1
    75    26    27    2
    76    26    28    1
    77    28    29    1
    78    28    37    1
    79    29    30    1
    80    29    87    1
    81    29    88    1
    82    30    31    1
    83    30    89    1
    84    30    90    1
    85    31    32    1
    86    31    91    1
    87    31    92    1
    88    32    33    1
    89    32    93    1
    90    32    94    1
    91    33    34    1
    92    33    95    1
    93    33    96    1
    94    34    35    1
    95    34    97    1
    96    34    98    1
    97    35    36    1
    98    35    99    1
    99    35   100    1
   100    36   101    1
   101    36   102    1
   102    36   103    1
   103    37    38    1
   104    37   104    1
   105    37   105    1
   106    38    39    1
   107    38   106    1
   108    38   107    1
   109    39    40    1
   110    39   108    1
   111    39   109    1
   112    40    41    1
   113    40   110    1
   114    40   111    1
   115    41    42    1
   116    41   112    1
   117    41   113    1
   118    42    43    1
   119    42   114    1
   120    42   115    1
   121    43    44    1
   122    43   116    1
   123    43   117    1
   124    44   118    1
   125    44   119    1
   126    44   120    1
   127   121   122    1
   128   121   164    1
   129   121   165    1
   130   121   166    1
   131   122   123    1
   132   122   167    1
   133   122   168    1
   134   123   124    1
   135   123   169    1
   136   123   170    1
   137   124   125    1
   138   124   171    1
   139   124   172    1
   140   125   126    1
   141   125   173    1
   142   125   174    1
   143   126   127    1
   144   126   175    1
   145   126   176    1
   146   127   128    1
   147   127   177    1
   148   127   178    1
   149   128   129    1
   150   128   179    1
   151   128   180    1
   152   129   130    1
   153   129   138    1
   154   130   131    1
   155   130   181    1
   156   130   182    1
   157   131   132    1
   158   131   183    1
   159   131   184    1
   160   132   133    1
   161   132   185    1
   162   132   186    1
   163   133   134    1
   164   133   187    1
   165   133   188    1
   166   134   135    1
   167   134   189    1
   168   134   190    1
   169   135   136    1
   170   135   191    1
   171   135   192    1
   172   136   137    1
   173   136   193    1
   174   136   194    1
   175   137   195    1
   176   137   196    1
   177   137   197    1
   178   138   139    2
   179   138   140    1
   180   140   141    1
   181   140   142    1
   182   140   198    1
   183   141   199    1
   184   141   200    1
   185   141   201    1
   186   142   143    1
   187   143   144    1
   188   143   145    1
   189   143   202    1
   190   144   203    1
   191   144   204    1
   192   144   205    1
   193   145   146    2
   194   145   147    1
   195   147   148    1
   196   147   156    1
   197   148   149    1
   198   148   206    1
   199   148   207    1
   200   149   150    1
   201   149   208    1
   202   149   209    1
   203   150   151    1
   204   150   210    1
   205   150   211    1
   206   151   152    1
   207   151   212    1
   208   151   213    1
   209   152   153    1
   210   152   214    1
   211   152   215    1
   212   153   154    1
   213   153   216    1
   214   153   217    1
   215   154   155    1
   216   154   218    1
   217   154   219    1
   218   155   220    1
   219   155   221    1
   220   155   222    1
   221   156   157    1
   222   156   223    1
   223   156   224    1
   224   157   158    1
   225   157   225    1
   226   157   226    1
   227   158   159    1
   228   158   227    1
   229   158   228    1
   230   159   160    1
   231   159   229    1
   232   159   230    1
   233   160   161    1
   234   160   231    1
   235   160   232    1
   236   161   162    1
   237   161   233    1
   238   161   234    1
   239   162   163    1
   240   162   235    1
   241   162   236    1
   242   163   237    1
   243   163   238    1
   244   163   239    1
   245   240   241    2
   246   240   242    1
   247   240   243    1
@<TRIPOS>SUBSTRUCTURE
     1 RES1      243 GROUP             0 ****  ****    0  
