@<TRIPOS>MOLECULE
YEMSEP_geometry_0_nunpairedes_0_charge_2 Charge: 2 Unpaired_Electrons: 2 XTB_Unpaired_Electrons: 0 XTB_Charge: 2
   119   129     1     0     0
SMALL
NoCharges
****
Generated from Architector

@<TRIPOS>ATOM
     1 Tm1      -0.0610    0.1766   -0.0207   Tm        1 RES1   0.0000
     2 C1       -4.8131    1.0396   -1.3711   C.3       1 RES1   0.0000
     3 C2       -3.8847    1.3043   -2.5561   C.3       1 RES1   0.0000
     4 N1       -3.1562    0.0940   -2.9634   N.am      1 RES1   0.0000
     5 C3       -2.2223   -0.3366   -2.1286   C.2       1 RES1   0.0000
     6 O1       -1.9315    0.3345   -1.1104   O.2       1 RES1   0.0000
     7 C4       -1.5639   -1.6884   -2.2220   C.ar      1 RES1   0.0000
     8 C5       -2.2095   -2.8462   -2.6536   C.ar      1 RES1   0.0000
     9 C6       -1.6236   -4.0651   -2.3631   C.ar      1 RES1   0.0000
    10 C7       -0.4447   -4.1006   -1.6347   C.ar      1 RES1   0.0000
    11 C8        0.1859   -2.9093   -1.2981   C.ar      1 RES1   0.0000
    12 C9        1.3529   -2.7482   -0.3455   C.2       1 RES1   0.0000
    13 O2        1.2643   -1.7404    0.3750   O.2       1 RES1   0.0000
    14 N2        2.3473   -3.6428   -0.2395   N.am      1 RES1   0.0000
    15 C10       2.6372   -4.5985   -1.3100   C.3       1 RES1   0.0000
    16 C11       3.2751   -3.9062   -2.5105   C.3       1 RES1   0.0000
    17 C12       3.3068   -3.5518    0.8192   C.ar      1 RES1   0.0000
    18 C13       4.6016   -4.0290    0.6278   C.ar      1 RES1   0.0000
    19 C14       5.5219   -4.0407    1.6581   C.ar      1 RES1   0.0000
    20 C15       5.2035   -3.5402    2.9149   C.ar      1 RES1   0.0000
    21 C16       6.2100   -3.5393    4.0193   C.3       1 RES1   0.0000
    22 C17       3.9178   -3.0376    3.0970   C.ar      1 RES1   0.0000
    23 C18       2.9778   -3.0551    2.0827   C.ar      1 RES1   0.0000
    24 N3       -0.3800   -1.7284   -1.5991   N.ar      1 RES1   0.0000
    25 C19      -3.3731   -0.4780   -4.2377   C.ar      1 RES1   0.0000
    26 C20      -2.2924   -0.8903   -5.0089   C.ar      1 RES1   0.0000
    27 C21      -2.5075   -1.4428   -6.2571   C.ar      1 RES1   0.0000
    28 C22      -3.7904   -1.5781   -6.7807   C.ar      1 RES1   0.0000
    29 C23      -4.0193   -2.1864   -8.1244   C.3       1 RES1   0.0000
    30 C24      -4.8552   -1.1223   -6.0087   C.ar      1 RES1   0.0000
    31 C25      -4.6614   -0.5961   -4.7467   C.ar      1 RES1   0.0000
    32 H1       -5.3921    1.9332   -1.1517   H         1 RES1   0.0000
    33 H2       -4.2511    0.7862   -0.4738   H         1 RES1   0.0000
    34 H3       -5.5033    0.2301   -1.5957   H         1 RES1   0.0000
    35 H4       -3.1565    2.0721   -2.2697   H         1 RES1   0.0000
    36 H5       -4.4459    1.6583   -3.4196   H         1 RES1   0.0000
    37 H6       -3.1525   -2.7982   -3.1708   H         1 RES1   0.0000
    38 H7       -2.0947   -4.9872   -2.6581   H         1 RES1   0.0000
    39 H8       -0.0637   -5.0505   -1.3089   H         1 RES1   0.0000
    40 H9        1.7319   -5.1007   -1.6360   H         1 RES1   0.0000
    41 H10       3.2969   -5.3706   -0.9125   H         1 RES1   0.0000
    42 H11       2.5882   -3.1801   -2.9404   H         1 RES1   0.0000
    43 H12       3.5139   -4.6449   -3.2694   H         1 RES1   0.0000
    44 H13       4.1916   -3.3939   -2.2312   H         1 RES1   0.0000
    45 H14       4.9304   -4.3860   -0.3322   H         1 RES1   0.0000
    46 H15       6.5076   -4.4475    1.4831   H         1 RES1   0.0000
    47 H16       7.1313   -4.0195    3.7008   H         1 RES1   0.0000
    48 H17       5.8246   -4.0698    4.8887   H         1 RES1   0.0000
    49 H18       6.4365   -2.5176    4.3230   H         1 RES1   0.0000
    50 H19       3.6425   -2.6354    4.0635   H         1 RES1   0.0000
    51 H20       1.9932   -2.6674    2.2860   H         1 RES1   0.0000
    52 H21      -1.2866   -0.7606   -4.6365   H         1 RES1   0.0000
    53 H22      -1.6584   -1.7444   -6.8461   H         1 RES1   0.0000
    54 H23      -3.0899   -2.5326   -8.5654   H         1 RES1   0.0000
    55 H24      -4.4681   -1.4586   -8.7967   H         1 RES1   0.0000
    56 H25      -4.7035   -3.0296   -8.0482   H         1 RES1   0.0000
    57 H26      -5.8591   -1.1677   -6.3971   H         1 RES1   0.0000
    58 H27      -5.5088   -0.2859   -4.1578   H         1 RES1   0.0000
    59 C26      -0.7963   -2.3679    5.2369   C.3       1 RES1   0.0000
    60 C27      -2.0067   -1.5842    4.7396   C.3       1 RES1   0.0000
    61 N4       -2.0426   -1.5480    3.2817   N.am      1 RES1   0.0000
    62 C28      -1.1416   -0.9084    2.5342   C.2       1 RES1   0.0000
    63 O3       -1.1551   -1.0574    1.2905   O.2       1 RES1   0.0000
    64 C29      -0.0941    0.0638    3.0663   C.ar      1 RES1   0.0000
    65 C30      -0.0739    0.8000    4.2513   C.ar      1 RES1   0.0000
    66 C31       0.7979    1.8735    4.3388   C.ar      1 RES1   0.0000
    67 C32       1.6337    2.2057    3.2853   C.ar      1 RES1   0.0000
    68 C33       1.6591    1.3623    2.1753   C.ar      1 RES1   0.0000
    69 C34       2.4040    1.5071    0.8523   C.2       1 RES1   0.0000
    70 O4        1.9826    0.7695   -0.0688   O.2       1 RES1   0.0000
    71 N5        3.4022    2.3670    0.6264   N.am      1 RES1   0.0000
    72 C35       4.1504    3.0547    1.6749   C.3       1 RES1   0.0000
    73 C36       3.9460    4.5660    1.5995   C.3       1 RES1   0.0000
    74 C37       3.8495    2.5990   -0.7200   C.ar      1 RES1   0.0000
    75 C38       5.1785    2.9380   -0.9609   C.ar      1 RES1   0.0000
    76 C39       5.6332    3.1772   -2.2413   C.ar      1 RES1   0.0000
    77 C40       4.7922    3.0628   -3.3422   C.ar      1 RES1   0.0000
    78 C41       5.3171    3.2718   -4.7229   C.3       1 RES1   0.0000
    79 C42       3.4604    2.7378   -3.0997   C.ar      1 RES1   0.0000
    80 C43       2.9871    2.5273   -1.8196   C.ar      1 RES1   0.0000
    81 N6        0.8094    0.3320    2.1202   N.ar      1 RES1   0.0000
    82 C44      -3.0542   -2.3481    2.6568   C.ar      1 RES1   0.0000
    83 C45      -3.4704   -3.5216    3.2796   C.ar      1 RES1   0.0000
    84 C46      -4.5011   -4.2750    2.7561   C.ar      1 RES1   0.0000
    85 C47      -5.1193   -3.9159    1.5636   C.ar      1 RES1   0.0000
    86 C48      -6.2086   -4.7616    0.9937   C.3       1 RES1   0.0000
    87 C49      -4.6753   -2.7617    0.9245   C.ar      1 RES1   0.0000
    88 C50      -3.6757   -1.9741    1.4637   C.ar      1 RES1   0.0000
    89 H28      -0.8077   -2.4205    6.3212   H         1 RES1   0.0000
    90 H29       0.1407   -1.9183    4.9148   H         1 RES1   0.0000
    91 H30      -0.8354   -3.3838    4.8510   H         1 RES1   0.0000
    92 H31      -2.0297   -0.5666    5.1235   H         1 RES1   0.0000
    93 H32      -2.9215   -2.0568    5.1010   H         1 RES1   0.0000
    94 H33      -0.7106    0.6017    5.0924   H         1 RES1   0.0000
    95 H34       0.8021    2.4849    5.2268   H         1 RES1   0.0000
    96 H35       2.1986    3.1159    3.3474   H         1 RES1   0.0000
    97 H36       5.2124    2.8205    1.5659   H         1 RES1   0.0000
    98 H37       3.8593    2.6546    2.6403   H         1 RES1   0.0000
    99 H38       4.2765    4.9389    0.6332   H         1 RES1   0.0000
   100 H39       4.5293    5.0713    2.3661   H         1 RES1   0.0000
   101 H40       2.8970    4.8267    1.7275   H         1 RES1   0.0000
   102 H41       5.8930    3.0098   -0.1585   H         1 RES1   0.0000
   103 H42       6.6666    3.4544   -2.3907   H         1 RES1   0.0000
   104 H43       6.3657    3.5546   -4.6940   H         1 RES1   0.0000
   105 H44       4.7568    4.0533   -5.2329   H         1 RES1   0.0000
   106 H45       5.2222    2.3543   -5.3025   H         1 RES1   0.0000
   107 H46       2.7749    2.6522   -3.9324   H         1 RES1   0.0000
   108 H47       1.9372    2.3063   -1.7054   H         1 RES1   0.0000
   109 H48      -2.9845   -3.8750    4.1752   H         1 RES1   0.0000
   110 H49      -4.8349   -5.1601    3.2789   H         1 RES1   0.0000
   111 H50      -6.4414   -5.5852    1.6623   H         1 RES1   0.0000
   112 H51      -5.9017   -5.1697    0.0318   H         1 RES1   0.0000
   113 H52      -7.1095   -4.1713    0.8417   H         1 RES1   0.0000
   114 H53      -5.1396   -2.4687   -0.0083   H         1 RES1   0.0000
   115 H54      -3.3832   -1.0716    0.9491   H         1 RES1   0.0000
   116 N7       -1.0123    2.4616    0.0511   N.3       1 RES1   0.0000
   117 O5       -1.7101    3.4108   -0.0851   O.2       1 RES1   0.0000
   118 O6       -1.0710    1.7543    1.0722   O.co2     1 RES1   0.0000
   119 O7       -0.1631    2.1525   -0.8024   O.co2     1 RES1   0.0000
@<TRIPOS>BOND
     1     1     6    1
     2     1    13    1
     3     1    24    1
     4     1    63    1
     5     1    70    1
     6     1    81    1
     7     1   118    1
     8     1   119    1
     9     2     3    1
    10     2    32    1
    11     2    33    1
    12     2    34    1
    13     3     4    1
    14     3    35    1
    15     3    36    1
    16     4     5    1
    17     4    25    1
    18     5     6    2
    19     5     7    1
    20     7     8    1
    21     7    24    2
    22     8     9    2
    23     8    37    1
    24     9    10    1
    25     9    38    1
    26    10    11    2
    27    10    39    1
    28    11    12    1
    29    11    24    1
    30    12    13    2
    31    12    14    1
    32    14    15    1
    33    14    17    1
    34    15    16    1
    35    15    40    1
    36    15    41    1
    37    16    42    1
    38    16    43    1
    39    16    44    1
    40    17    18    1
    41    17    23    2
    42    18    19    2
    43    18    45    1
    44    19    20    1
    45    19    46    1
    46    20    21    1
    47    20    22    2
    48    21    47    1
    49    21    48    1
    50    21    49    1
    51    22    23    1
    52    22    50    1
    53    23    51    1
    54    25    26    1
    55    25    31    2
    56    26    27    2
    57    26    52    1
    58    27    28    1
    59    27    53    1
    60    28    29    1
    61    28    30    2
    62    29    54    1
    63    29    55    1
    64    29    56    1
    65    30    31    1
    66    30    57    1
    67    31    58    1
    68    59    60    1
    69    59    89    1
    70    59    90    1
    71    59    91    1
    72    60    61    1
    73    60    92    1
    74    60    93    1
    75    61    62    1
    76    61    82    1
    77    62    63    2
    78    62    64    1
    79    64    65    1
    80    64    81    2
    81    65    66    2
    82    65    94    1
    83    66    67    1
    84    66    95    1
    85    67    68    2
    86    67    96    1
    87    68    69    1
    88    68    81    1
    89    69    70    2
    90    69    71    1
    91    71    72    1
    92    71    74    1
    93    72    73    1
    94    72    97    1
    95    72    98    1
    96    73    99    1
    97    73   100    1
    98    73   101    1
    99    74    75    1
   100    74    80    2
   101    75    76    2
   102    75   102    1
   103    76    77    1
   104    76   103    1
   105    77    78    1
   106    77    79    2
   107    78   104    1
   108    78   105    1
   109    78   106    1
   110    79    80    1
   111    79   107    1
   112    80   108    1
   113    82    83    1
   114    82    88    2
   115    83    84    2
   116    83   109    1
   117    84    85    1
   118    84   110    1
   119    85    86    1
   120    85    87    2
   121    86   111    1
   122    86   112    1
   123    86   113    1
   124    87    88    1
   125    87   114    1
   126    88   115    1
   127   116   117    2
   128   116   118    1
   129   116   119    1
@<TRIPOS>SUBSTRUCTURE
     1 RES1      119 GROUP             0 ****  ****    0  
