@<TRIPOS>MOLECULE
ICIGOT_geomtry_0_nunpairedes_0_charge_3 Charge: 3 Unpaired_Electrons: 2 XTB_Unpaired_Electrons: 0 XTB_Charge: 3
   197   200     1     0     0
SMALL
NoCharges
****
Generated from Architector

@<TRIPOS>ATOM
     1 Tm1      -0.0758   -0.0290   -0.0555   Tm        1 RES1   0.0000
     2 C1       -0.4347   -4.4205    3.1212   C.3       1 RES1   0.0000
     3 C2       -0.4397   -3.4916    4.3310   C.3       1 RES1   0.0000
     4 C3        0.7936   -2.5875    4.2597   C.3       1 RES1   0.0000
     5 C4       -1.7580   -2.7205    4.5147   C.3       1 RES1   0.0000
     6 C5       -2.9620   -3.6491    4.7151   C.3       1 RES1   0.0000
     7 C6       -4.3134   -2.9259    4.7451   C.3       1 RES1   0.0000
     8 C7       -4.8601   -2.4931    3.3774   C.3       1 RES1   0.0000
     9 C8       -5.1867   -3.6994    2.4944   C.3       1 RES1   0.0000
    10 C9       -6.1482   -1.6752    3.5530   C.3       1 RES1   0.0000
    11 C10      -6.0238   -0.3406    4.2925   C.3       1 RES1   0.0000
    12 C11      -4.8253    0.5164    3.8850   C.3       1 RES1   0.0000
    13 C12      -4.8416    0.9040    2.3987   C.3       1 RES1   0.0000
    14 N1       -3.5318    1.3843    1.9789   N.am      1 RES1   0.0000
    15 C13      -2.9360    2.3443    2.8827   C.3       1 RES1   0.0000
    16 C14      -2.8256    0.9609    0.9498   C.2       1 RES1   0.0000
    17 O1       -1.6466    1.3477    0.7267   O.2       1 RES1   0.0000
    18 C15      -3.4380   -0.0202   -0.0642   C.3       1 RES1   0.0000
    19 O2       -2.3968   -0.3932   -0.9715   O.3       1 RES1   0.0000
    20 C16      -2.6022   -0.1201   -2.3593   C.3       1 RES1   0.0000
    21 C17      -1.2218    0.1590   -2.9732   C.2       1 RES1   0.0000
    22 O3       -0.2852    0.4849   -2.1977   O.2       1 RES1   0.0000
    23 N2       -1.0535   -0.0072   -4.2692   N.am      1 RES1   0.0000
    24 C18      -2.1092   -0.2650   -5.2231   C.3       1 RES1   0.0000
    25 C19       0.2944    0.0111   -4.8236   C.3       1 RES1   0.0000
    26 C20       0.7977    1.4177   -5.1469   C.3       1 RES1   0.0000
    27 C21       2.2550    1.3858   -5.6259   C.3       1 RES1   0.0000
    28 C22       3.2362    1.0250   -4.4961   C.3       1 RES1   0.0000
    29 C23       4.2434    2.0937   -4.0330   C.3       1 RES1   0.0000
    30 C24       5.2079    2.5269   -5.1330   C.3       1 RES1   0.0000
    31 C25       3.5822    3.2794   -3.3118   C.3       1 RES1   0.0000
    32 C26       2.9942    4.3713   -4.2076   C.3       1 RES1   0.0000
    33 C27       2.3748    5.5270   -3.4097   C.3       1 RES1   0.0000
    34 C28       0.8644    5.4089   -3.1815   C.3       1 RES1   0.0000
    35 C29       0.3300    6.7544   -2.6972   C.3       1 RES1   0.0000
    36 C30       0.4932    4.3072   -2.1862   C.3       1 RES1   0.0000
    37 H1        0.4359   -5.0643    3.1751   H         1 RES1   0.0000
    38 H2       -1.3027   -5.0690    3.1081   H         1 RES1   0.0000
    39 H3       -0.3830   -3.8611    2.1858   H         1 RES1   0.0000
    40 H4       -0.3266   -4.1158    5.2211   H         1 RES1   0.0000
    41 H5        0.7828   -1.9259    3.3877   H         1 RES1   0.0000
    42 H6        0.8987   -1.9949    5.1633   H         1 RES1   0.0000
    43 H7        1.6812   -3.2092    4.1843   H         1 RES1   0.0000
    44 H8       -1.6628   -2.0913    5.4026   H         1 RES1   0.0000
    45 H9       -1.9680   -2.0529    3.6648   H         1 RES1   0.0000
    46 H10      -2.9898   -4.4002    3.9282   H         1 RES1   0.0000
    47 H11      -2.8351   -4.1814    5.6594   H         1 RES1   0.0000
    48 H12      -5.0442   -3.6034    5.1890   H         1 RES1   0.0000
    49 H13      -4.2319   -2.0540    5.3972   H         1 RES1   0.0000
    50 H14      -4.1078   -1.8839    2.8571   H         1 RES1   0.0000
    51 H15      -5.9140   -4.3378    2.9904   H         1 RES1   0.0000
    52 H16      -5.6159   -3.3734    1.5473   H         1 RES1   0.0000
    53 H17      -4.3019   -4.2950    2.2804   H         1 RES1   0.0000
    54 H18      -6.5811   -1.4958    2.5682   H         1 RES1   0.0000
    55 H19      -6.8628   -2.2922    4.0988   H         1 RES1   0.0000
    56 H20      -6.9459    0.2225    4.1442   H         1 RES1   0.0000
    57 H21      -5.9421   -0.5274    5.3622   H         1 RES1   0.0000
    58 H22      -4.8352    1.4090    4.5103   H         1 RES1   0.0000
    59 H23      -3.9130   -0.0412    4.1005   H         1 RES1   0.0000
    60 H24      -5.1236    0.0414    1.8009   H         1 RES1   0.0000
    61 H25      -5.5842    1.6923    2.2471   H         1 RES1   0.0000
    62 H26      -3.6723    3.0952    3.1619   H         1 RES1   0.0000
    63 H27      -2.6029    1.8404    3.7845   H         1 RES1   0.0000
    64 H28      -2.0930    2.8134    2.3850   H         1 RES1   0.0000
    65 H29      -3.8072   -0.9419    0.4116   H         1 RES1   0.0000
    66 H30      -4.2665    0.4689   -0.5859   H         1 RES1   0.0000
    67 H31      -3.0515   -1.0093   -2.8203   H         1 RES1   0.0000
    68 H32      -3.2575    0.7481   -2.4887   H         1 RES1   0.0000
    69 H33      -3.0941   -0.2079   -4.7766   H         1 RES1   0.0000
    70 H34      -2.0665    0.4615   -6.0350   H         1 RES1   0.0000
    71 H35      -1.9845   -1.2510   -5.6732   H         1 RES1   0.0000
    72 H36       0.9473   -0.4669   -4.0897   H         1 RES1   0.0000
    73 H37       0.2900   -0.5780   -5.7411   H         1 RES1   0.0000
    74 H38       0.1714    1.8410   -5.9338   H         1 RES1   0.0000
    75 H39       0.7138    2.0498   -4.2612   H         1 RES1   0.0000
    76 H40       2.3391    0.6547   -6.4338   H         1 RES1   0.0000
    77 H41       2.5065    2.3564   -6.0509   H         1 RES1   0.0000
    78 H42       2.6507    0.7455   -3.6133   H         1 RES1   0.0000
    79 H43       3.8175    0.1532   -4.8037   H         1 RES1   0.0000
    80 H44       4.8467    1.5882   -3.2641   H         1 RES1   0.0000
    81 H45       4.6908    2.9883   -5.9681   H         1 RES1   0.0000
    82 H46       5.9247    3.2437   -4.7371   H         1 RES1   0.0000
    83 H47       5.7592    1.6672   -5.5077   H         1 RES1   0.0000
    84 H48       2.8204    2.8779   -2.6345   H         1 RES1   0.0000
    85 H49       4.3476    3.7634   -2.6977   H         1 RES1   0.0000
    86 H50       3.8084    4.7676   -4.8168   H         1 RES1   0.0000
    87 H51       2.2352    3.9743   -4.8825   H         1 RES1   0.0000
    88 H52       2.8826    5.6362   -2.4479   H         1 RES1   0.0000
    89 H53       2.5429    6.4465   -3.9729   H         1 RES1   0.0000
    90 H54       0.3982    5.1804   -4.1450   H         1 RES1   0.0000
    91 H55       0.7200    6.9818   -1.7070   H         1 RES1   0.0000
    92 H56       0.6345    7.5469   -3.3752   H         1 RES1   0.0000
    93 H57      -0.7538    6.7510   -2.6525   H         1 RES1   0.0000
    94 H58       0.9665    4.5037   -1.2239   H         1 RES1   0.0000
    95 H59      -0.5871    4.2818   -2.0503   H         1 RES1   0.0000
    96 H60       0.8043    3.3213   -2.5308   H         1 RES1   0.0000
    97 C31      -2.7822    6.2214   -0.9202   C.3       1 RES1   0.0000
    98 C32      -3.7417    5.5287    0.0388   C.3       1 RES1   0.0000
    99 C33      -4.1540    4.1696   -0.5307   C.3       1 RES1   0.0000
   100 C34      -3.1017    5.3304    1.4154   C.3       1 RES1   0.0000
   101 C35      -2.7395    6.6202    2.1515   C.3       1 RES1   0.0000
   102 C36      -2.1326    6.3778    3.5426   C.3       1 RES1   0.0000
   103 C37      -0.7027    5.8181    3.5688   C.3       1 RES1   0.0000
   104 C38       0.2506    6.6527    2.7109   C.3       1 RES1   0.0000
   105 C39      -0.1496    5.8087    5.0042   C.3       1 RES1   0.0000
   106 C40      -0.6970    4.7678    5.9824   C.3       1 RES1   0.0000
   107 C41      -0.7737    3.3394    5.4361   C.3       1 RES1   0.0000
   108 C42       0.5363    2.8139    4.8221   C.3       1 RES1   0.0000
   109 N3        0.3199    1.5713    4.0806   N.am      1 RES1   0.0000
   110 C43      -0.3090    0.5256    4.8678   C.3       1 RES1   0.0000
   111 C44       0.6149    1.3285    2.8171   C.2       1 RES1   0.0000
   112 O4        0.3315    0.2355    2.2486   O.2       1 RES1   0.0000
   113 C45       1.3436    2.3585    1.9352   C.3       1 RES1   0.0000
   114 O5        1.7153    1.7143    0.7080   O.3       1 RES1   0.0000
   115 C46       3.0597    1.2019    0.6874   C.3       1 RES1   0.0000
   116 C47       3.1019    0.0461   -0.3239   C.2       1 RES1   0.0000
   117 O6        2.0124   -0.5119   -0.6243   O.2       1 RES1   0.0000
   118 N4        4.2373   -0.3287   -0.8750   N.am      1 RES1   0.0000
   119 C48       5.5543    0.0960   -0.4624   C.3       1 RES1   0.0000
   120 C49       4.2146   -1.2145   -2.0377   C.3       1 RES1   0.0000
   121 C50       4.2533   -2.7077   -1.7109   C.3       1 RES1   0.0000
   122 C51       4.0928   -3.5648   -2.9777   C.3       1 RES1   0.0000
   123 C52       2.6901   -3.5223   -3.6118   C.3       1 RES1   0.0000
   124 C53       1.8497   -4.8161   -3.5981   C.3       1 RES1   0.0000
   125 C54       2.3908   -5.8786   -4.5526   C.3       1 RES1   0.0000
   126 C55       1.5665   -5.3890   -2.1953   C.3       1 RES1   0.0000
   127 C56       2.5777   -6.3939   -1.6305   C.3       1 RES1   0.0000
   128 C57       2.1257   -6.9884   -0.2875   C.3       1 RES1   0.0000
   129 C58       2.6485   -6.2544    0.9506   C.3       1 RES1   0.0000
   130 C59       2.1671   -6.9761    2.2054   C.3       1 RES1   0.0000
   131 C60       2.2225   -4.7876    0.9743   C.3       1 RES1   0.0000
   132 H61      -3.2081    6.2630   -1.9202   H         1 RES1   0.0000
   133 H62      -2.5789    7.2388   -0.6001   H         1 RES1   0.0000
   134 H63      -1.8422    5.6729   -0.9576   H         1 RES1   0.0000
   135 H64      -4.6398    6.1405    0.1545   H         1 RES1   0.0000
   136 H65      -3.2841    3.5147   -0.6239   H         1 RES1   0.0000
   137 H66      -4.8895    3.6826    0.1078   H         1 RES1   0.0000
   138 H67      -4.5960    4.2995   -1.5143   H         1 RES1   0.0000
   139 H68      -3.8165    4.7888    2.0389   H         1 RES1   0.0000
   140 H69      -2.2044    4.7140    1.2906   H         1 RES1   0.0000
   141 H70      -2.0536    7.2222    1.5566   H         1 RES1   0.0000
   142 H71      -3.6512    7.2068    2.2864   H         1 RES1   0.0000
   143 H72      -2.1227    7.3357    4.0658   H         1 RES1   0.0000
   144 H73      -2.7880    5.7032    4.1039   H         1 RES1   0.0000
   145 H74      -0.7164    4.7964    3.1666   H         1 RES1   0.0000
   146 H75       0.2463    7.6884    3.0420   H         1 RES1   0.0000
   147 H76       1.2703    6.2785    2.7997   H         1 RES1   0.0000
   148 H77      -0.0280    6.6205    1.6611   H         1 RES1   0.0000
   149 H78       0.9309    5.6806    4.9505   H         1 RES1   0.0000
   150 H79      -0.3222    6.7952    5.4362   H         1 RES1   0.0000
   151 H80      -0.0788    4.7925    6.8812   H         1 RES1   0.0000
   152 H81      -1.7074    5.0414    6.2869   H         1 RES1   0.0000
   153 H82      -1.0878    2.6931    6.2567   H         1 RES1   0.0000
   154 H83      -1.5451    3.3351    4.6718   H         1 RES1   0.0000
   155 H84       0.9501    3.5658    4.1552   H         1 RES1   0.0000
   156 H85       1.2460    2.6106    5.6299   H         1 RES1   0.0000
   157 H86       0.3156    0.2830    5.7283   H         1 RES1   0.0000
   158 H87      -1.2798    0.8467    5.2361   H         1 RES1   0.0000
   159 H88      -0.4428   -0.3443    4.2384   H         1 RES1   0.0000
   160 H89       0.6559    3.1706    1.6563   H         1 RES1   0.0000
   161 H90       2.2217    2.7819    2.4349   H         1 RES1   0.0000
   162 H91       3.7387    2.0089    0.3768   H         1 RES1   0.0000
   163 H92       3.3300    0.8339    1.6868   H         1 RES1   0.0000
   164 H93       5.5249    0.7052    0.4332   H         1 RES1   0.0000
   165 H94       6.1614   -0.7868   -0.2546   H         1 RES1   0.0000
   166 H95       6.0477    0.6542   -1.2607   H         1 RES1   0.0000
   167 H96       3.2940   -0.9960   -2.5788   H         1 RES1   0.0000
   168 H97       5.0685   -0.9476   -2.6635   H         1 RES1   0.0000
   169 H98       5.2081   -2.9617   -1.2470   H         1 RES1   0.0000
   170 H99       3.4560   -2.9308   -0.9983   H         1 RES1   0.0000
   171 H100      4.8257   -3.2183   -3.7076   H         1 RES1   0.0000
   172 H101      4.3550   -4.5934   -2.7348   H         1 RES1   0.0000
   173 H102      2.1063   -2.7288   -3.1260   H         1 RES1   0.0000
   174 H103      2.7890   -3.2389   -4.6612   H         1 RES1   0.0000
   175 H104      0.8722   -4.5071   -3.9952   H         1 RES1   0.0000
   176 H105      3.3923   -6.1959   -4.2790   H         1 RES1   0.0000
   177 H106      1.7348   -6.7473   -4.5429   H         1 RES1   0.0000
   178 H107      2.4222   -5.4940   -5.5691   H         1 RES1   0.0000
   179 H108      1.4422   -4.5543   -1.4989   H         1 RES1   0.0000
   180 H109      0.6135   -5.9246   -2.2498   H         1 RES1   0.0000
   181 H110      2.6701   -7.2076   -2.3502   H         1 RES1   0.0000
   182 H111      3.5663   -5.9498   -1.5011   H         1 RES1   0.0000
   183 H112      1.0332   -7.0299   -0.2502   H         1 RES1   0.0000
   184 H113      2.4886   -8.0155   -0.2356   H         1 RES1   0.0000
   185 H114      3.7408   -6.2921    0.9272   H         1 RES1   0.0000
   186 H115      1.0800   -7.0242    2.2242   H         1 RES1   0.0000
   187 H116      2.5483   -7.9925    2.2303   H         1 RES1   0.0000
   188 H117      2.5136   -6.4650    3.1003   H         1 RES1   0.0000
   189 H118      1.1498   -4.7045    0.8067   H         1 RES1   0.0000
   190 H119      2.4712   -4.3369    1.9321   H         1 RES1   0.0000
   191 H120      2.7448   -4.2301    0.2032   H         1 RES1   0.0000
   192 O7       -1.3056   -1.7699    1.2288   O.3       1 RES1   0.0000
   193 H121     -1.2174   -1.7975    2.2076   H         1 RES1   0.0000
   194 H122     -1.5047   -2.6911    0.9869   H         1 RES1   0.0000
   195 O8       -0.0481   -2.2758   -1.3085   O.3       1 RES1   0.0000
   196 H123     -0.6206   -2.9890   -1.6294   H         1 RES1   0.0000
   197 H124      0.8573   -2.5642   -1.5275   H         1 RES1   0.0000
@<TRIPOS>BOND
     1     1    17    1
     2     1    19    1
     3     1    22    1
     4     1   112    1
     5     1   114    1
     6     1   117    1
     7     1   192    1
     8     1   195    1
     9     2     3    1
    10     2    37    1
    11     2    38    1
    12     2    39    1
    13     3     4    1
    14     3     5    1
    15     3    40    1
    16     4    41    1
    17     4    42    1
    18     4    43    1
    19     5     6    1
    20     5    44    1
    21     5    45    1
    22     6     7    1
    23     6    46    1
    24     6    47    1
    25     7     8    1
    26     7    48    1
    27     7    49    1
    28     8     9    1
    29     8    10    1
    30     8    50    1
    31     9    51    1
    32     9    52    1
    33     9    53    1
    34    10    11    1
    35    10    54    1
    36    10    55    1
    37    11    12    1
    38    11    56    1
    39    11    57    1
    40    12    13    1
    41    12    58    1
    42    12    59    1
    43    13    14    1
    44    13    60    1
    45    13    61    1
    46    14    15    1
    47    14    16    1
    48    15    62    1
    49    15    63    1
    50    15    64    1
    51    16    17    2
    52    16    18    1
    53    18    19    1
    54    18    65    1
    55    18    66    1
    56    19    20    1
    57    20    21    1
    58    20    67    1
    59    20    68    1
    60    21    22    2
    61    21    23    1
    62    23    24    1
    63    23    25    1
    64    24    69    1
    65    24    70    1
    66    24    71    1
    67    25    26    1
    68    25    72    1
    69    25    73    1
    70    26    27    1
    71    26    74    1
    72    26    75    1
    73    27    28    1
    74    27    76    1
    75    27    77    1
    76    28    29    1
    77    28    78    1
    78    28    79    1
    79    29    30    1
    80    29    31    1
    81    29    80    1
    82    30    81    1
    83    30    82    1
    84    30    83    1
    85    31    32    1
    86    31    84    1
    87    31    85    1
    88    32    33    1
    89    32    86    1
    90    32    87    1
    91    33    34    1
    92    33    88    1
    93    33    89    1
    94    34    35    1
    95    34    36    1
    96    34    90    1
    97    35    91    1
    98    35    92    1
    99    35    93    1
   100    36    94    1
   101    36    95    1
   102    36    96    1
   103    97    98    1
   104    97   132    1
   105    97   133    1
   106    97   134    1
   107    98    99    1
   108    98   100    1
   109    98   135    1
   110    99   136    1
   111    99   137    1
   112    99   138    1
   113   100   101    1
   114   100   139    1
   115   100   140    1
   116   101   102    1
   117   101   141    1
   118   101   142    1
   119   102   103    1
   120   102   143    1
   121   102   144    1
   122   103   104    1
   123   103   105    1
   124   103   145    1
   125   104   146    1
   126   104   147    1
   127   104   148    1
   128   105   106    1
   129   105   149    1
   130   105   150    1
   131   106   107    1
   132   106   151    1
   133   106   152    1
   134   107   108    1
   135   107   153    1
   136   107   154    1
   137   108   109    1
   138   108   155    1
   139   108   156    1
   140   109   110    1
   141   109   111    1
   142   110   157    1
   143   110   158    1
   144   110   159    1
   145   111   112    2
   146   111   113    1
   147   113   114    1
   148   113   160    1
   149   113   161    1
   150   114   115    1
   151   115   116    1
   152   115   162    1
   153   115   163    1
   154   116   117    2
   155   116   118    1
   156   118   119    1
   157   118   120    1
   158   119   164    1
   159   119   165    1
   160   119   166    1
   161   120   121    1
   162   120   167    1
   163   120   168    1
   164   121   122    1
   165   121   169    1
   166   121   170    1
   167   122   123    1
   168   122   171    1
   169   122   172    1
   170   123   124    1
   171   123   173    1
   172   123   174    1
   173   124   125    1
   174   124   126    1
   175   124   175    1
   176   125   176    1
   177   125   177    1
   178   125   178    1
   179   126   127    1
   180   126   179    1
   181   126   180    1
   182   127   128    1
   183   127   181    1
   184   127   182    1
   185   128   129    1
   186   128   183    1
   187   128   184    1
   188   129   130    1
   189   129   131    1
   190   129   185    1
   191   130   186    1
   192   130   187    1
   193   130   188    1
   194   131   189    1
   195   131   190    1
   196   131   191    1
   197   192   193    1
   198   192   194    1
   199   195   196    1
   200   195   197    1
@<TRIPOS>SUBSTRUCTURE
     1 RES1      197 GROUP             0 ****  ****    0  
