@<TRIPOS>MOLECULE
ICIGOT_geomtry_0_nunpairedes_0_charge_3 Charge: 3 Unpaired_Electrons: 2 XTB_Unpaired_Electrons: 0 XTB_Charge: 3
    65    73     1     0     0
SMALL
NoCharges
****
Generated from Architector

@<TRIPOS>ATOM
     1 Tm1       2.9316   -0.6706    0.7846   Tm        1 RES1   0.0000
     2 C1        3.8384   -2.6363    3.6524   C.3       1 RES1   0.0000
     3 C2        2.4070   -2.6847    3.0840   C.3       1 RES1   0.0000
     4 C3        1.4155   -1.7375    3.8029   C.3       1 RES1   0.0000
     5 C4        1.5914   -0.2923    3.4231   C.ar      1 RES1   0.0000
     6 N1        2.7722   -0.0176    2.8965   N.ar      1 RES1   0.0000
     7 N2        3.0406    1.1203    2.2547   N.ar      1 RES1   0.0000
     8 C5        1.9907    1.9401    2.0383   C.ar      1 RES1   0.0000
     9 C6        2.1246    2.6138    0.7004   C.ar      1 RES1   0.0000
    10 C7        2.2397    3.9185    0.2459   C.ar      1 RES1   0.0000
    11 C8        2.3768    4.1197   -1.1294   C.ar      1 RES1   0.0000
    12 C9        2.3655    3.0455   -2.0146   C.ar      1 RES1   0.0000
    13 C10       2.2923    1.7736   -1.4722   C.ar      1 RES1   0.0000
    14 C11       2.2969    0.4618   -2.1540   C.ar      1 RES1   0.0000
    15 N3        2.8073   -0.5109   -1.3700   N.ar      1 RES1   0.0000
    16 N4        2.4936   -1.7907   -1.6414   N.ar      1 RES1   0.0000
    17 C12       1.8677   -2.0939   -2.7651   C.ar      1 RES1   0.0000
    18 C13       1.5459   -3.5125   -3.0521   C.3       1 RES1   0.0000
    19 C14       2.3350   -4.5392   -2.2252   C.3       1 RES1   0.0000
    20 C15       3.8397   -4.3663   -2.3880   C.3       1 RES1   0.0000
    21 C16       1.5226   -1.0325   -3.6909   C.ar      1 RES1   0.0000
    22 C17       0.8748   -1.2345   -4.9874   C.3       1 RES1   0.0000
    23 C18       1.8802   -1.1600   -6.1875   C.3       1 RES1   0.0000
    24 C19       1.0933   -1.3949   -7.4604   C.3       1 RES1   0.0000
    25 N5        1.7123    0.2259   -3.3023   N.ar      1 RES1   0.0000
    26 N6        2.1939    1.5718   -0.1456   N.ar      1 RES1   0.0000
    27 N7        0.8523    1.8172    2.6890   N.ar      1 RES1   0.0000
    28 C20       0.6216    0.7759    3.4870   C.ar      1 RES1   0.0000
    29 C21      -0.5909    0.7403    4.3035   C.3       1 RES1   0.0000
    30 C22      -0.4939    1.6485    5.5735   C.3       1 RES1   0.0000
    31 C23       0.6494    1.2192    6.4696   C.3       1 RES1   0.0000
    32 H1        4.4681   -3.4072    3.2036   H         1 RES1   0.0000
    33 H2        3.8009   -2.8575    4.7201   H         1 RES1   0.0000
    34 H3        4.3176   -1.6559    3.5433   H         1 RES1   0.0000
    35 H4        2.0443   -3.7051    3.2287   H         1 RES1   0.0000
    36 H5        2.3840   -2.5095    1.9340   H         1 RES1   0.0000
    37 H6        1.5807   -1.8608    4.8813   H         1 RES1   0.0000
    38 H7        0.3870   -2.0505    3.5972   H         1 RES1   0.0000
    39 H8        2.2451    4.7564    0.9251   H         1 RES1   0.0000
    40 H9        2.5059    5.1227   -1.5132   H         1 RES1   0.0000
    41 H10       2.4595    3.1793   -3.0826   H         1 RES1   0.0000
    42 H11       0.4683   -3.6558   -2.9066   H         1 RES1   0.0000
    43 H12       1.7210   -3.6817   -4.1186   H         1 RES1   0.0000
    44 H13       2.0498   -5.5275   -2.5892   H         1 RES1   0.0000
    45 H14       2.0521   -4.4820   -1.1681   H         1 RES1   0.0000
    46 H15       4.1223   -4.5219   -3.4248   H         1 RES1   0.0000
    47 H16       4.3657   -5.0923   -1.7773   H         1 RES1   0.0000
    48 H17       4.1562   -3.3698   -2.0803   H         1 RES1   0.0000
    49 H18       0.1887   -0.3988   -5.1472   H         1 RES1   0.0000
    50 H19       0.3469   -2.1866   -5.0590   H         1 RES1   0.0000
    51 H20       2.6571   -1.9157   -6.0740   H         1 RES1   0.0000
    52 H21       2.3582   -0.1805   -6.1852   H         1 RES1   0.0000
    53 H22       0.6611   -2.3926   -7.4762   H         1 RES1   0.0000
    54 H23       1.7533   -1.3079   -8.3215   H         1 RES1   0.0000
    55 H24       0.2945   -0.6661   -7.5671   H         1 RES1   0.0000
    56 H25      -0.8149   -0.2725    4.6306   H         1 RES1   0.0000
    57 H26      -1.4191    1.1614    3.7348   H         1 RES1   0.0000
    58 H27      -1.4431    1.5534    6.1043   H         1 RES1   0.0000
    59 H28      -0.3825    2.6827    5.2512   H         1 RES1   0.0000
    60 H29       0.5436    0.1759    6.7594   H         1 RES1   0.0000
    61 H30       0.6272    1.8098    7.3826   H         1 RES1   0.0000
    62 H31       1.6148    1.3659    5.9840   H         1 RES1   0.0000
    63 O1        0.3549   -0.7154    0.8437   O.3       1 RES1   0.0000
    64 H32      -0.2628   -1.4689    0.8425   H         1 RES1   0.0000
    65 H33      -0.2451    0.0524    0.7926   H         1 RES1   0.0000
@<TRIPOS>BOND
     1     1     6    1
     2     1     7    1
     3     1    15    1
     4     1    16    1
     5     1    25    1
     6     1    26    1
     7     1    27    1
     8     1    63    1
     9     2     3    1
    10     2    32    1
    11     2    33    1
    12     2    34    1
    13     3     4    1
    14     3    35    1
    15     3    36    1
    16     4     5    1
    17     4    37    1
    18     4    38    1
    19     5     6    1
    20     5    28    2
    21     6     7    2
    22     7     8    1
    23     8     9    1
    24     8    27    2
    25     9    10    1
    26     9    26    2
    27    10    11    2
    28    10    39    1
    29    11    12    1
    30    11    40    1
    31    12    13    2
    32    12    41    1
    33    13    14    1
    34    13    26    1
    35    14    15    1
    36    14    25    2
    37    15    16    2
    38    16    17    1
    39    17    18    1
    40    17    21    2
    41    18    19    1
    42    18    42    1
    43    18    43    1
    44    19    20    1
    45    19    44    1
    46    19    45    1
    47    20    46    1
    48    20    47    1
    49    20    48    1
    50    21    22    1
    51    21    25    1
    52    22    23    1
    53    22    49    1
    54    22    50    1
    55    23    24    1
    56    23    51    1
    57    23    52    1
    58    24    53    1
    59    24    54    1
    60    24    55    1
    61    27    28    1
    62    28    29    1
    63    29    30    1
    64    29    56    1
    65    29    57    1
    66    30    31    1
    67    30    58    1
    68    30    59    1
    69    31    60    1
    70    31    61    1
    71    31    62    1
    72    63    64    1
    73    63    65    1
@<TRIPOS>SUBSTRUCTURE
     1 RES1       65 GROUP             0 ****  ****    0  
