@<TRIPOS>MOLECULE
ICIGOT_geomtry_0_nunpairedes_0_charge_3 Charge: 3 Unpaired_Electrons: 2 XTB_Unpaired_Electrons: 0 XTB_Charge: 3
   149   164     1     0     0
SMALL
NoCharges
****
Generated from Architector

@<TRIPOS>ATOM
     1 Tm1      -0.2491    0.2309    0.1273   Tm        1 RES1   0.0000
     2 C1        0.0260    8.4308    2.9207   C.3       1 RES1   0.0000
     3 C2        1.4315    7.9352    2.5651   C.3       1 RES1   0.0000
     4 C3        1.3763    6.9024    1.4887   C.ar      1 RES1   0.0000
     5 C4        0.7553    5.6848    1.7404   C.ar      1 RES1   0.0000
     6 C5        0.6207    4.7327    0.7607   C.ar      1 RES1   0.0000
     7 C6        1.0875    4.9531   -0.5356   C.ar      1 RES1   0.0000
     8 N1        0.7161    4.0610   -1.5823   N.am      1 RES1   0.0000
     9 C7        1.0324    4.4837   -2.9494   C.3       1 RES1   0.0000
    10 C8        0.1408    5.6061   -3.4721   C.3       1 RES1   0.0000
    11 C9        0.1801    2.8513   -1.3051   C.2       1 RES1   0.0000
    12 O1        0.5181    2.2142   -0.2670   O.2       1 RES1   0.0000
    13 C10      -0.8284    2.1682   -2.1733   C.ar      1 RES1   0.0000
    14 C11      -1.1364    2.4591   -3.5043   C.ar      1 RES1   0.0000
    15 C12      -1.5733    1.4158   -4.2808   C.ar      1 RES1   0.0000
    16 C13      -1.7693    0.1568   -3.7231   C.ar      1 RES1   0.0000
    17 C14      -1.9400   -0.9613   -4.6349   C.ar      1 RES1   0.0000
    18 C15      -2.6098   -2.7352   -3.6421   C.ar      1 RES1   0.0000
    19 C16      -2.4916   -2.4871   -2.1966   C.ar      1 RES1   0.0000
    20 C17      -2.6607   -3.6083   -1.3842   C.ar      1 RES1   0.0000
    21 C18      -2.5248   -3.5324   -0.0187   C.ar      1 RES1   0.0000
    22 C19      -2.2062   -2.2845    0.5142   C.ar      1 RES1   0.0000
    23 C20      -1.6855   -2.1405    1.9084   C.2       1 RES1   0.0000
    24 O2       -0.7101   -1.3651    2.0341   O.2       1 RES1   0.0000
    25 N2       -2.1085   -2.9098    2.9051   N.am      1 RES1   0.0000
    26 C21      -1.3490   -2.8689    4.1552   C.3       1 RES1   0.0000
    27 C22      -0.0137   -3.5986    4.0431   C.3       1 RES1   0.0000
    28 C23      -3.2807   -3.7083    2.8495   C.ar      1 RES1   0.0000
    29 C24      -4.4363   -3.2207    2.2420   C.ar      1 RES1   0.0000
    30 C25      -5.5649   -4.0111    2.1737   C.ar      1 RES1   0.0000
    31 C26      -5.5901   -5.2809    2.7495   C.ar      1 RES1   0.0000
    32 C27      -6.8621   -6.0637    2.7807   C.3       1 RES1   0.0000
    33 C28      -7.8969   -5.3515    3.6583   C.3       1 RES1   0.0000
    34 C29      -4.4324   -5.7542    3.3584   C.ar      1 RES1   0.0000
    35 C30      -3.2868   -4.9822    3.4107   C.ar      1 RES1   0.0000
    36 N3       -2.0397   -1.1966   -0.2562   N.ar      1 RES1   0.0000
    37 C31      -2.1864   -1.2461   -1.5942   C.ar      1 RES1   0.0000
    38 C32      -1.8427    0.0400   -2.3231   C.ar      1 RES1   0.0000
    39 N4       -1.3512    1.0571   -1.5997   N.ar      1 RES1   0.0000
    40 C33       1.7845    6.1410   -0.7734   C.ar      1 RES1   0.0000
    41 C34       1.9109    7.0946    0.2214   C.ar      1 RES1   0.0000
    42 H1        0.0900    9.1768    3.7068   H         1 RES1   0.0000
    43 H2       -0.6052    7.6156    3.2698   H         1 RES1   0.0000
    44 H3       -0.4507    8.8826    2.0548   H         1 RES1   0.0000
    45 H4        1.8834    7.4936    3.4561   H         1 RES1   0.0000
    46 H5        2.0458    8.7783    2.2533   H         1 RES1   0.0000
    47 H6        0.3593    5.4872    2.7228   H         1 RES1   0.0000
    48 H7        0.1268    3.8130    1.0074   H         1 RES1   0.0000
    49 H8        1.0107    3.6016   -3.5908   H         1 RES1   0.0000
    50 H9        2.0708    4.8289   -2.9493   H         1 RES1   0.0000
    51 H10      -0.9105    5.3317   -3.4523   H         1 RES1   0.0000
    52 H11       0.4279    5.8483   -4.4921   H         1 RES1   0.0000
    53 H12       0.2551    6.5035   -2.8711   H         1 RES1   0.0000
    54 H13      -0.9823    3.4115   -3.9671   H         1 RES1   0.0000
    55 H14      -1.6976    1.5498   -5.3434   H         1 RES1   0.0000
    56 H15      -1.8057   -0.6350   -5.6670   H         1 RES1   0.0000
    57 H16      -3.0337   -3.7188   -3.8326   H         1 RES1   0.0000
    58 H17      -2.8917   -4.5532   -1.8509   H         1 RES1   0.0000
    59 H18      -2.6219   -4.4172    0.5911   H         1 RES1   0.0000
    60 H19      -1.9677   -3.3114    4.9348   H         1 RES1   0.0000
    61 H20      -1.1731   -1.8161    4.3933   H         1 RES1   0.0000
    62 H21      -0.1532   -4.6680    3.9091   H         1 RES1   0.0000
    63 H22       0.5509   -3.4435    4.9574   H         1 RES1   0.0000
    64 H23       0.5587   -3.2084    3.2040   H         1 RES1   0.0000
    65 H24      -4.4486   -2.2143    1.8488   H         1 RES1   0.0000
    66 H25      -6.4490   -3.6348    1.6815   H         1 RES1   0.0000
    67 H26      -6.6800   -7.0619    3.1774   H         1 RES1   0.0000
    68 H27      -7.2630   -6.1622    1.7707   H         1 RES1   0.0000
    69 H28      -7.5121   -5.2139    4.6658   H         1 RES1   0.0000
    70 H29      -8.8059   -5.9422    3.7135   H         1 RES1   0.0000
    71 H30      -8.1466   -4.3744    3.2529   H         1 RES1   0.0000
    72 H31      -4.4258   -6.7420    3.7940   H         1 RES1   0.0000
    73 H32      -2.4015   -5.3751    3.8841   H         1 RES1   0.0000
    74 H33       2.2284    6.3672   -1.7273   H         1 RES1   0.0000
    75 H34       2.4297    8.0136   -0.0002   H         1 RES1   0.0000
    76 C35      -5.8742    6.2682    0.4938   C.3       1 RES1   0.0000
    77 C36      -4.5789    6.7439    1.1537   C.3       1 RES1   0.0000
    78 C37      -3.7590    5.6216    1.7068   C.ar      1 RES1   0.0000
    79 C38      -3.1955    4.6558    0.8785   C.ar      1 RES1   0.0000
    80 C39      -2.3409    3.6867    1.3649   C.ar      1 RES1   0.0000
    81 C40      -1.9871    3.6554    2.7184   C.ar      1 RES1   0.0000
    82 N5       -0.9065    2.8522    3.2213   N.am      1 RES1   0.0000
    83 C41      -0.3204    3.2688    4.4899   C.3       1 RES1   0.0000
    84 C42      -0.9737    2.5021    5.6403   C.3       1 RES1   0.0000
    85 C43      -0.4905    1.7505    2.5867   C.2       1 RES1   0.0000
    86 O3       -1.1958    1.2513    1.6733   O.2       1 RES1   0.0000
    87 C44       0.7986    0.9677    2.8711   C.ar      1 RES1   0.0000
    88 C45       1.4366    0.7153    4.0981   C.ar      1 RES1   0.0000
    89 C46       2.3912   -0.2771    4.1671   C.ar      1 RES1   0.0000
    90 C47       2.6414   -1.1140    3.0654   C.ar      1 RES1   0.0000
    91 C48       3.4241   -2.3007    3.1700   C.ar      1 RES1   0.0000
    92 C49       3.4667   -3.1850    2.1457   C.ar      1 RES1   0.0000
    93 C50       2.7369   -2.9496    0.9436   C.ar      1 RES1   0.0000
    94 C51       2.6202   -3.9273   -0.0531   C.ar      1 RES1   0.0000
    95 C52       1.8667   -3.7044   -1.1829   C.ar      1 RES1   0.0000
    96 C53       1.2424   -2.4613   -1.3665   C.ar      1 RES1   0.0000
    97 C54       0.4747   -1.9113   -2.5941   C.2       1 RES1   0.0000
    98 O4        0.3557   -0.6804   -2.5430   O.2       1 RES1   0.0000
    99 N6       -0.0301   -2.6569   -3.6229   N.am      1 RES1   0.0000
   100 C55       0.7447   -3.8331   -4.0418   C.3       1 RES1   0.0000
   101 C56       0.0568   -5.1669   -3.7771   C.3       1 RES1   0.0000
   102 C57      -1.2922   -2.3722   -4.3992   C.ar      1 RES1   0.0000
   103 C58      -3.3424   -1.5610   -4.3144   C.ar      1 RES1   0.0000
   104 C59      -4.1447   -1.8309   -5.5128   C.ar      1 RES1   0.0000
   105 C60      -3.6187   -2.3396   -6.6372   C.ar      1 RES1   0.0000
   106 C61      -4.4707   -2.2707   -7.8693   C.3       1 RES1   0.0000
   107 C62      -4.6608   -0.8034   -8.2777   C.3       1 RES1   0.0000
   108 C63      -2.2919   -2.9212   -6.6964   C.ar      1 RES1   0.0000
   109 C64      -1.3217   -3.0014   -5.7700   C.ar      1 RES1   0.0000
   110 N7        1.3044   -1.5351   -0.3883   N.ar      1 RES1   0.0000
   111 C65       2.0181   -1.7438    0.7414   C.ar      1 RES1   0.0000
   112 C66       1.9821   -0.7916    1.8532   C.ar      1 RES1   0.0000
   113 N8        1.1799    0.2827    1.7853   N.ar      1 RES1   0.0000
   114 C67      -2.6526    4.5427    3.5681   C.ar      1 RES1   0.0000
   115 C68      -3.5174    5.4978    3.0698   C.ar      1 RES1   0.0000
   116 H35      -6.4359    7.1256    0.1355   H         1 RES1   0.0000
   117 H36      -6.4901    5.7281    1.2074   H         1 RES1   0.0000
   118 H37      -5.6703    5.6169   -0.3519   H         1 RES1   0.0000
   119 H38      -4.8223    7.4467    1.9504   H         1 RES1   0.0000
   120 H39      -3.9805    7.2739    0.4078   H         1 RES1   0.0000
   121 H40      -3.4224    4.6656   -0.1771   H         1 RES1   0.0000
   122 H41      -1.9497    2.9676    0.6589   H         1 RES1   0.0000
   123 H42      -0.4819    4.3394    4.6141   H         1 RES1   0.0000
   124 H43       0.7582    3.1159    4.4522   H         1 RES1   0.0000
   125 H44      -2.0287    2.7505    5.7213   H         1 RES1   0.0000
   126 H45      -0.4951    2.7549    6.5815   H         1 RES1   0.0000
   127 H46      -0.9120    1.4277    5.4823   H         1 RES1   0.0000
   128 H47       1.1882    1.2404    5.0035   H         1 RES1   0.0000
   129 H48       2.8950   -0.4704    5.1036   H         1 RES1   0.0000
   130 H49       3.9408   -2.5001    4.0959   H         1 RES1   0.0000
   131 H50       4.0115   -4.1126    2.2313   H         1 RES1   0.0000
   132 H51       3.1240   -4.8722    0.0739   H         1 RES1   0.0000
   133 H52       1.7769   -4.5117   -1.8852   H         1 RES1   0.0000
   134 H53       1.7161   -3.7695   -3.5575   H         1 RES1   0.0000
   135 H54       0.9738   -3.7532   -5.1063   H         1 RES1   0.0000
   136 H55      -0.1742   -5.2966   -2.7217   H         1 RES1   0.0000
   137 H56       0.7128   -5.9697   -4.1055   H         1 RES1   0.0000
   138 H57      -0.8698   -5.2541   -4.3379   H         1 RES1   0.0000
   139 H58      -3.9272   -0.9797   -3.5937   H         1 RES1   0.0000
   140 H59      -5.1680   -1.4889   -5.4862   H         1 RES1   0.0000
   141 H60      -5.4476   -2.6969   -7.6324   H         1 RES1   0.0000
   142 H61      -4.0331   -2.8259   -8.6957   H         1 RES1   0.0000
   143 H62      -5.0405   -0.2236   -7.4391   H         1 RES1   0.0000
   144 H63      -5.3866   -0.7337   -9.0795   H         1 RES1   0.0000
   145 H64      -3.7306   -0.3590   -8.6283   H         1 RES1   0.0000
   146 H65      -2.0764   -3.4079   -7.6403   H         1 RES1   0.0000
   147 H66      -0.4533   -3.5385   -6.1006   H         1 RES1   0.0000
   148 H67      -2.5161    4.5176    4.6349   H         1 RES1   0.0000
   149 H68      -3.9988    6.1737    3.7591   H         1 RES1   0.0000
@<TRIPOS>BOND
     1     1    12    1
     2     1    24    1
     3     1    36    1
     4     1    39    1
     5     1    86    1
     6     1    98    1
     7     1   110    1
     8     1   113    1
     9     2     3    1
    10     2    42    1
    11     2    43    1
    12     2    44    1
    13     3     4    1
    14     3    45    1
    15     3    46    1
    16     4     5    1
    17     4    41    2
    18     5     6    2
    19     5    47    1
    20     6     7    1
    21     6    48    1
    22     7     8    1
    23     7    40    2
    24     8     9    1
    25     8    11    1
    26     9    10    1
    27     9    49    1
    28     9    50    1
    29    10    51    1
    30    10    52    1
    31    10    53    1
    32    11    12    2
    33    11    13    1
    34    13    14    1
    35    13    39    2
    36    14    15    2
    37    14    54    1
    38    15    16    1
    39    15    55    1
    40    16    17    1
    41    16    38    2
    42    17    18    2
    43    17    56    1
    44    18    19    1
    45    18    57    1
    46    19    20    1
    47    19    37    2
    48    20    21    2
    49    20    58    1
    50    21    22    1
    51    21    59    1
    52    22    23    1
    53    22    36    2
    54    23    24    2
    55    23    25    1
    56    25    26    1
    57    25    28    1
    58    26    27    1
    59    26    60    1
    60    26    61    1
    61    27    62    1
    62    27    63    1
    63    27    64    1
    64    28    29    1
    65    28    35    2
    66    29    30    2
    67    29    65    1
    68    30    31    1
    69    30    66    1
    70    31    32    1
    71    31    34    2
    72    32    33    1
    73    32    67    1
    74    32    68    1
    75    33    69    1
    76    33    70    1
    77    33    71    1
    78    34    35    1
    79    34    72    1
    80    35    73    1
    81    36    37    1
    82    37    38    1
    83    38    39    1
    84    40    41    1
    85    40    74    1
    86    41    75    1
    87    76    77    1
    88    76   116    1
    89    76   117    1
    90    76   118    1
    91    77    78    1
    92    77   119    1
    93    77   120    1
    94    78    79    1
    95    78   115    2
    96    79    80    2
    97    79   121    1
    98    80    81    1
    99    80   122    1
   100    81    82    1
   101    81   114    2
   102    82    83    1
   103    82    85    1
   104    83    84    1
   105    83   123    1
   106    83   124    1
   107    84   125    1
   108    84   126    1
   109    84   127    1
   110    85    86    2
   111    85    87    1
   112    87    88    1
   113    87   113    2
   114    88    89    2
   115    88   128    1
   116    89    90    1
   117    89   129    1
   118    90    91    1
   119    90   112    2
   120    91    92    2
   121    91   130    1
   122    92    93    1
   123    92   131    1
   124    93    94    1
   125    93   111    2
   126    94    95    2
   127    94   132    1
   128    95    96    1
   129    95   133    1
   130    96    97    1
   131    96   110    2
   132    97    98    2
   133    97    99    1
   134    99   100    1
   135    99   102    1
   136   100   101    1
   137   100   134    1
   138   100   135    1
   139   101   136    1
   140   101   137    1
   141   101   138    1
   142   102   103    1
   143   102   109    2
   144   103   104    2
   145   103   139    1
   146   104   105    1
   147   104   140    1
   148   105   106    1
   149   105   108    2
   150   106   107    1
   151   106   141    1
   152   106   142    1
   153   107   143    1
   154   107   144    1
   155   107   145    1
   156   108   109    1
   157   108   146    1
   158   109   147    1
   159   110   111    1
   160   111   112    1
   161   112   113    1
   162   114   115    1
   163   114   148    1
   164   115   149    1
@<TRIPOS>SUBSTRUCTURE
     1 RES1      149 GROUP             0 ****  ****    0  
