@<TRIPOS>MOLECULE
ICIGOT_geomtry_0_nunpairedes_0_charge_3 Charge: 3 Unpaired_Electrons: 2 XTB_Unpaired_Electrons: 0 XTB_Charge: 3
   157   168     1     0     0
SMALL
NoCharges
****
Generated from Architector

@<TRIPOS>ATOM
     1 Tm1       0.0028    0.0264    0.1145   Tm        1 RES1   0.0000
     2 C1       -4.8580   -1.3438    3.2773   C.3       1 RES1   0.0000
     3 N1       -3.4338   -1.1371    3.0802   N.am      1 RES1   0.0000
     4 C2       -2.8643   -0.8715    1.9042   C.2       1 RES1   0.0000
     5 O1       -1.6347   -0.7466    1.7524   O.2       1 RES1   0.0000
     6 C3       -3.7506   -0.6319    0.6881   C.3       1 RES1   0.0000
     7 C4       -3.1674   -1.3983   -0.5028   C.2       1 RES1   0.0000
     8 O2       -2.0050   -1.0867   -0.8207   O.2       1 RES1   0.0000
     9 N2       -3.9077   -2.3304   -1.1246   N.am      1 RES1   0.0000
    10 C5       -5.2116   -2.7242   -0.6115   C.3       1 RES1   0.0000
    11 C6       -3.5364   -2.9406   -2.3653   C.ar      1 RES1   0.0000
    12 C7       -2.2285   -2.9155   -2.8428   C.ar      1 RES1   0.0000
    13 C8       -1.9042   -3.5254   -4.0414   C.ar      1 RES1   0.0000
    14 C9       -2.8591   -4.1915   -4.7883   C.ar      1 RES1   0.0000
    15 C10      -4.1641   -4.2076   -4.3262   C.ar      1 RES1   0.0000
    16 C11      -4.5035   -3.5830   -3.1395   C.ar      1 RES1   0.0000
    17 C12      -2.6436   -1.1439    4.2692   C.ar      1 RES1   0.0000
    18 C13      -1.4563   -1.8549    4.3261   C.ar      1 RES1   0.0000
    19 C14      -0.7537   -1.8977    5.5163   C.ar      1 RES1   0.0000
    20 C15      -1.2332   -1.2564    6.6475   C.ar      1 RES1   0.0000
    21 C16      -2.4072   -0.5248    6.5729   C.ar      1 RES1   0.0000
    22 C17      -3.1056   -0.4528    5.3832   C.ar      1 RES1   0.0000
    23 H1       -5.2394   -2.1017    2.5977   H         1 RES1   0.0000
    24 H2       -5.4222   -0.4205    3.1575   H         1 RES1   0.0000
    25 H3       -5.0210   -1.7121    4.2858   H         1 RES1   0.0000
    26 H4       -3.5690    0.4266    0.4551   H         1 RES1   0.0000
    27 H5       -4.8045   -0.7643    0.8812   H         1 RES1   0.0000
    28 H6       -5.2718   -2.5726    0.4575   H         1 RES1   0.0000
    29 H7       -5.3646   -3.7855   -0.7896   H         1 RES1   0.0000
    30 H8       -6.0039   -2.1591   -1.1032   H         1 RES1   0.0000
    31 H9       -1.4533   -2.4157   -2.2900   H         1 RES1   0.0000
    32 H10      -0.8867   -3.4819   -4.3989   H         1 RES1   0.0000
    33 H11      -2.5962   -4.6819   -5.7132   H         1 RES1   0.0000
    34 H12      -4.9327   -4.7026   -4.8972   H         1 RES1   0.0000
    35 H13      -5.5387   -3.5994   -2.8491   H         1 RES1   0.0000
    36 H14      -1.1004   -2.3880    3.4568   H         1 RES1   0.0000
    37 H15       0.1690   -2.4527    5.5692   H         1 RES1   0.0000
    38 H16      -0.7025   -1.3333    7.5841   H         1 RES1   0.0000
    39 H17      -2.7872   -0.0133    7.4430   H         1 RES1   0.0000
    40 H18      -4.0103    0.1320    5.3207   H         1 RES1   0.0000
    41 C18       0.4675    1.5133   -5.6397   C.3       1 RES1   0.0000
    42 N3       -0.2359    1.6106   -4.3696   N.am      1 RES1   0.0000
    43 C19       0.1758    1.0079   -3.2453   C.2       1 RES1   0.0000
    44 O3       -0.4281    1.0646   -2.1580   O.2       1 RES1   0.0000
    45 C20       1.4973    0.2339   -3.2196   C.3       1 RES1   0.0000
    46 C21       1.2138   -1.1964   -2.7508   C.2       1 RES1   0.0000
    47 O4        0.7451   -1.3403   -1.6091   O.2       1 RES1   0.0000
    48 N4        1.5204   -2.2139   -3.5679   N.am      1 RES1   0.0000
    49 C22       1.6984   -1.9659   -4.9934   C.3       1 RES1   0.0000
    50 C23       1.6713   -3.5652   -3.1169   C.ar      1 RES1   0.0000
    51 C24       1.0712   -4.0563   -1.9597   C.ar      1 RES1   0.0000
    52 C25       1.2505   -5.3805   -1.5969   C.ar      1 RES1   0.0000
    53 C26       1.9858   -6.2475   -2.3846   C.ar      1 RES1   0.0000
    54 C27       2.5993   -5.7578   -3.5243   C.ar      1 RES1   0.0000
    55 C28       2.4672   -4.4258   -3.8741   C.ar      1 RES1   0.0000
    56 C29      -1.3667    2.4959   -4.4351   C.ar      1 RES1   0.0000
    57 C30      -1.7591    3.2378   -3.3296   C.ar      1 RES1   0.0000
    58 C31      -2.7721    4.1752   -3.4314   C.ar      1 RES1   0.0000
    59 C32      -3.3945    4.4175   -4.6424   C.ar      1 RES1   0.0000
    60 C33      -3.0011    3.6859   -5.7502   C.ar      1 RES1   0.0000
    61 C34      -2.0157    2.7198   -5.6475   C.ar      1 RES1   0.0000
    62 H19       1.4996    1.2176   -5.5147   H         1 RES1   0.0000
    63 H20       0.4654    2.4920   -6.1149   H         1 RES1   0.0000
    64 H21      -0.0402    0.8060   -6.2953   H         1 RES1   0.0000
    65 H22       2.0708    0.6987   -2.4035   H         1 RES1   0.0000
    66 H23       2.0883    0.2701   -4.1215   H         1 RES1   0.0000
    67 H24       1.0263   -1.1655   -5.2876   H         1 RES1   0.0000
    68 H25       1.4220   -2.8512   -5.5605   H         1 RES1   0.0000
    69 H26       2.7310   -1.7148   -5.2419   H         1 RES1   0.0000
    70 H27       0.4520   -3.4340   -1.3342   H         1 RES1   0.0000
    71 H28       0.8009   -5.7513   -0.6905   H         1 RES1   0.0000
    72 H29       2.0852   -7.2865   -2.1130   H         1 RES1   0.0000
    73 H30       3.1869   -6.4135   -4.1472   H         1 RES1   0.0000
    74 H31       3.0044   -4.0694   -4.7380   H         1 RES1   0.0000
    75 H32      -1.2484    3.0858   -2.3960   H         1 RES1   0.0000
    76 H33      -3.0723    4.7361   -2.5616   H         1 RES1   0.0000
    77 H34      -4.1716    5.1609   -4.7218   H         1 RES1   0.0000
    78 H35      -3.4502    3.8736   -6.7100   H         1 RES1   0.0000
    79 H36      -1.7557    2.1596   -6.5283   H         1 RES1   0.0000
    80 C35       1.8267    5.1786    1.8180   C.3       1 RES1   0.0000
    81 N5        1.9452    3.7390    1.6404   N.am      1 RES1   0.0000
    82 C36       1.2678    3.0686    0.7085   C.2       1 RES1   0.0000
    83 O5        1.3649    1.8413    0.5109   O.2       1 RES1   0.0000
    84 C37       0.2531    3.7963   -0.1575   C.3       1 RES1   0.0000
    85 C38      -1.1265    3.2326    0.1977   C.2       1 RES1   0.0000
    86 O6       -1.2570    2.0278    0.4744   O.2       1 RES1   0.0000
    87 N6       -2.1549    4.0819    0.1487   N.am      1 RES1   0.0000
    88 C39      -1.9806    5.5111   -0.0672   C.3       1 RES1   0.0000
    89 C40      -3.4938    3.5943    0.0427   C.ar      1 RES1   0.0000
    90 C41      -3.7632    2.5029   -0.7752   C.ar      1 RES1   0.0000
    91 C42      -5.0765    2.1856   -1.0769   C.ar      1 RES1   0.0000
    92 C43      -6.1191    2.9508   -0.5793   C.ar      1 RES1   0.0000
    93 C44      -5.8447    3.9960    0.2878   C.ar      1 RES1   0.0000
    94 C45      -4.5371    4.3040    0.6245   C.ar      1 RES1   0.0000
    95 C46       2.8253    3.1041    2.5705   C.ar      1 RES1   0.0000
    96 C47       3.4924    1.9199    2.2778   C.ar      1 RES1   0.0000
    97 C48       4.4051    1.4087    3.1844   C.ar      1 RES1   0.0000
    98 C49       4.6751    2.0589    4.3761   C.ar      1 RES1   0.0000
    99 C50       3.9848    3.2193    4.6769   C.ar      1 RES1   0.0000
   100 C51       3.0559    3.7291    3.7934   C.ar      1 RES1   0.0000
   101 H37       1.4939    5.6706    0.9137   H         1 RES1   0.0000
   102 H38       2.8057    5.5835    2.0655   H         1 RES1   0.0000
   103 H39       1.1302    5.3993    2.6269   H         1 RES1   0.0000
   104 H40       0.4351    3.5049   -1.1987   H         1 RES1   0.0000
   105 H41       0.2749    4.8724   -0.0972   H         1 RES1   0.0000
   106 H42      -1.4284    5.9564    0.7575   H         1 RES1   0.0000
   107 H43      -2.9504    5.9955   -0.1205   H         1 RES1   0.0000
   108 H44      -1.4752    5.7111   -1.0120   H         1 RES1   0.0000
   109 H45      -2.9550    1.9419   -1.2237   H         1 RES1   0.0000
   110 H46      -5.2791    1.3577   -1.7373   H         1 RES1   0.0000
   111 H47      -7.1366    2.7276   -0.8628   H         1 RES1   0.0000
   112 H48      -6.6493    4.5956    0.6823   H         1 RES1   0.0000
   113 H49      -4.3347    5.1123    1.3111   H         1 RES1   0.0000
   114 H50       3.3194    1.4086    1.3449   H         1 RES1   0.0000
   115 H51       4.9380    0.5028    2.9443   H         1 RES1   0.0000
   116 H52       5.4190    1.6794    5.0585   H         1 RES1   0.0000
   117 H53       4.1753    3.7515    5.5933   H         1 RES1   0.0000
   118 H54       2.5181    4.6193    4.0699   H         1 RES1   0.0000
   119 C52       3.0842   -1.7521    4.8084   C.3       1 RES1   0.0000
   120 N7        2.2154   -0.8762    4.0348   N.am      1 RES1   0.0000
   121 C53       1.9487   -1.1512    2.7436   C.2       1 RES1   0.0000
   122 O7        0.9976   -0.6590    2.1183   O.2       1 RES1   0.0000
   123 C54       2.7946   -2.1794    1.9797   C.3       1 RES1   0.0000
   124 C55       3.0680   -1.6884    0.5464   C.2       1 RES1   0.0000
   125 O8        2.4798   -0.6996    0.0793   O.2       1 RES1   0.0000
   126 N8        4.0004   -2.3266   -0.1781   N.am      1 RES1   0.0000
   127 C56       4.3580   -1.7484   -1.4696   C.3       1 RES1   0.0000
   128 C57       4.7495   -3.4735    0.2203   C.ar      1 RES1   0.0000
   129 C58       4.1765   -4.5524    0.8893   C.ar      1 RES1   0.0000
   130 C59       4.9619   -5.6179    1.3014   C.ar      1 RES1   0.0000
   131 C60       6.3174   -5.6517    1.0085   C.ar      1 RES1   0.0000
   132 C61       6.8742   -4.6248    0.2621   C.ar      1 RES1   0.0000
   133 C62       6.1021   -3.5362   -0.1124   C.ar      1 RES1   0.0000
   134 C63       1.6773    0.2509    4.7318   C.ar      1 RES1   0.0000
   135 C64       0.6491    1.0493    4.2296   C.ar      1 RES1   0.0000
   136 C65       0.1678    2.1233    4.9597   C.ar      1 RES1   0.0000
   137 C66       0.6661    2.4298    6.2134   C.ar      1 RES1   0.0000
   138 C67       1.6982    1.6551    6.7111   C.ar      1 RES1   0.0000
   139 C68       2.2106    0.6002    5.9755   C.ar      1 RES1   0.0000
   140 H55       3.1164   -2.7417    4.3685   H         1 RES1   0.0000
   141 H56       2.6871   -1.8679    5.8148   H         1 RES1   0.0000
   142 H57       4.0936   -1.3495    4.8796   H         1 RES1   0.0000
   143 H58       2.1621   -3.0651    1.8922   H         1 RES1   0.0000
   144 H59       3.7439   -2.4552    2.4380   H         1 RES1   0.0000
   145 H60       3.5172   -1.1548   -1.8155   H         1 RES1   0.0000
   146 H61       4.5777   -2.5374   -2.1887   H         1 RES1   0.0000
   147 H62       5.2211   -1.0891   -1.3607   H         1 RES1   0.0000
   148 H63       3.1169   -4.6010    1.0805   H         1 RES1   0.0000
   149 H64       4.5077   -6.4336    1.8446   H         1 RES1   0.0000
   150 H65       6.9328   -6.4698    1.3579   H         1 RES1   0.0000
   151 H66       7.9134   -4.6644   -0.0394   H         1 RES1   0.0000
   152 H67       6.5676   -2.7310   -0.6577   H         1 RES1   0.0000
   153 H68       0.1896    0.8546    3.2722   H         1 RES1   0.0000
   154 H69      -0.6216    2.7291    4.5402   H         1 RES1   0.0000
   155 H70       0.2703    3.2609    6.7804   H         1 RES1   0.0000
   156 H71       2.1142    1.8782    7.6823   H         1 RES1   0.0000
   157 H72       3.0472    0.0768    6.4031   H         1 RES1   0.0000
@<TRIPOS>BOND
     1     1     5    1
     2     1     8    1
     3     1    44    1
     4     1    47    1
     5     1    83    1
     6     1    86    1
     7     1   122    1
     8     1   125    1
     9     2     3    1
    10     2    23    1
    11     2    24    1
    12     2    25    1
    13     3     4    1
    14     3    17    1
    15     4     5    2
    16     4     6    1
    17     6     7    1
    18     6    26    1
    19     6    27    1
    20     7     8    2
    21     7     9    1
    22     9    10    1
    23     9    11    1
    24    10    28    1
    25    10    29    1
    26    10    30    1
    27    11    12    1
    28    11    16    2
    29    12    13    2
    30    12    31    1
    31    13    14    1
    32    13    32    1
    33    14    15    2
    34    14    33    1
    35    15    16    1
    36    15    34    1
    37    16    35    1
    38    17    18    1
    39    17    22    2
    40    18    19    2
    41    18    36    1
    42    19    20    1
    43    19    37    1
    44    20    21    2
    45    20    38    1
    46    21    22    1
    47    21    39    1
    48    22    40    1
    49    41    42    1
    50    41    62    1
    51    41    63    1
    52    41    64    1
    53    42    43    1
    54    42    56    1
    55    43    44    2
    56    43    45    1
    57    45    46    1
    58    45    65    1
    59    45    66    1
    60    46    47    2
    61    46    48    1
    62    48    49    1
    63    48    50    1
    64    49    67    1
    65    49    68    1
    66    49    69    1
    67    50    51    1
    68    50    55    2
    69    51    52    2
    70    51    70    1
    71    52    53    1
    72    52    71    1
    73    53    54    2
    74    53    72    1
    75    54    55    1
    76    54    73    1
    77    55    74    1
    78    56    57    1
    79    56    61    2
    80    57    58    2
    81    57    75    1
    82    58    59    1
    83    58    76    1
    84    59    60    2
    85    59    77    1
    86    60    61    1
    87    60    78    1
    88    61    79    1
    89    80    81    1
    90    80   101    1
    91    80   102    1
    92    80   103    1
    93    81    82    1
    94    81    95    1
    95    82    83    2
    96    82    84    1
    97    84    85    1
    98    84   104    1
    99    84   105    1
   100    85    86    2
   101    85    87    1
   102    87    88    1
   103    87    89    1
   104    88   106    1
   105    88   107    1
   106    88   108    1
   107    89    90    1
   108    89    94    2
   109    90    91    2
   110    90   109    1
   111    91    92    1
   112    91   110    1
   113    92    93    2
   114    92   111    1
   115    93    94    1
   116    93   112    1
   117    94   113    1
   118    95    96    1
   119    95   100    2
   120    96    97    2
   121    96   114    1
   122    97    98    1
   123    97   115    1
   124    98    99    2
   125    98   116    1
   126    99   100    1
   127    99   117    1
   128   100   118    1
   129   119   120    1
   130   119   140    1
   131   119   141    1
   132   119   142    1
   133   120   121    1
   134   120   134    1
   135   121   122    2
   136   121   123    1
   137   123   124    1
   138   123   143    1
   139   123   144    1
   140   124   125    2
   141   124   126    1
   142   126   127    1
   143   126   128    1
   144   127   145    1
   145   127   146    1
   146   127   147    1
   147   128   129    1
   148   128   133    2
   149   129   130    2
   150   129   148    1
   151   130   131    1
   152   130   149    1
   153   131   132    2
   154   131   150    1
   155   132   133    1
   156   132   151    1
   157   133   152    1
   158   134   135    1
   159   134   139    2
   160   135   136    2
   161   135   153    1
   162   136   137    1
   163   136   154    1
   164   137   138    2
   165   137   155    1
   166   138   139    1
   167   138   156    1
   168   139   157    1
@<TRIPOS>SUBSTRUCTURE
     1 RES1      157 GROUP             0 ****  ****    0  
