@<TRIPOS>MOLECULE
ICIGOT_geomtry_0_nunpairedes_0_charge_3 Charge: 3 Unpaired_Electrons: 2 XTB_Unpaired_Electrons: 0 XTB_Charge: 3
   247   252     1     0     0
SMALL
NoCharges
****
Generated from Architector

@<TRIPOS>ATOM
     1 Tm1      -0.1975   -0.3634    0.1510   Tm        1 RES1   0.0000
     2 C1       -3.6468    6.4459   -3.7191   C.3       1 RES1   0.0000
     3 C2       -2.8756    5.1326   -3.7425   C.3       1 RES1   0.0000
     4 C3       -1.3975    5.2989   -4.0977   C.3       1 RES1   0.0000
     5 C4       -0.7586    3.9217   -4.2631   C.3       1 RES1   0.0000
     6 C5        0.7293    3.9672   -4.6021   C.3       1 RES1   0.0000
     7 C6        1.4806    2.6595   -4.3215   C.3       1 RES1   0.0000
     8 C7        1.0819    1.4973   -5.2359   C.3       1 RES1   0.0000
     9 C8       -0.1984    0.7913   -4.7903   C.3       1 RES1   0.0000
    10 P1       -0.1187   -0.2925   -3.3070   P.3       1 RES1   0.0000
    11 O1        0.1533    0.3617   -1.9775   O.2       1 RES1   0.0000
    12 C9        1.1932   -1.5277   -3.6765   C.3       1 RES1   0.0000
    13 C10       0.9237   -2.4562   -4.8546   C.3       1 RES1   0.0000
    14 C11       0.3453   -3.8279   -4.5058   C.3       1 RES1   0.0000
    15 C12       1.3899   -4.8353   -3.9977   C.3       1 RES1   0.0000
    16 C13       1.5619   -4.8836   -2.4768   C.3       1 RES1   0.0000
    17 C14       2.3668   -6.1020   -1.9829   C.3       1 RES1   0.0000
    18 C15       3.6789   -5.7310   -1.2885   C.3       1 RES1   0.0000
    19 C16       4.7458   -5.2337   -2.2544   C.3       1 RES1   0.0000
    20 C17      -1.9028   -0.9184   -3.3530   C.3       1 RES1   0.0000
    21 C18      -2.7765    0.2140   -2.9294   C.ar      1 RES1   0.0000
    22 C19      -3.4265    1.0578   -3.8135   C.ar      1 RES1   0.0000
    23 C20      -4.2017    2.0976   -3.3245   C.ar      1 RES1   0.0000
    24 C21      -4.2924    2.2826   -1.9516   C.ar      1 RES1   0.0000
    25 C22      -3.6611    1.4076   -1.0768   C.ar      1 RES1   0.0000
    26 C23      -3.8452    1.5183    0.4039   C.3       1 RES1   0.0000
    27 P2       -2.2730    2.0287    1.3272   P.3       1 RES1   0.0000
    28 O2       -1.0506    1.6675    0.5296   O.2       1 RES1   0.0000
    29 C24      -2.0559    1.4947    3.1064   C.3       1 RES1   0.0000
    30 C25      -3.2393    1.1925    4.0456   C.3       1 RES1   0.0000
    31 C26      -3.6525   -0.2687    4.3187   C.3       1 RES1   0.0000
    32 C27      -4.8013   -0.8648    3.4834   C.3       1 RES1   0.0000
    33 C28      -6.1444   -0.1409    3.6241   C.3       1 RES1   0.0000
    34 C29      -7.1366   -0.6214    2.5618   C.3       1 RES1   0.0000
    35 C30      -8.4423    0.1731    2.5624   C.3       1 RES1   0.0000
    36 C31      -9.3796   -0.2982    1.4553   C.3       1 RES1   0.0000
    37 C32      -2.4680    3.8465    1.4464   C.3       1 RES1   0.0000
    38 C33      -3.4964    4.2192    2.5208   C.3       1 RES1   0.0000
    39 C34      -4.0911    5.6305    2.4173   C.3       1 RES1   0.0000
    40 C35      -5.4142    5.6744    1.6442   C.3       1 RES1   0.0000
    41 C36      -5.2550    5.6743    0.1236   C.3       1 RES1   0.0000
    42 C37      -6.5773    5.4688   -0.6192   C.3       1 RES1   0.0000
    43 C38      -7.5938    6.5895   -0.3992   C.3       1 RES1   0.0000
    44 C39      -8.7396    6.5160   -1.4035   C.3       1 RES1   0.0000
    45 N1       -2.9178    0.3985   -1.5946   N.ar      1 RES1   0.0000
    46 O3       -2.3669   -0.4927   -0.8047   O.co2     1 RES1   0.0000
    47 H1       -4.6901    6.2742   -3.4594   H         1 RES1   0.0000
    48 H2       -3.2210    7.1346   -2.9933   H         1 RES1   0.0000
    49 H3       -3.6149    6.9149   -4.6993   H         1 RES1   0.0000
    50 H4       -2.9434    4.6408   -2.7650   H         1 RES1   0.0000
    51 H5       -3.3314    4.4670   -4.4821   H         1 RES1   0.0000
    52 H6       -1.3041    5.8647   -5.0259   H         1 RES1   0.0000
    53 H7       -0.8851    5.8642   -3.3176   H         1 RES1   0.0000
    54 H8       -0.9002    3.3606   -3.3323   H         1 RES1   0.0000
    55 H9       -1.3055    3.4125   -5.0583   H         1 RES1   0.0000
    56 H10       0.8566    4.2276   -5.6541   H         1 RES1   0.0000
    57 H11       1.1912    4.7607   -4.0122   H         1 RES1   0.0000
    58 H12       2.5456    2.8569   -4.4603   H         1 RES1   0.0000
    59 H13       1.3330    2.3580   -3.2796   H         1 RES1   0.0000
    60 H14       0.9289    1.8807   -6.2475   H         1 RES1   0.0000
    61 H15       1.8971    0.7744   -5.2979   H         1 RES1   0.0000
    62 H16      -0.9673    1.5374   -4.5975   H         1 RES1   0.0000
    63 H17      -0.5613    0.1517   -5.6000   H         1 RES1   0.0000
    64 H18       2.0477   -0.8799   -3.8997   H         1 RES1   0.0000
    65 H19       1.4724   -2.0772   -2.7821   H         1 RES1   0.0000
    66 H20       0.2519   -1.9543   -5.5498   H         1 RES1   0.0000
    67 H21       1.8576   -2.6309   -5.3881   H         1 RES1   0.0000
    68 H22      -0.4879   -3.7438   -3.7996   H         1 RES1   0.0000
    69 H23      -0.0826   -4.2333   -5.4225   H         1 RES1   0.0000
    70 H24       1.0989   -5.8284   -4.3434   H         1 RES1   0.0000
    71 H25       2.3525   -4.6056   -4.4501   H         1 RES1   0.0000
    72 H26       2.0671   -3.9755   -2.1285   H         1 RES1   0.0000
    73 H27       0.5564   -4.9316   -2.0448   H         1 RES1   0.0000
    74 H28       1.7566   -6.6765   -1.2836   H         1 RES1   0.0000
    75 H29       2.5928   -6.7621   -2.8217   H         1 RES1   0.0000
    76 H30       3.4955   -4.9765   -0.5141   H         1 RES1   0.0000
    77 H31       4.0611   -6.6204   -0.7879   H         1 RES1   0.0000
    78 H32       4.4407   -4.3188   -2.7572   H         1 RES1   0.0000
    79 H33       5.6756   -5.0404   -1.7250   H         1 RES1   0.0000
    80 H34       4.9441   -5.9913   -3.0077   H         1 RES1   0.0000
    81 H35      -2.1341   -1.2110   -4.3726   H         1 RES1   0.0000
    82 H36      -2.0616   -1.7680   -2.6890   H         1 RES1   0.0000
    83 H37      -3.3536    0.8875   -4.8786   H         1 RES1   0.0000
    84 H38      -4.7269    2.7569   -3.9954   H         1 RES1   0.0000
    85 H39      -4.8887    3.0958   -1.5682   H         1 RES1   0.0000
    86 H40      -4.5579    2.3150    0.6156   H         1 RES1   0.0000
    87 H41      -4.2619    0.5895    0.7929   H         1 RES1   0.0000
    88 H42      -1.3103    0.6920    3.0886   H         1 RES1   0.0000
    89 H43      -1.5384    2.3727    3.5045   H         1 RES1   0.0000
    90 H44      -2.9699    1.6165    5.0127   H         1 RES1   0.0000
    91 H45      -4.1190    1.7354    3.7116   H         1 RES1   0.0000
    92 H46      -2.7742   -0.9254    4.2729   H         1 RES1   0.0000
    93 H47      -3.9969   -0.3114    5.3527   H         1 RES1   0.0000
    94 H48      -4.5661   -0.9009    2.4149   H         1 RES1   0.0000
    95 H49      -4.9390   -1.8981    3.8098   H         1 RES1   0.0000
    96 H50      -6.5603   -0.3136    4.6167   H         1 RES1   0.0000
    97 H51      -6.0027    0.9360    3.5139   H         1 RES1   0.0000
    98 H52      -6.6746   -0.5334    1.5711   H         1 RES1   0.0000
    99 H53      -7.3617   -1.6777    2.7276   H         1 RES1   0.0000
   100 H54      -8.9311    0.0589    3.5307   H         1 RES1   0.0000
   101 H55      -8.2296    1.2364    2.4255   H         1 RES1   0.0000
   102 H56      -9.6232   -1.3496    1.5902   H         1 RES1   0.0000
   103 H57     -10.3025    0.2750    1.4712   H         1 RES1   0.0000
   104 H58      -8.9229   -0.1720    0.4731   H         1 RES1   0.0000
   105 H59      -1.4883    4.2730    1.6785   H         1 RES1   0.0000
   106 H60      -2.7514    4.2352    0.4666   H         1 RES1   0.0000
   107 H61      -4.3292    3.5140    2.4913   H         1 RES1   0.0000
   108 H62      -3.0227    4.1174    3.4960   H         1 RES1   0.0000
   109 H63      -4.2835    5.9741    3.4345   H         1 RES1   0.0000
   110 H64      -3.3715    6.3142    1.9681   H         1 RES1   0.0000
   111 H65      -6.0274    4.8216    1.9501   H         1 RES1   0.0000
   112 H66      -5.9550    6.5746    1.9324   H         1 RES1   0.0000
   113 H67      -4.8199    6.6247   -0.1893   H         1 RES1   0.0000
   114 H68      -4.5610    4.8823   -0.1763   H         1 RES1   0.0000
   115 H69      -6.3671    5.4073   -1.6902   H         1 RES1   0.0000
   116 H70      -7.0268    4.5178   -0.3186   H         1 RES1   0.0000
   117 H71      -8.0011    6.5276    0.6098   H         1 RES1   0.0000
   118 H72      -7.0963    7.5546   -0.5016   H         1 RES1   0.0000
   119 H73      -9.2641    5.5653   -1.3264   H         1 RES1   0.0000
   120 H74      -9.4554    7.3143   -1.2245   H         1 RES1   0.0000
   121 H75      -8.3638    6.6212   -2.4199   H         1 RES1   0.0000
   122 C40       4.5514   -2.1572    6.9718   C.3       1 RES1   0.0000
   123 C41       3.5263   -1.3755    6.1649   C.3       1 RES1   0.0000
   124 C42       2.1193   -1.5251    6.7361   C.3       1 RES1   0.0000
   125 C43       0.9837   -1.0352    5.8313   C.3       1 RES1   0.0000
   126 C44       0.6405    0.4569    5.9332   C.3       1 RES1   0.0000
   127 C45       1.6631    1.4937    5.4602   C.3       1 RES1   0.0000
   128 C46       1.8537    1.5786    3.9409   C.3       1 RES1   0.0000
   129 C47       2.9152    0.6315    3.3839   C.3       1 RES1   0.0000
   130 P3        2.9345    0.8407    1.5588   P.3       1 RES1   0.0000
   131 O4        1.5412    0.6293    1.0314   O.2       1 RES1   0.0000
   132 C48       3.5961    2.4780    1.0702   C.3       1 RES1   0.0000
   133 C49       4.5868    3.0875    2.0602   C.3       1 RES1   0.0000
   134 C50       5.8641    2.2729    2.2607   C.3       1 RES1   0.0000
   135 C51       6.8081    2.3041    1.0601   C.3       1 RES1   0.0000
   136 C52       7.4089    3.6903    0.7914   C.3       1 RES1   0.0000
   137 C53       8.8713    3.8313    1.2143   C.3       1 RES1   0.0000
   138 C54       9.0964    3.9167    2.7241   C.3       1 RES1   0.0000
   139 C55      10.5386    4.3060    3.0260   C.3       1 RES1   0.0000
   140 C56       4.0200   -0.4590    0.7754   C.3       1 RES1   0.0000
   141 C57       3.6988   -1.7559    1.4153   C.ar      1 RES1   0.0000
   142 C58       4.4241   -2.2166    2.5013   C.ar      1 RES1   0.0000
   143 C59       4.0606   -3.3893    3.1391   C.ar      1 RES1   0.0000
   144 C60       2.9670   -4.0801    2.6465   C.ar      1 RES1   0.0000
   145 C61       2.2606   -3.6145    1.5502   C.ar      1 RES1   0.0000
   146 C62       1.0442   -4.3080    1.0376   C.3       1 RES1   0.0000
   147 P4       -0.3767   -3.3786    1.8131   P.3       1 RES1   0.0000
   148 O5       -0.0093   -1.9134    1.8124   O.2       1 RES1   0.0000
   149 C63      -0.4583   -3.9892    3.5378   C.3       1 RES1   0.0000
   150 C64      -1.1785   -5.3254    3.7353   C.3       1 RES1   0.0000
   151 C65      -0.2641   -6.5550    3.7087   C.3       1 RES1   0.0000
   152 C66      -1.0141   -7.8400    3.3366   C.3       1 RES1   0.0000
   153 C67      -1.2322   -7.9942    1.8298   C.3       1 RES1   0.0000
   154 C68      -1.7299   -9.3773    1.4062   C.3       1 RES1   0.0000
   155 C69      -3.1228   -9.7500    1.9181   C.3       1 RES1   0.0000
   156 C70      -4.2556   -8.9413    1.2939   C.3       1 RES1   0.0000
   157 C71      -2.0673   -3.5070    1.0602   C.3       1 RES1   0.0000
   158 C72      -2.7030   -4.7482    0.4444   C.3       1 RES1   0.0000
   159 C73      -2.3037   -5.0714   -0.9931   C.3       1 RES1   0.0000
   160 C74      -3.3343   -6.0519   -1.5589   C.3       1 RES1   0.0000
   161 C75      -2.9990   -6.6572   -2.9265   C.3       1 RES1   0.0000
   162 C76      -2.3159   -8.0257   -2.8618   C.3       1 RES1   0.0000
   163 C77      -0.8357   -7.9931   -2.4868   C.3       1 RES1   0.0000
   164 C78      -0.1896   -9.3514   -2.7322   C.3       1 RES1   0.0000
   165 N2        2.6229   -2.4454    0.9684   N.ar      1 RES1   0.0000
   166 O6        1.9496   -1.9848   -0.0666   O.co2     1 RES1   0.0000
   167 H76       5.5518   -1.9989    6.5796   H         1 RES1   0.0000
   168 H77       4.5433   -1.8348    8.0074   H         1 RES1   0.0000
   169 H78       4.3392   -3.2219    6.9533   H         1 RES1   0.0000
   170 H79       3.8264   -0.3304    6.1593   H         1 RES1   0.0000
   171 H80       3.5318   -1.7325    5.1328   H         1 RES1   0.0000
   172 H81       1.9457   -2.5829    6.9398   H         1 RES1   0.0000
   173 H82       2.0584   -1.0036    7.6907   H         1 RES1   0.0000
   174 H83       1.1702   -1.3178    4.7909   H         1 RES1   0.0000
   175 H84       0.0741   -1.5628    6.1334   H         1 RES1   0.0000
   176 H85      -0.2841    0.6238    5.3714   H         1 RES1   0.0000
   177 H86       0.4238    0.6764    6.9800   H         1 RES1   0.0000
   178 H87       1.2968    2.4646    5.8026   H         1 RES1   0.0000
   179 H88       2.6192    1.3311    5.9541   H         1 RES1   0.0000
   180 H89       0.9086    1.3600    3.4317   H         1 RES1   0.0000
   181 H90       2.1363    2.6012    3.6806   H         1 RES1   0.0000
   182 H91       3.8955    0.8359    3.8133   H         1 RES1   0.0000
   183 H92       2.6488   -0.3998    3.6159   H         1 RES1   0.0000
   184 H93       4.0592    2.3592    0.0888   H         1 RES1   0.0000
   185 H94       2.7297    3.1336    0.9502   H         1 RES1   0.0000
   186 H95       4.8551    4.0807    1.6979   H         1 RES1   0.0000
   187 H96       4.1016    3.2197    3.0267   H         1 RES1   0.0000
   188 H97       6.3922    2.6726    3.1256   H         1 RES1   0.0000
   189 H98       5.6096    1.2332    2.4858   H         1 RES1   0.0000
   190 H99       7.6190    1.5981    1.2451   H         1 RES1   0.0000
   191 H100      6.2815    1.9565    0.1674   H         1 RES1   0.0000
   192 H101      7.3444    3.9033   -0.2759   H         1 RES1   0.0000
   193 H102      6.8294    4.4578    1.3060   H         1 RES1   0.0000
   194 H103      9.4506    2.9996    0.8061   H         1 RES1   0.0000
   195 H104      9.2636    4.7440    0.7628   H         1 RES1   0.0000
   196 H105      8.4271    4.6672    3.1525   H         1 RES1   0.0000
   197 H106      8.8719    2.9596    3.2011   H         1 RES1   0.0000
   198 H107     10.7705    5.2682    2.5770   H         1 RES1   0.0000
   199 H108     10.7076    4.3829    4.0965   H         1 RES1   0.0000
   200 H109     11.2265    3.5679    2.6206   H         1 RES1   0.0000
   201 H110      3.7616   -0.4491   -0.2874   H         1 RES1   0.0000
   202 H111      5.0695   -0.2141    0.9079   H         1 RES1   0.0000
   203 H112      5.2833   -1.6608    2.8476   H         1 RES1   0.0000
   204 H113      4.6004   -3.7529    3.9975   H         1 RES1   0.0000
   205 H114      2.6843   -5.0170    3.0993   H         1 RES1   0.0000
   206 H115      1.0200   -4.2656   -0.0462   H         1 RES1   0.0000
   207 H116      1.0128   -5.3471    1.3596   H         1 RES1   0.0000
   208 H117      0.5625   -4.0279    3.9237   H         1 RES1   0.0000
   209 H118     -0.9720   -3.1947    4.0852   H         1 RES1   0.0000
   210 H119     -1.6806   -5.3081    4.7019   H         1 RES1   0.0000
   211 H120     -1.9538   -5.4276    2.9817   H         1 RES1   0.0000
   212 H121      0.5530   -6.4168    2.9967   H         1 RES1   0.0000
   213 H122      0.1825   -6.6831    4.6967   H         1 RES1   0.0000
   214 H123     -0.4343   -8.6947    3.6881   H         1 RES1   0.0000
   215 H124     -1.9733   -7.8511    3.8564   H         1 RES1   0.0000
   216 H125     -1.9557   -7.2613    1.4767   H         1 RES1   0.0000
   217 H126     -0.2862   -7.8019    1.3122   H         1 RES1   0.0000
   218 H127     -1.7386   -9.4115    0.3137   H         1 RES1   0.0000
   219 H128     -1.0184  -10.1289    1.7506   H         1 RES1   0.0000
   220 H129     -3.2887  -10.8020    1.6835   H         1 RES1   0.0000
   221 H130     -3.1577   -9.6512    3.0038   H         1 RES1   0.0000
   222 H131     -4.2372   -9.0296    0.2089   H         1 RES1   0.0000
   223 H132     -5.2108   -9.3221    1.6451   H         1 RES1   0.0000
   224 H133     -4.1990   -7.8883    1.5652   H         1 RES1   0.0000
   225 H134     -2.6719   -3.2064    1.9233   H         1 RES1   0.0000
   226 H135     -2.0949   -2.7019    0.3207   H         1 RES1   0.0000
   227 H136     -2.5186   -5.6323    1.0493   H         1 RES1   0.0000
   228 H137     -3.7843   -4.5750    0.4492   H         1 RES1   0.0000
   229 H138     -2.3127   -4.1596   -1.5986   H         1 RES1   0.0000
   230 H139     -1.3049   -5.5067   -1.0310   H         1 RES1   0.0000
   231 H140     -3.4678   -6.8658   -0.8462   H         1 RES1   0.0000
   232 H141     -4.2873   -5.5222   -1.6263   H         1 RES1   0.0000
   233 H142     -3.9352   -6.7842   -3.4726   H         1 RES1   0.0000
   234 H143     -2.3842   -5.9676   -3.5109   H         1 RES1   0.0000
   235 H144     -2.8589   -8.6590   -2.1581   H         1 RES1   0.0000
   236 H145     -2.4066   -8.4927   -3.8441   H         1 RES1   0.0000
   237 H146     -0.3337   -7.2379   -3.0961   H         1 RES1   0.0000
   238 H147     -0.7106   -7.7209   -1.4355   H         1 RES1   0.0000
   239 H148     -0.3001   -9.6425   -3.7734   H         1 RES1   0.0000
   240 H149      0.8718   -9.3327   -2.4962   H         1 RES1   0.0000
   241 H150     -0.6614  -10.1153   -2.1190   H         1 RES1   0.0000
   242 O7       -2.2621   -0.6700    1.6216   O.3       1 RES1   0.0000
   243 H151     -2.9017   -0.9256    0.9353   H         1 RES1   0.0000
   244 H152     -2.6504   -0.8042    2.4996   H         1 RES1   0.0000
   245 O8       -0.3432   -2.4242   -1.1389   O.3       1 RES1   0.0000
   246 H153     -0.5169   -3.0859   -1.8312   H         1 RES1   0.0000
   247 H154      0.6135   -2.5064   -0.9111   H         1 RES1   0.0000
@<TRIPOS>BOND
     1     1    11    1
     2     1    28    1
     3     1    46    1
     4     1   131    1
     5     1   148    1
     6     1   166    1
     7     1   242    1
     8     1   245    1
     9     2     3    1
    10     2    47    1
    11     2    48    1
    12     2    49    1
    13     3     4    1
    14     3    50    1
    15     3    51    1
    16     4     5    1
    17     4    52    1
    18     4    53    1
    19     5     6    1
    20     5    54    1
    21     5    55    1
    22     6     7    1
    23     6    56    1
    24     6    57    1
    25     7     8    1
    26     7    58    1
    27     7    59    1
    28     8     9    1
    29     8    60    1
    30     8    61    1
    31     9    10    1
    32     9    62    1
    33     9    63    1
    34    10    11    2
    35    10    12    1
    36    10    20    1
    37    12    13    1
    38    12    64    1
    39    12    65    1
    40    13    14    1
    41    13    66    1
    42    13    67    1
    43    14    15    1
    44    14    68    1
    45    14    69    1
    46    15    16    1
    47    15    70    1
    48    15    71    1
    49    16    17    1
    50    16    72    1
    51    16    73    1
    52    17    18    1
    53    17    74    1
    54    17    75    1
    55    18    19    1
    56    18    76    1
    57    18    77    1
    58    19    78    1
    59    19    79    1
    60    19    80    1
    61    20    21    1
    62    20    81    1
    63    20    82    1
    64    21    22    1
    65    21    45    2
    66    22    23    2
    67    22    83    1
    68    23    24    1
    69    23    84    1
    70    24    25    2
    71    24    85    1
    72    25    26    1
    73    25    45    1
    74    26    27    1
    75    26    86    1
    76    26    87    1
    77    27    28    2
    78    27    29    1
    79    27    37    1
    80    29    30    1
    81    29    88    1
    82    29    89    1
    83    30    31    1
    84    30    90    1
    85    30    91    1
    86    31    32    1
    87    31    92    1
    88    31    93    1
    89    32    33    1
    90    32    94    1
    91    32    95    1
    92    33    34    1
    93    33    96    1
    94    33    97    1
    95    34    35    1
    96    34    98    1
    97    34    99    1
    98    35    36    1
    99    35   100    1
   100    35   101    1
   101    36   102    1
   102    36   103    1
   103    36   104    1
   104    37    38    1
   105    37   105    1
   106    37   106    1
   107    38    39    1
   108    38   107    1
   109    38   108    1
   110    39    40    1
   111    39   109    1
   112    39   110    1
   113    40    41    1
   114    40   111    1
   115    40   112    1
   116    41    42    1
   117    41   113    1
   118    41   114    1
   119    42    43    1
   120    42   115    1
   121    42   116    1
   122    43    44    1
   123    43   117    1
   124    43   118    1
   125    44   119    1
   126    44   120    1
   127    44   121    1
   128    45    46    1
   129   122   123    1
   130   122   167    1
   131   122   168    1
   132   122   169    1
   133   123   124    1
   134   123   170    1
   135   123   171    1
   136   124   125    1
   137   124   172    1
   138   124   173    1
   139   125   126    1
   140   125   174    1
   141   125   175    1
   142   126   127    1
   143   126   176    1
   144   126   177    1
   145   127   128    1
   146   127   178    1
   147   127   179    1
   148   128   129    1
   149   128   180    1
   150   128   181    1
   151   129   130    1
   152   129   182    1
   153   129   183    1
   154   130   131    2
   155   130   132    1
   156   130   140    1
   157   132   133    1
   158   132   184    1
   159   132   185    1
   160   133   134    1
   161   133   186    1
   162   133   187    1
   163   134   135    1
   164   134   188    1
   165   134   189    1
   166   135   136    1
   167   135   190    1
   168   135   191    1
   169   136   137    1
   170   136   192    1
   171   136   193    1
   172   137   138    1
   173   137   194    1
   174   137   195    1
   175   138   139    1
   176   138   196    1
   177   138   197    1
   178   139   198    1
   179   139   199    1
   180   139   200    1
   181   140   141    1
   182   140   201    1
   183   140   202    1
   184   141   142    1
   185   141   165    2
   186   142   143    2
   187   142   203    1
   188   143   144    1
   189   143   204    1
   190   144   145    2
   191   144   205    1
   192   145   146    1
   193   145   165    1
   194   146   147    1
   195   146   206    1
   196   146   207    1
   197   147   148    2
   198   147   149    1
   199   147   157    1
   200   149   150    1
   201   149   208    1
   202   149   209    1
   203   150   151    1
   204   150   210    1
   205   150   211    1
   206   151   152    1
   207   151   212    1
   208   151   213    1
   209   152   153    1
   210   152   214    1
   211   152   215    1
   212   153   154    1
   213   153   216    1
   214   153   217    1
   215   154   155    1
   216   154   218    1
   217   154   219    1
   218   155   156    1
   219   155   220    1
   220   155   221    1
   221   156   222    1
   222   156   223    1
   223   156   224    1
   224   157   158    1
   225   157   225    1
   226   157   226    1
   227   158   159    1
   228   158   227    1
   229   158   228    1
   230   159   160    1
   231   159   229    1
   232   159   230    1
   233   160   161    1
   234   160   231    1
   235   160   232    1
   236   161   162    1
   237   161   233    1
   238   161   234    1
   239   162   163    1
   240   162   235    1
   241   162   236    1
   242   163   164    1
   243   163   237    1
   244   163   238    1
   245   164   239    1
   246   164   240    1
   247   164   241    1
   248   165   166    1
   249   242   243    1
   250   242   244    1
   251   245   246    1
   252   245   247    1
@<TRIPOS>SUBSTRUCTURE
     1 RES1      247 GROUP             0 ****  ****    0  
