@<TRIPOS>MOLECULE
square_prismatic_0_nunpairedes_0_charge_3 Charge: 3 Unpaired_Electrons: 2 XTB_Unpaired_Electrons: 0 XTB_Charge: 3
   157   168     1     0     0
SMALL
NoCharges
****
Generated from Architector

@<TRIPOS>ATOM
     1 Tm1       0.0169   -0.0038   -0.0272   Tm        1 RES1   0.0000
     2 C1       -1.1196   -5.5594   -0.7783   C.3       1 RES1   0.0000
     3 C2       -0.6692   -6.1538   -2.1106   C.3       1 RES1   0.0000
     4 C3        0.5035   -5.4097   -2.7642   C.3       1 RES1   0.0000
     5 C4        0.1266   -4.2095   -3.6454   C.3       1 RES1   0.0000
     6 N1       -0.4985   -3.1239   -2.9140   N.am      1 RES1   0.0000
     7 C5       -1.9677   -3.0740   -2.9955   C.3       1 RES1   0.0000
     8 C6       -2.5478   -2.6649   -4.3513   C.3       1 RES1   0.0000
     9 C7       -2.3035   -1.2128   -4.7603   C.3       1 RES1   0.0000
    10 C8       -0.8655   -0.9421   -5.1808   C.3       1 RES1   0.0000
    11 C9        0.1022   -2.2512   -2.1128   C.2       1 RES1   0.0000
    12 O1       -0.6176   -1.4000   -1.5246   O.2       1 RES1   0.0000
    13 C10       1.5857   -2.1389   -1.7523   C.ar      1 RES1   0.0000
    14 C11       2.7136   -2.8960   -2.1111   C.ar      1 RES1   0.0000
    15 C12       3.9184   -2.6223   -1.4887   C.ar      1 RES1   0.0000
    16 C13       4.0293   -1.6404   -0.4840   C.ar      1 RES1   0.0000
    17 C14       5.2050   -1.3851    0.2862   C.ar      1 RES1   0.0000
    18 C15       5.1988   -0.4760    1.2984   C.ar      1 RES1   0.0000
    19 C16       4.0262    0.2736    1.6187   C.ar      1 RES1   0.0000
    20 C17       3.9274    1.1785    2.6925   C.ar      1 RES1   0.0000
    21 C18       2.7399    1.8197    2.9849   C.ar      1 RES1   0.0000
    22 C19       1.6280    1.5949    2.1557   C.ar      1 RES1   0.0000
    23 C20       0.1618    2.0012    2.2910   C.2       1 RES1   0.0000
    24 O2       -0.6080    1.3431    1.5476   O.2       1 RES1   0.0000
    25 N2       -0.3883    2.8878    3.1123   N.am      1 RES1   0.0000
    26 C21      -1.8624    2.9094    3.1385   C.3       1 RES1   0.0000
    27 C22      -2.5449    3.6012    1.9433   C.3       1 RES1   0.0000
    28 C23      -4.0747    3.5015    2.0132   C.3       1 RES1   0.0000
    29 C24      -4.7288    4.2764    0.8734   C.3       1 RES1   0.0000
    30 C25       0.3414    3.8056    3.9700   C.3       1 RES1   0.0000
    31 C26       1.1450    4.8279    3.1657   C.3       1 RES1   0.0000
    32 C27       0.2463    5.7122    2.3017   C.3       1 RES1   0.0000
    33 C28       1.0462    6.8336    1.6566   C.3       1 RES1   0.0000
    34 N3        1.7466    0.7882    1.1008   N.ar      1 RES1   0.0000
    35 C29       2.8658    0.1103    0.8303   C.ar      1 RES1   0.0000
    36 C30       2.8656   -0.8845   -0.2312   C.ar      1 RES1   0.0000
    37 N4        1.7301   -1.1383   -0.8864   N.ar      1 RES1   0.0000
    38 H1       -1.9361   -6.1520   -0.3746   H         1 RES1   0.0000
    39 H2       -1.4577   -4.5295   -0.8699   H         1 RES1   0.0000
    40 H3       -0.3016   -5.5877   -0.0633   H         1 RES1   0.0000
    41 H4       -1.5114   -6.2275   -2.8005   H         1 RES1   0.0000
    42 H5       -0.3487   -7.1783   -1.9199   H         1 RES1   0.0000
    43 H6        1.0319   -6.1064   -3.4163   H         1 RES1   0.0000
    44 H7        1.1908   -5.0918   -1.9773   H         1 RES1   0.0000
    45 H8       -0.5864   -4.5354   -4.4025   H         1 RES1   0.0000
    46 H9        0.9997   -3.8310   -4.1831   H         1 RES1   0.0000
    47 H10      -2.3367   -2.3750   -2.2403   H         1 RES1   0.0000
    48 H11      -2.3483   -4.0701   -2.7617   H         1 RES1   0.0000
    49 H12      -3.6264   -2.8246   -4.2665   H         1 RES1   0.0000
    50 H13      -2.1753   -3.3186   -5.1414   H         1 RES1   0.0000
    51 H14      -2.5787   -0.5448   -3.9382   H         1 RES1   0.0000
    52 H15      -2.9605   -0.9911   -5.6051   H         1 RES1   0.0000
    53 H16      -0.1808   -1.0318   -4.3391   H         1 RES1   0.0000
    54 H17      -0.7944    0.0618   -5.5836   H         1 RES1   0.0000
    55 H18      -0.5644   -1.6436   -5.9544   H         1 RES1   0.0000
    56 H19       2.6700   -3.6739   -2.8564   H         1 RES1   0.0000
    57 H20       4.7857   -3.1994   -1.7606   H         1 RES1   0.0000
    58 H21       6.0966   -1.9457    0.0471   H         1 RES1   0.0000
    59 H22       6.0886   -0.3033    1.8853   H         1 RES1   0.0000
    60 H23       4.7910    1.3492    3.3135   H         1 RES1   0.0000
    61 H24       2.6971    2.4720    3.8414   H         1 RES1   0.0000
    62 H25      -2.1693    3.4036    4.0602   H         1 RES1   0.0000
    63 H26      -2.2003    1.8665    3.1722   H         1 RES1   0.0000
    64 H27      -2.2023    3.1424    1.0098   H         1 RES1   0.0000
    65 H28      -2.2840    4.6601    1.9235   H         1 RES1   0.0000
    66 H29      -4.4242    3.9141    2.9615   H         1 RES1   0.0000
    67 H30      -4.3822    2.4530    1.9658   H         1 RES1   0.0000
    68 H31      -4.4805    5.3317    0.9355   H         1 RES1   0.0000
    69 H32      -5.8088    4.1859    0.9291   H         1 RES1   0.0000
    70 H33      -4.4022    3.9016   -0.0948   H         1 RES1   0.0000
    71 H34       0.9728    3.2336    4.6557   H         1 RES1   0.0000
    72 H35      -0.3947    4.3313    4.5773   H         1 RES1   0.0000
    73 H36       1.8760    4.3254    2.5273   H         1 RES1   0.0000
    74 H37       1.6882    5.4556    3.8704   H         1 RES1   0.0000
    75 H38      -0.5457    6.1466    2.9172   H         1 RES1   0.0000
    76 H39      -0.2140    5.1009    1.5209   H         1 RES1   0.0000
    77 H40       1.4993    7.4585    2.4195   H         1 RES1   0.0000
    78 H41       0.4054    7.4625    1.0478   H         1 RES1   0.0000
    79 H42       1.8299    6.4274    1.0224   H         1 RES1   0.0000
    80 C31       0.8371    2.0559   -6.1060   C.3       1 RES1   0.0000
    81 C32      -0.1577    3.2102   -6.0538   C.3       1 RES1   0.0000
    82 C33       0.2417    4.3615   -5.1248   C.3       1 RES1   0.0000
    83 C34      -0.0518    4.2028   -3.6208   C.3       1 RES1   0.0000
    84 N5        0.5695    3.0646   -2.9618   N.am      1 RES1   0.0000
    85 C35       2.0338    2.9872   -3.1228   C.3       1 RES1   0.0000
    86 C36       2.8603    4.0990   -2.4671   C.3       1 RES1   0.0000
    87 C37       3.0859    3.9685   -0.9595   C.3       1 RES1   0.0000
    88 C38       4.0546    2.8459   -0.6087   C.3       1 RES1   0.0000
    89 C39      -0.0133    2.1394   -2.2066   C.2       1 RES1   0.0000
    90 O3        0.7196    1.3389   -1.5671   O.2       1 RES1   0.0000
    91 C40      -1.5080    1.8619   -2.0367   C.ar      1 RES1   0.0000
    92 C41      -2.6181    2.2029   -2.8275   C.ar      1 RES1   0.0000
    93 C42      -3.8491    1.6674   -2.5081   C.ar      1 RES1   0.0000
    94 C43      -3.9967    0.7322   -1.4660   C.ar      1 RES1   0.0000
    95 C44      -5.2175    0.0527   -1.1670   C.ar      1 RES1   0.0000
    96 C45      -5.2678   -0.9206   -0.2177   C.ar      1 RES1   0.0000
    97 C46      -4.1008   -1.2989    0.5139   C.ar      1 RES1   0.0000
    98 C47      -4.0597   -2.3684    1.4292   C.ar      1 RES1   0.0000
    99 C48      -2.8803   -2.7545    2.0315   C.ar      1 RES1   0.0000
   100 C49      -1.7161   -2.0253    1.7483   C.ar      1 RES1   0.0000
   101 C50      -0.2589   -2.2803    2.0983   C.2       1 RES1   0.0000
   102 O4        0.5477   -1.6614    1.3599   O.2       1 RES1   0.0000
   103 N6        0.2585   -3.0930    3.0123   N.am      1 RES1   0.0000
   104 C51      -0.3903   -3.6485    4.1853   C.3       1 RES1   0.0000
   105 C52       0.1683   -3.0666    5.4965   C.3       1 RES1   0.0000
   106 C53       0.2237   -1.5386    5.5493   C.3       1 RES1   0.0000
   107 C54      -1.1498   -0.8901    5.4483   C.3       1 RES1   0.0000
   108 C55       1.7277   -3.1876    3.0044   C.3       1 RES1   0.0000
   109 C56       2.3579   -3.9046    1.8038   C.3       1 RES1   0.0000
   110 C57       2.0969   -5.4101    1.7768   C.3       1 RES1   0.0000
   111 C58       2.8325   -6.0849    0.6249   C.3       1 RES1   0.0000
   112 N7       -1.7697   -0.9880    0.9157   N.ar      1 RES1   0.0000
   113 C59      -2.8868   -0.6121    0.2891   C.ar      1 RES1   0.0000
   114 C60      -2.8341    0.4357   -0.7220   C.ar      1 RES1   0.0000
   115 N8       -1.6732    1.0359   -1.0051   N.ar      1 RES1   0.0000
   116 H43       0.5383    1.3504   -6.8762   H         1 RES1   0.0000
   117 H44       0.8899    1.5263   -5.1575   H         1 RES1   0.0000
   118 H45       1.8275    2.4150   -6.3741   H         1 RES1   0.0000
   119 H46      -1.1452    2.8381   -5.7766   H         1 RES1   0.0000
   120 H47      -0.2411    3.6191   -7.0620   H         1 RES1   0.0000
   121 H48      -0.3180    5.2506   -5.4194   H         1 RES1   0.0000
   122 H49       1.2939    4.5948   -5.2852   H         1 RES1   0.0000
   123 H50      -1.1258    4.1890   -3.4547   H         1 RES1   0.0000
   124 H51       0.3299    5.1010   -3.1200   H         1 RES1   0.0000
   125 H52       2.2298    3.0125   -4.1956   H         1 RES1   0.0000
   126 H53       2.3644    2.0206   -2.7400   H         1 RES1   0.0000
   127 H54       2.4227    5.0723   -2.6885   H         1 RES1   0.0000
   128 H55       3.8342    4.0682   -2.9592   H         1 RES1   0.0000
   129 H56       2.1337    3.8117   -0.4440   H         1 RES1   0.0000
   130 H57       3.5058    4.9113   -0.6026   H         1 RES1   0.0000
   131 H58       3.6578    1.8778   -0.9104   H         1 RES1   0.0000
   132 H59       4.2329    2.8336    0.4633   H         1 RES1   0.0000
   133 H60       5.0101    2.9982   -1.1030   H         1 RES1   0.0000
   134 H61      -2.5395    2.8533   -3.6816   H         1 RES1   0.0000
   135 H62      -4.7128    1.9299   -3.0956   H         1 RES1   0.0000
   136 H63      -6.0995    0.3365   -1.7244   H         1 RES1   0.0000
   137 H64      -6.1902   -1.4392    0.0043   H         1 RES1   0.0000
   138 H65      -4.9627   -2.9208    1.6257   H         1 RES1   0.0000
   139 H66      -2.8677   -3.6107    2.6838   H         1 RES1   0.0000
   140 H67      -0.2234   -4.7279    4.1656   H         1 RES1   0.0000
   141 H68      -1.4602   -3.4662    4.1375   H         1 RES1   0.0000
   142 H69       1.1657   -3.4599    5.6971   H         1 RES1   0.0000
   143 H70      -0.4807   -3.4322    6.2911   H         1 RES1   0.0000
   144 H71       0.8721   -1.1525    4.7570   H         1 RES1   0.0000
   145 H72       0.6773   -1.2605    6.5016   H         1 RES1   0.0000
   146 H73      -1.6112   -1.0917    4.4824   H         1 RES1   0.0000
   147 H74      -1.0664    0.1867    5.5701   H         1 RES1   0.0000
   148 H75      -1.7932   -1.2707    6.2359   H         1 RES1   0.0000
   149 H76       2.0350   -3.7197    3.9008   H         1 RES1   0.0000
   150 H77       2.1259   -2.1662    3.0420   H         1 RES1   0.0000
   151 H78       3.4357   -3.7367    1.8921   H         1 RES1   0.0000
   152 H79       2.0252   -3.4489    0.8684   H         1 RES1   0.0000
   153 H80       1.0241   -5.5952    1.6850   H         1 RES1   0.0000
   154 H81       2.4333   -5.8509    2.7169   H         1 RES1   0.0000
   155 H82       2.5705   -5.6352   -0.3310   H         1 RES1   0.0000
   156 H83       2.5765   -7.1381    0.5881   H         1 RES1   0.0000
   157 H84       3.9074   -6.0088    0.7567   H         1 RES1   0.0000
@<TRIPOS>BOND
     1     1    12    1
     2     1    24    1
     3     1    34    1
     4     1    37    1
     5     1    90    1
     6     1   102    1
     7     1   112    1
     8     1   115    1
     9     2     3    1
    10     2    38    1
    11     2    39    1
    12     2    40    1
    13     3     4    1
    14     3    41    1
    15     3    42    1
    16     4     5    1
    17     4    43    1
    18     4    44    1
    19     5     6    1
    20     5    45    1
    21     5    46    1
    22     6     7    1
    23     6    11    1
    24     7     8    1
    25     7    47    1
    26     7    48    1
    27     8     9    1
    28     8    49    1
    29     8    50    1
    30     9    10    1
    31     9    51    1
    32     9    52    1
    33    10    53    1
    34    10    54    1
    35    10    55    1
    36    11    12    2
    37    11    13    1
    38    13    14    1
    39    13    37    2
    40    14    15    2
    41    14    56    1
    42    15    16    1
    43    15    57    1
    44    16    17    1
    45    16    36    2
    46    17    18    2
    47    17    58    1
    48    18    19    1
    49    18    59    1
    50    19    20    1
    51    19    35    2
    52    20    21    2
    53    20    60    1
    54    21    22    1
    55    21    61    1
    56    22    23    1
    57    22    34    2
    58    23    24    2
    59    23    25    1
    60    25    26    1
    61    25    30    1
    62    26    27    1
    63    26    62    1
    64    26    63    1
    65    27    28    1
    66    27    64    1
    67    27    65    1
    68    28    29    1
    69    28    66    1
    70    28    67    1
    71    29    68    1
    72    29    69    1
    73    29    70    1
    74    30    31    1
    75    30    71    1
    76    30    72    1
    77    31    32    1
    78    31    73    1
    79    31    74    1
    80    32    33    1
    81    32    75    1
    82    32    76    1
    83    33    77    1
    84    33    78    1
    85    33    79    1
    86    34    35    1
    87    35    36    1
    88    36    37    1
    89    80    81    1
    90    80   116    1
    91    80   117    1
    92    80   118    1
    93    81    82    1
    94    81   119    1
    95    81   120    1
    96    82    83    1
    97    82   121    1
    98    82   122    1
    99    83    84    1
   100    83   123    1
   101    83   124    1
   102    84    85    1
   103    84    89    1
   104    85    86    1
   105    85   125    1
   106    85   126    1
   107    86    87    1
   108    86   127    1
   109    86   128    1
   110    87    88    1
   111    87   129    1
   112    87   130    1
   113    88   131    1
   114    88   132    1
   115    88   133    1
   116    89    90    2
   117    89    91    1
   118    91    92    1
   119    91   115    2
   120    92    93    2
   121    92   134    1
   122    93    94    1
   123    93   135    1
   124    94    95    1
   125    94   114    2
   126    95    96    2
   127    95   136    1
   128    96    97    1
   129    96   137    1
   130    97    98    1
   131    97   113    2
   132    98    99    2
   133    98   138    1
   134    99   100    1
   135    99   139    1
   136   100   101    1
   137   100   112    2
   138   101   102    2
   139   101   103    1
   140   103   104    1
   141   103   108    1
   142   104   105    1
   143   104   140    1
   144   104   141    1
   145   105   106    1
   146   105   142    1
   147   105   143    1
   148   106   107    1
   149   106   144    1
   150   106   145    1
   151   107   146    1
   152   107   147    1
   153   107   148    1
   154   108   109    1
   155   108   149    1
   156   108   150    1
   157   109   110    1
   158   109   151    1
   159   109   152    1
   160   110   111    1
   161   110   153    1
   162   110   154    1
   163   111   155    1
   164   111   156    1
   165   111   157    1
   166   112   113    1
   167   113   114    1
   168   114   115    1
@<TRIPOS>SUBSTRUCTURE
     1 RES1      157 GROUP             0 ****  ****    0  
