@<TRIPOS>MOLECULE
square_prismatic_0_nunpairedes_0_charge_3 Charge: 3 Unpaired_Electrons: 2 XTB_Unpaired_Electrons: 0 XTB_Charge: 3
   101   116     1     0     0
SMALL
NoCharges
****
Generated from Architector

@<TRIPOS>ATOM
     1 Tm1       0.4214   -0.0361    0.0955   Tm        1 RES1   0.0000
     2 O1        0.7231    1.3500    1.6431   O.2       1 RES1   0.0000
     3 C1       -0.0422    2.2525    2.0766   C.2       1 RES1   0.0000
     4 C2       -1.4347    2.2732    1.5184   C.ar      1 RES1   0.0000
     5 C3       -2.4457    3.2246    1.6974   C.ar      1 RES1   0.0000
     6 C4       -3.6096    3.1552    0.9354   C.ar      1 RES1   0.0000
     7 Cl1      -4.8182    4.3414    1.1304   Cl        1 RES1   0.0000
     8 C5       -3.7426    2.1233   -0.0269   C.ar      1 RES1   0.0000
     9 C6       -4.8472    1.9677   -0.9158   C.ar      1 RES1   0.0000
    10 C7       -4.8368    1.0185   -1.8935   C.ar      1 RES1   0.0000
    11 C8       -3.7283    0.1411   -2.0730   C.ar      1 RES1   0.0000
    12 C9       -3.5791   -0.7922   -3.1286   C.ar      1 RES1   0.0000
    13 Cl2      -4.7725   -0.9891   -4.3325   Cl        1 RES1   0.0000
    14 C10      -2.4041   -1.5333   -3.2242   C.ar      1 RES1   0.0000
    15 C11      -1.3988   -1.3748   -2.2668   C.ar      1 RES1   0.0000
    16 C12      -0.0035   -1.9160   -2.2937   C.2       1 RES1   0.0000
    17 O2        0.7900   -1.4761   -1.4168   O.2       1 RES1   0.0000
    18 N1        0.5012   -2.7295   -3.2003   N.am      1 RES1   0.0000
    19 C13      -0.0947   -3.5449   -4.2406   C.3       1 RES1   0.0000
    20 C14       1.0032   -4.5700   -4.5620   C.3       1 RES1   0.0000
    21 C15       2.2950   -3.8072   -4.2977   C.3       1 RES1   0.0000
    22 C16       1.9395   -2.9705   -3.0838   C.3       1 RES1   0.0000
    23 N2       -1.5637   -0.5553   -1.2334   N.ar      1 RES1   0.0000
    24 C17      -2.6625    0.2015   -1.1455   C.ar      1 RES1   0.0000
    25 C18      -2.6700    1.2061   -0.1104   C.ar      1 RES1   0.0000
    26 N3       -1.5786    1.2671    0.6572   N.ar      1 RES1   0.0000
    27 N4        0.4927    3.1363    2.8959   N.am      1 RES1   0.0000
    28 C19       1.9316    2.9976    3.1373   C.3       1 RES1   0.0000
    29 C20       2.3059    4.2238    3.9484   C.3       1 RES1   0.0000
    30 C21       1.0218    4.5231    4.7079   C.3       1 RES1   0.0000
    31 C22      -0.0809    4.2085    3.6870   C.3       1 RES1   0.0000
    32 H1       -2.3675    4.0270    2.4137   H         1 RES1   0.0000
    33 H2       -5.6910    2.6296   -0.7935   H         1 RES1   0.0000
    34 H3       -5.6726    0.9118   -2.5626   H         1 RES1   0.0000
    35 H4       -2.2923   -2.2151   -4.0438   H         1 RES1   0.0000
    36 H5       -0.3299   -2.9340   -5.1204   H         1 RES1   0.0000
    37 H6       -1.0069   -4.0232   -3.8818   H         1 RES1   0.0000
    38 H7        0.9517   -4.9475   -5.5798   H         1 RES1   0.0000
    39 H8        0.9274   -5.4146   -3.8746   H         1 RES1   0.0000
    40 H9        2.5416   -3.1705   -5.1442   H         1 RES1   0.0000
    41 H10       3.1306   -4.4754   -4.1195   H         1 RES1   0.0000
    42 H11       2.4558   -2.0089   -3.0445   H         1 RES1   0.0000
    43 H12       2.1231   -3.4860   -2.1333   H         1 RES1   0.0000
    44 H13       2.4433    2.9262    2.1742   H         1 RES1   0.0000
    45 H14       2.1065    2.0585    3.6705   H         1 RES1   0.0000
    46 H15       2.5589    5.0462    3.2852   H         1 RES1   0.0000
    47 H16       3.1437    4.0534    4.6145   H         1 RES1   0.0000
    48 H17       0.9920    5.5469    5.0708   H         1 RES1   0.0000
    49 H18       0.9324    3.8469    5.5576   H         1 RES1   0.0000
    50 H19      -0.2856    5.0769    3.0495   H         1 RES1   0.0000
    51 H20      -1.0046    3.8831    4.1710   H         1 RES1   0.0000
    52 O3        0.1999    1.5299   -1.4238   O.2       1 RES1   0.0000
    53 C23       1.0720    2.1583   -2.0780   C.2       1 RES1   0.0000
    54 C24       2.5001    1.8037   -1.7813   C.ar      1 RES1   0.0000
    55 C25       3.6723    2.2568   -2.3953   C.ar      1 RES1   0.0000
    56 C26       4.8981    1.7478   -1.9891   C.ar      1 RES1   0.0000
    57 Cl3       6.3382    2.2922   -2.7296   Cl        1 RES1   0.0000
    58 C27       4.9414    0.7632   -0.9668   C.ar      1 RES1   0.0000
    59 C28       6.1270    0.1463   -0.4816   C.ar      1 RES1   0.0000
    60 C29       6.0802   -0.8250    0.4722   C.ar      1 RES1   0.0000
    61 C30       4.8448   -1.2678    1.0277   C.ar      1 RES1   0.0000
    62 C31       4.6987   -2.3024    1.9871   C.ar      1 RES1   0.0000
    63 Cl4       6.0732   -3.1275    2.5691   Cl        1 RES1   0.0000
    64 C32       3.4311   -2.6580    2.4398   C.ar      1 RES1   0.0000
    65 C33       2.3063   -1.9908    1.9349   C.ar      1 RES1   0.0000
    66 C34       0.8307   -2.2234    2.1942   C.2       1 RES1   0.0000
    67 O4        0.0190   -1.5802    1.4745   O.2       1 RES1   0.0000
    68 N5        0.3131   -3.0527    3.0780   N.am      1 RES1   0.0000
    69 C35      -1.1456   -3.1605    3.0866   C.3       1 RES1   0.0000
    70 C36      -1.4378   -4.3398    3.9973   C.3       1 RES1   0.0000
    71 C37      -0.2641   -4.3125    4.9692   C.3       1 RES1   0.0000
    72 C38       0.9194   -3.8962    4.0890   C.3       1 RES1   0.0000
    73 N6        2.4416   -1.0200    1.0332   N.ar      1 RES1   0.0000
    74 C39       3.6496   -0.6611    0.5867   C.ar      1 RES1   0.0000
    75 C40       3.6962    0.3690   -0.4225   C.ar      1 RES1   0.0000
    76 N7        2.5300    0.8837   -0.8160   N.ar      1 RES1   0.0000
    77 N8        0.6515    3.0263   -2.9782   N.am      1 RES1   0.0000
    78 C41      -0.7929    3.1239   -3.1676   C.3       1 RES1   0.0000
    79 C42      -0.9604    4.0370   -4.3716   C.3       1 RES1   0.0000
    80 C43       0.2742    4.9304   -4.2915   C.3       1 RES1   0.0000
    81 C44       1.3710    3.9831   -3.7956   C.3       1 RES1   0.0000
    82 H21       3.6596    2.9875   -3.1847   H         1 RES1   0.0000
    83 H22       7.0752    0.4570   -0.8892   H         1 RES1   0.0000
    84 H23       6.9889   -1.2860    0.8175   H         1 RES1   0.0000
    85 H24       3.3488   -3.4530    3.1634   H         1 RES1   0.0000
    86 H25      -1.5055   -3.2951    2.0633   H         1 RES1   0.0000
    87 H26      -1.5661   -2.2200    3.4600   H         1 RES1   0.0000
    88 H27      -1.4391   -5.2696    3.4306   H         1 RES1   0.0000
    89 H28      -2.3866   -4.2511    4.5153   H         1 RES1   0.0000
    90 H29      -0.1024   -5.2726    5.4493   H         1 RES1   0.0000
    91 H30      -0.4340   -3.5619    5.7415   H         1 RES1   0.0000
    92 H31       1.3765   -4.7679    3.6082   H         1 RES1   0.0000
    93 H32       1.6733   -3.3428    4.6515   H         1 RES1   0.0000
    94 H33      -1.2452    3.5340   -2.2586   H         1 RES1   0.0000
    95 H34      -1.2087    2.1242   -3.3175   H         1 RES1   0.0000
    96 H35      -1.8780    4.6167   -4.3424   H         1 RES1   0.0000
    97 H36      -0.9528    3.4528   -5.2908   H         1 RES1   0.0000
    98 H37       0.1170    5.7232   -3.5586   H         1 RES1   0.0000
    99 H38       0.5168    5.3850   -5.2481   H         1 RES1   0.0000
   100 H39       2.1222    4.4995   -3.1960   H         1 RES1   0.0000
   101 H40       1.8550    3.4637   -4.6293   H         1 RES1   0.0000
@<TRIPOS>BOND
     1     1     2    1
     2     1    17    1
     3     1    23    1
     4     1    26    1
     5     1    52    1
     6     1    67    1
     7     1    73    1
     8     1    76    1
     9     2     3    2
    10     3     4    1
    11     3    27    1
    12     4     5    1
    13     4    26    2
    14     5     6    2
    15     5    32    1
    16     6     7    1
    17     6     8    1
    18     8     9    1
    19     8    25    2
    20     9    10    2
    21     9    33    1
    22    10    11    1
    23    10    34    1
    24    11    12    1
    25    11    24    2
    26    12    13    1
    27    12    14    2
    28    14    15    1
    29    14    35    1
    30    15    16    1
    31    15    23    2
    32    16    17    2
    33    16    18    1
    34    18    19    1
    35    18    22    1
    36    19    20    1
    37    19    36    1
    38    19    37    1
    39    20    21    1
    40    20    38    1
    41    20    39    1
    42    21    22    1
    43    21    40    1
    44    21    41    1
    45    22    42    1
    46    22    43    1
    47    23    24    1
    48    24    25    1
    49    25    26    1
    50    27    28    1
    51    27    31    1
    52    28    29    1
    53    28    44    1
    54    28    45    1
    55    29    30    1
    56    29    46    1
    57    29    47    1
    58    30    31    1
    59    30    48    1
    60    30    49    1
    61    31    50    1
    62    31    51    1
    63    52    53    2
    64    53    54    1
    65    53    77    1
    66    54    55    1
    67    54    76    2
    68    55    56    2
    69    55    82    1
    70    56    57    1
    71    56    58    1
    72    58    59    1
    73    58    75    2
    74    59    60    2
    75    59    83    1
    76    60    61    1
    77    60    84    1
    78    61    62    1
    79    61    74    2
    80    62    63    1
    81    62    64    2
    82    64    65    1
    83    64    85    1
    84    65    66    1
    85    65    73    2
    86    66    67    2
    87    66    68    1
    88    68    69    1
    89    68    72    1
    90    69    70    1
    91    69    86    1
    92    69    87    1
    93    70    71    1
    94    70    88    1
    95    70    89    1
    96    71    72    1
    97    71    90    1
    98    71    91    1
    99    72    92    1
   100    72    93    1
   101    73    74    1
   102    74    75    1
   103    75    76    1
   104    77    78    1
   105    77    81    1
   106    78    79    1
   107    78    94    1
   108    78    95    1
   109    79    80    1
   110    79    96    1
   111    79    97    1
   112    80    81    1
   113    80    98    1
   114    80    99    1
   115    81   100    1
   116    81   101    1
@<TRIPOS>SUBSTRUCTURE
     1 RES1      101 GROUP             0 ****  ****    0  
