@<TRIPOS>MOLECULE
YEMSEP_geometry_0_nunpairedes_0_charge_2 Charge: 2 Unpaired_Electrons: 2 XTB_Unpaired_Electrons: 0 XTB_Charge: 2
   231   235     1     0     0
SMALL
NoCharges
****
Generated from Architector

@<TRIPOS>ATOM
     1 Tm1       0.1475    0.3778    0.0567   Tm        1 RES1   0.0000
     2 C1        1.3996    6.1287    0.0037   C.3       1 RES1   0.0000
     3 C2        1.7544    5.8522    1.4586   C.3       1 RES1   0.0000
     4 C3        2.0518    4.3786    1.7574   C.3       1 RES1   0.0000
     5 C4        2.9657    3.6784    0.7480   C.3       1 RES1   0.0000
     6 C5        4.3206    4.3730    0.5977   C.3       1 RES1   0.0000
     7 C6        5.2650    3.7033   -0.4086   C.3       1 RES1   0.0000
     8 C7        5.2149    4.2806   -1.8272   C.3       1 RES1   0.0000
     9 C8        3.8721    4.1774   -2.5499   C.3       1 RES1   0.0000
    10 C9        3.4243    2.7332   -2.7775   C.3       1 RES1   0.0000
    11 C10       1.9929    2.7176   -3.3100   C.3       1 RES1   0.0000
    12 N1        1.4945    1.3724   -3.6018   N.am      1 RES1   0.0000
    13 C11       0.9826    1.1168   -4.9407   C.3       1 RES1   0.0000
    14 C12      -0.5536    1.2272   -4.9740   C.3       1 RES1   0.0000
    15 C13      -1.0334    2.6420   -5.3069   C.3       1 RES1   0.0000
    16 C14      -2.5534    2.8068   -5.1920   C.3       1 RES1   0.0000
    17 C15      -3.0265    2.9818   -3.7455   C.3       1 RES1   0.0000
    18 C16      -4.4466    3.5552   -3.6123   C.3       1 RES1   0.0000
    19 C17      -5.5448    2.5361   -3.3041   C.3       1 RES1   0.0000
    20 C18      -6.0776    1.7552   -4.5111   C.3       1 RES1   0.0000
    21 C19      -7.3576    2.3508   -5.1010   C.3       1 RES1   0.0000
    22 C20      -7.1494    3.7151   -5.7476   C.3       1 RES1   0.0000
    23 C21       1.3721    0.5139   -2.6103   C.2       1 RES1   0.0000
    24 O1        1.6668    0.7954   -1.4194   O.2       1 RES1   0.0000
    25 C22       0.9139   -0.9294   -2.8599   C.3       1 RES1   0.0000
    26 O2       -0.0104   -1.2975   -1.8250   O.3       1 RES1   0.0000
    27 C23       0.1010   -2.6601   -1.4331   C.3       1 RES1   0.0000
    28 C24       1.0927   -2.7569   -0.2486   C.2       1 RES1   0.0000
    29 O3        1.4214   -1.6742    0.2742   O.2       1 RES1   0.0000
    30 N2        1.4968   -3.9570    0.1419   N.am      1 RES1   0.0000
    31 C25       0.9172   -5.1856   -0.4088   C.3       1 RES1   0.0000
    32 C26       1.6496   -5.7791   -1.6198   C.3       1 RES1   0.0000
    33 C27       3.0546   -6.3245   -1.3533   C.3       1 RES1   0.0000
    34 C28       3.0948   -7.4866   -0.3608   C.3       1 RES1   0.0000
    35 C29       4.5160   -8.0026   -0.1308   C.3       1 RES1   0.0000
    36 C30       5.3999   -7.0239    0.6334   C.3       1 RES1   0.0000
    37 C31       2.4072   -4.2166    1.2678   C.3       1 RES1   0.0000
    38 C32       3.4035   -3.1438    1.7056   C.3       1 RES1   0.0000
    39 C33       4.2774   -3.7350    2.8250   C.3       1 RES1   0.0000
    40 C34       5.1339   -2.7129    3.5734   C.3       1 RES1   0.0000
    41 C35       6.0229   -3.3699    4.6328   C.3       1 RES1   0.0000
    42 C36       5.2285   -4.0431    5.7474   C.3       1 RES1   0.0000
    43 H1        0.9719    7.1220   -0.0869   H         1 RES1   0.0000
    44 H2        0.6756    5.4039   -0.3572   H         1 RES1   0.0000
    45 H3        2.2772    6.0949   -0.6359   H         1 RES1   0.0000
    46 H4        0.9141    6.1516    2.0887   H         1 RES1   0.0000
    47 H5        2.6051    6.4712    1.7488   H         1 RES1   0.0000
    48 H6        1.1066    3.8290    1.7790   H         1 RES1   0.0000
    49 H7        2.5016    4.3140    2.7500   H         1 RES1   0.0000
    50 H8        2.4546    3.6300   -0.2127   H         1 RES1   0.0000
    51 H9        3.1174    2.6405    1.0816   H         1 RES1   0.0000
    52 H10       4.8006    4.3920    1.5783   H         1 RES1   0.0000
    53 H11       4.1650    5.4091    0.3005   H         1 RES1   0.0000
    54 H12       5.0682    2.6296   -0.4312   H         1 RES1   0.0000
    55 H13       6.2922    3.8315   -0.0601   H         1 RES1   0.0000
    56 H14       5.9736    3.7737   -2.4271   H         1 RES1   0.0000
    57 H15       5.4910    5.3355   -1.7802   H         1 RES1   0.0000
    58 H16       3.9589    4.6805   -3.5154   H         1 RES1   0.0000
    59 H17       3.1093    4.7070   -1.9792   H         1 RES1   0.0000
    60 H18       3.4615    2.1880   -1.8348   H         1 RES1   0.0000
    61 H19       4.0902    2.2405   -3.4895   H         1 RES1   0.0000
    62 H20       1.9366    3.2938   -4.2313   H         1 RES1   0.0000
    63 H21       1.3374    3.1990   -2.5809   H         1 RES1   0.0000
    64 H22       1.3235    0.1383   -5.2796   H         1 RES1   0.0000
    65 H23       1.4165    1.8561   -5.6158   H         1 RES1   0.0000
    66 H24      -0.9576    0.9347   -4.0019   H         1 RES1   0.0000
    67 H25      -0.9433    0.5380   -5.7250   H         1 RES1   0.0000
    68 H26      -0.7233    2.8884   -6.3251   H         1 RES1   0.0000
    69 H27      -0.5645    3.3551   -4.6292   H         1 RES1   0.0000
    70 H28      -3.0470    1.9503   -5.6536   H         1 RES1   0.0000
    71 H29      -2.8395    3.6932   -5.7609   H         1 RES1   0.0000
    72 H30      -2.3396    3.6676   -3.2466   H         1 RES1   0.0000
    73 H31      -2.9547    2.0265   -3.2175   H         1 RES1   0.0000
    74 H32      -4.6978    4.1035   -4.5168   H         1 RES1   0.0000
    75 H33      -4.4479    4.2750   -2.7919   H         1 RES1   0.0000
    76 H34      -6.3835    3.0517   -2.8287   H         1 RES1   0.0000
    77 H35      -5.1530    1.8401   -2.5582   H         1 RES1   0.0000
    78 H36      -6.3042    0.7329   -4.2017   H         1 RES1   0.0000
    79 H37      -5.3120    1.7017   -5.2854   H         1 RES1   0.0000
    80 H38      -8.1112    2.4313   -4.3120   H         1 RES1   0.0000
    81 H39      -7.7467    1.6579   -5.8519   H         1 RES1   0.0000
    82 H40      -6.9006    4.4688   -5.0043   H         1 RES1   0.0000
    83 H41      -8.0587    4.0293   -6.2537   H         1 RES1   0.0000
    84 H42      -6.3461    3.6658   -6.4803   H         1 RES1   0.0000
    85 H43       1.8103   -1.5608   -2.7998   H         1 RES1   0.0000
    86 H44       0.4239   -1.0695   -3.8271   H         1 RES1   0.0000
    87 H45       0.3980   -3.2866   -2.2795   H         1 RES1   0.0000
    88 H46      -0.9001   -2.9571   -1.0965   H         1 RES1   0.0000
    89 H47      -0.1203   -4.9958   -0.6830   H         1 RES1   0.0000
    90 H48       0.9106   -5.9270    0.3911   H         1 RES1   0.0000
    91 H49       1.7093   -5.0334   -2.4170   H         1 RES1   0.0000
    92 H50       1.0303   -6.6033   -1.9791   H         1 RES1   0.0000
    93 H51       3.7086   -5.5141   -1.0311   H         1 RES1   0.0000
    94 H52       3.4435   -6.6888   -2.3058   H         1 RES1   0.0000
    95 H53       2.4779   -8.2985   -0.7506   H         1 RES1   0.0000
    96 H54       2.6759   -7.1946    0.6046   H         1 RES1   0.0000
    97 H55       4.9744   -8.2317   -1.0929   H         1 RES1   0.0000
    98 H56       4.4572   -8.9316    0.4364   H         1 RES1   0.0000
    99 H57       5.5638   -6.1086    0.0708   H         1 RES1   0.0000
   100 H58       6.3713   -7.4702    0.8213   H         1 RES1   0.0000
   101 H59       4.9543   -6.7743    1.5946   H         1 RES1   0.0000
   102 H60       2.9956   -5.0858    0.9766   H         1 RES1   0.0000
   103 H61       1.7928   -4.5109    2.1295   H         1 RES1   0.0000
   104 H62       2.8960   -2.2463    2.0564   H         1 RES1   0.0000
   105 H63       4.0324   -2.8512    0.8637   H         1 RES1   0.0000
   106 H64       4.9426   -4.4852    2.3957   H         1 RES1   0.0000
   107 H65       3.6302   -4.2387    3.5464   H         1 RES1   0.0000
   108 H66       4.4893   -1.9875    4.0731   H         1 RES1   0.0000
   109 H67       5.7629   -2.1723    2.8645   H         1 RES1   0.0000
   110 H68       6.6614   -2.6027    5.0729   H         1 RES1   0.0000
   111 H69       6.6747   -4.1062    4.1620   H         1 RES1   0.0000
   112 H70       4.5138   -3.3494    6.1879   H         1 RES1   0.0000
   113 H71       5.8969   -4.3796    6.5349   H         1 RES1   0.0000
   114 H72       4.6866   -4.9129    5.3838   H         1 RES1   0.0000
   115 C37      -3.2118    6.9852   -3.5682   C.3       1 RES1   0.0000
   116 C38      -2.4797    7.8040   -2.5122   C.3       1 RES1   0.0000
   117 C39      -1.6065    6.9477   -1.5947   C.3       1 RES1   0.0000
   118 C40      -2.3691    6.0178   -0.6467   C.3       1 RES1   0.0000
   119 C41      -2.9355    6.7425    0.5771   C.3       1 RES1   0.0000
   120 C42      -3.2355    5.8413    1.7826   C.3       1 RES1   0.0000
   121 C43      -4.6295    5.2104    1.7839   C.3       1 RES1   0.0000
   122 C44      -4.8116    4.0369    0.8185   C.3       1 RES1   0.0000
   123 C45      -4.2062    2.7252    1.3283   C.3       1 RES1   0.0000
   124 C46      -4.4808    1.6183    0.3057   C.3       1 RES1   0.0000
   125 N3       -4.1831    0.2707    0.7895   N.am      1 RES1   0.0000
   126 C47      -5.2465   -0.7182    0.8794   C.3       1 RES1   0.0000
   127 C48      -5.2329   -1.6664   -0.3309   C.3       1 RES1   0.0000
   128 C49      -5.9032   -1.0901   -1.5819   C.3       1 RES1   0.0000
   129 C50      -5.2991   -1.6599   -2.8698   C.3       1 RES1   0.0000
   130 C51      -3.9384   -1.0422   -3.2149   C.3       1 RES1   0.0000
   131 C52      -3.4797   -1.3315   -4.6537   C.3       1 RES1   0.0000
   132 C53      -2.3209   -2.3234   -4.7492   C.3       1 RES1   0.0000
   133 C54      -2.6634   -3.7609   -4.3459   C.3       1 RES1   0.0000
   134 C55      -3.2106   -4.6330   -5.4799   C.3       1 RES1   0.0000
   135 C56      -4.6077   -4.2549   -5.9613   C.3       1 RES1   0.0000
   136 C57      -2.9169   -0.0599    0.9703   C.2       1 RES1   0.0000
   137 O4       -1.9695    0.7148    0.7410   O.2       1 RES1   0.0000
   138 C58      -2.5561   -1.4484    1.5211   C.3       1 RES1   0.0000
   139 O5       -1.1450   -1.6267    1.4206   O.3       1 RES1   0.0000
   140 C59      -0.4526   -1.8403    2.6454   C.3       1 RES1   0.0000
   141 C60       0.5588   -0.7128    2.9068   C.2       1 RES1   0.0000
   142 O6        0.5428    0.2772    2.1470   O.2       1 RES1   0.0000
   143 N4        1.4211   -0.8414    3.9047   N.am      1 RES1   0.0000
   144 C61       1.5119   -2.0470    4.7163   C.3       1 RES1   0.0000
   145 C62       0.3879   -2.2205    5.7502   C.3       1 RES1   0.0000
   146 C63       0.6548   -1.5656    7.1058   C.3       1 RES1   0.0000
   147 C64       1.8226   -2.1905    7.8644   C.3       1 RES1   0.0000
   148 C65       1.9842   -1.5990    9.2635   C.3       1 RES1   0.0000
   149 C66       2.3830   -0.1293    9.2415   C.3       1 RES1   0.0000
   150 C67       2.4971    0.1505    3.9900   C.3       1 RES1   0.0000
   151 C68       2.7641    0.7112    5.3820   C.3       1 RES1   0.0000
   152 C69       4.1155    1.4330    5.4157   C.3       1 RES1   0.0000
   153 C70       4.1689    2.6375    4.4788   C.3       1 RES1   0.0000
   154 C71       5.4256    3.4849    4.6722   C.3       1 RES1   0.0000
   155 C72       6.6936    2.7596    4.2356   C.3       1 RES1   0.0000
   156 H73      -3.6468    7.6351   -4.3219   H         1 RES1   0.0000
   157 H74      -2.5231    6.3014   -4.0603   H         1 RES1   0.0000
   158 H75      -4.0157    6.4060   -3.1253   H         1 RES1   0.0000
   159 H76      -1.8279    8.5216   -3.0150   H         1 RES1   0.0000
   160 H77      -3.1981    8.3735   -1.9202   H         1 RES1   0.0000
   161 H78      -0.9447    6.3375   -2.2151   H         1 RES1   0.0000
   162 H79      -0.9769    7.6112   -0.9991   H         1 RES1   0.0000
   163 H80      -3.1644    5.5250   -1.2060   H         1 RES1   0.0000
   164 H81      -1.6794    5.2416   -0.3052   H         1 RES1   0.0000
   165 H82      -2.1997    7.4850    0.8937   H         1 RES1   0.0000
   166 H83      -3.8407    7.2866    0.3033   H         1 RES1   0.0000
   167 H84      -2.4722    5.0653    1.8562   H         1 RES1   0.0000
   168 H85      -3.1598    6.4513    2.6850   H         1 RES1   0.0000
   169 H86      -4.8704    4.8700    2.7946   H         1 RES1   0.0000
   170 H87      -5.3563    5.9851    1.5306   H         1 RES1   0.0000
   171 H88      -5.8821    3.8850    0.6578   H         1 RES1   0.0000
   172 H89      -4.3621    4.2839   -0.1421   H         1 RES1   0.0000
   173 H90      -3.1300    2.8381    1.4733   H         1 RES1   0.0000
   174 H91      -4.6550    2.4621    2.2897   H         1 RES1   0.0000
   175 H92      -5.5354    1.6467    0.0344   H         1 RES1   0.0000
   176 H93      -3.8805    1.8110   -0.5888   H         1 RES1   0.0000
   177 H94      -5.1194   -1.2825    1.8043   H         1 RES1   0.0000
   178 H95      -6.2049   -0.2017    0.9359   H         1 RES1   0.0000
   179 H96      -4.1994   -1.9023   -0.5891   H         1 RES1   0.0000
   180 H97      -5.7282   -2.5984   -0.0573   H         1 RES1   0.0000
   181 H98      -6.9726   -1.3028   -1.5502   H         1 RES1   0.0000
   182 H99      -5.7895   -0.0074   -1.6028   H         1 RES1   0.0000
   183 H100     -5.2122   -2.7441   -2.7803   H         1 RES1   0.0000
   184 H101     -5.9891   -1.4537   -3.6886   H         1 RES1   0.0000
   185 H102     -4.0166    0.0380   -3.0930   H         1 RES1   0.0000
   186 H103     -3.1701   -1.3782   -2.5095   H         1 RES1   0.0000
   187 H104     -4.3234   -1.6901   -5.2357   H         1 RES1   0.0000
   188 H105     -3.1483   -0.3992   -5.1142   H         1 RES1   0.0000
   189 H106     -1.9330   -2.3281   -5.7707   H         1 RES1   0.0000
   190 H107     -1.5204   -1.9544   -4.1002   H         1 RES1   0.0000
   191 H108     -1.7531   -4.2458   -3.9763   H         1 RES1   0.0000
   192 H109     -3.3808   -3.7453   -3.5248   H         1 RES1   0.0000
   193 H110     -2.5164   -4.6004   -6.3233   H         1 RES1   0.0000
   194 H111     -3.2381   -5.6654   -5.1211   H         1 RES1   0.0000
   195 H112     -4.5934   -3.3407   -6.5491   H         1 RES1   0.0000
   196 H113     -5.0022   -5.0466   -6.5937   H         1 RES1   0.0000
   197 H114     -5.2837   -4.1229   -5.1187   H         1 RES1   0.0000
   198 H115     -2.8999   -1.5215    2.5590   H         1 RES1   0.0000
   199 H116     -3.0309   -2.2508    0.9489   H         1 RES1   0.0000
   200 H117     -1.1549   -1.9218    3.4792   H         1 RES1   0.0000
   201 H118      0.0758   -2.7970    2.5503   H         1 RES1   0.0000
   202 H119      2.4712   -2.0264    5.2313   H         1 RES1   0.0000
   203 H120      1.5273   -2.9111    4.0468   H         1 RES1   0.0000
   204 H121     -0.5433   -1.8110    5.3572   H         1 RES1   0.0000
   205 H122      0.2432   -3.2910    5.9066   H         1 RES1   0.0000
   206 H123      0.8139   -0.4987    6.9621   H         1 RES1   0.0000
   207 H124     -0.2430   -1.6827    7.7152   H         1 RES1   0.0000
   208 H125      1.6578   -3.2670    7.9465   H         1 RES1   0.0000
   209 H126      2.7589   -2.0453    7.3207   H         1 RES1   0.0000
   210 H127      1.0516   -1.7181    9.8166   H         1 RES1   0.0000
   211 H128      2.7511   -2.1662    9.7910   H         1 RES1   0.0000
   212 H129      1.5936    0.4895    8.8252   H         1 RES1   0.0000
   213 H130      2.5799    0.2167   10.2504   H         1 RES1   0.0000
   214 H131      3.2866    0.0145    8.6538   H         1 RES1   0.0000
   215 H132      3.4130   -0.3141    3.6082   H         1 RES1   0.0000
   216 H133      2.2278    0.9671    3.3194   H         1 RES1   0.0000
   217 H134      1.9674    1.4032    5.6625   H         1 RES1   0.0000
   218 H135      2.7910   -0.0929    6.1171   H         1 RES1   0.0000
   219 H136      4.2981    1.7722    6.4365   H         1 RES1   0.0000
   220 H137      4.9050    0.7237    5.1582   H         1 RES1   0.0000
   221 H138      4.1292    2.3052    3.4397   H         1 RES1   0.0000
   222 H139      3.2928    3.2601    4.6679   H         1 RES1   0.0000
   223 H140      5.3191    4.3996    4.0850   H         1 RES1   0.0000
   224 H141      5.5139    3.7784    5.7200   H         1 RES1   0.0000
   225 H142      6.5921    2.3994    3.2123   H         1 RES1   0.0000
   226 H143      7.5443    3.4349    4.2782   H         1 RES1   0.0000
   227 H144      6.9031    1.9122    4.8847   H         1 RES1   0.0000
   228 N5       -0.4593    2.4125   -1.0126   N.3       1 RES1   0.0000
   229 O7       -0.5109    3.4087   -1.6604   O.2       1 RES1   0.0000
   230 O8       -0.8937    1.3373   -1.4693   O.co2     1 RES1   0.0000
   231 O9        0.0433    2.4009    0.1158   O.co2     1 RES1   0.0000
@<TRIPOS>BOND
     1     1    24    1
     2     1    26    1
     3     1    29    1
     4     1   137    1
     5     1   139    1
     6     1   142    1
     7     1   230    1
     8     1   231    1
     9     2     3    1
    10     2    43    1
    11     2    44    1
    12     2    45    1
    13     3     4    1
    14     3    46    1
    15     3    47    1
    16     4     5    1
    17     4    48    1
    18     4    49    1
    19     5     6    1
    20     5    50    1
    21     5    51    1
    22     6     7    1
    23     6    52    1
    24     6    53    1
    25     7     8    1
    26     7    54    1
    27     7    55    1
    28     8     9    1
    29     8    56    1
    30     8    57    1
    31     9    10    1
    32     9    58    1
    33     9    59    1
    34    10    11    1
    35    10    60    1
    36    10    61    1
    37    11    12    1
    38    11    62    1
    39    11    63    1
    40    12    13    1
    41    12    23    1
    42    13    14    1
    43    13    64    1
    44    13    65    1
    45    14    15    1
    46    14    66    1
    47    14    67    1
    48    15    16    1
    49    15    68    1
    50    15    69    1
    51    16    17    1
    52    16    70    1
    53    16    71    1
    54    17    18    1
    55    17    72    1
    56    17    73    1
    57    18    19    1
    58    18    74    1
    59    18    75    1
    60    19    20    1
    61    19    76    1
    62    19    77    1
    63    20    21    1
    64    20    78    1
    65    20    79    1
    66    21    22    1
    67    21    80    1
    68    21    81    1
    69    22    82    1
    70    22    83    1
    71    22    84    1
    72    23    24    2
    73    23    25    1
    74    25    26    1
    75    25    85    1
    76    25    86    1
    77    26    27    1
    78    27    28    1
    79    27    87    1
    80    27    88    1
    81    28    29    2
    82    28    30    1
    83    30    31    1
    84    30    37    1
    85    31    32    1
    86    31    89    1
    87    31    90    1
    88    32    33    1
    89    32    91    1
    90    32    92    1
    91    33    34    1
    92    33    93    1
    93    33    94    1
    94    34    35    1
    95    34    95    1
    96    34    96    1
    97    35    36    1
    98    35    97    1
    99    35    98    1
   100    36    99    1
   101    36   100    1
   102    36   101    1
   103    37    38    1
   104    37   102    1
   105    37   103    1
   106    38    39    1
   107    38   104    1
   108    38   105    1
   109    39    40    1
   110    39   106    1
   111    39   107    1
   112    40    41    1
   113    40   108    1
   114    40   109    1
   115    41    42    1
   116    41   110    1
   117    41   111    1
   118    42   112    1
   119    42   113    1
   120    42   114    1
   121   115   116    1
   122   115   156    1
   123   115   157    1
   124   115   158    1
   125   116   117    1
   126   116   159    1
   127   116   160    1
   128   117   118    1
   129   117   161    1
   130   117   162    1
   131   118   119    1
   132   118   163    1
   133   118   164    1
   134   119   120    1
   135   119   165    1
   136   119   166    1
   137   120   121    1
   138   120   167    1
   139   120   168    1
   140   121   122    1
   141   121   169    1
   142   121   170    1
   143   122   123    1
   144   122   171    1
   145   122   172    1
   146   123   124    1
   147   123   173    1
   148   123   174    1
   149   124   125    1
   150   124   175    1
   151   124   176    1
   152   125   126    1
   153   125   136    1
   154   126   127    1
   155   126   177    1
   156   126   178    1
   157   127   128    1
   158   127   179    1
   159   127   180    1
   160   128   129    1
   161   128   181    1
   162   128   182    1
   163   129   130    1
   164   129   183    1
   165   129   184    1
   166   130   131    1
   167   130   185    1
   168   130   186    1
   169   131   132    1
   170   131   187    1
   171   131   188    1
   172   132   133    1
   173   132   189    1
   174   132   190    1
   175   133   134    1
   176   133   191    1
   177   133   192    1
   178   134   135    1
   179   134   193    1
   180   134   194    1
   181   135   195    1
   182   135   196    1
   183   135   197    1
   184   136   137    2
   185   136   138    1
   186   138   139    1
   187   138   198    1
   188   138   199    1
   189   139   140    1
   190   140   141    1
   191   140   200    1
   192   140   201    1
   193   141   142    2
   194   141   143    1
   195   143   144    1
   196   143   150    1
   197   144   145    1
   198   144   202    1
   199   144   203    1
   200   145   146    1
   201   145   204    1
   202   145   205    1
   203   146   147    1
   204   146   206    1
   205   146   207    1
   206   147   148    1
   207   147   208    1
   208   147   209    1
   209   148   149    1
   210   148   210    1
   211   148   211    1
   212   149   212    1
   213   149   213    1
   214   149   214    1
   215   150   151    1
   216   150   215    1
   217   150   216    1
   218   151   152    1
   219   151   217    1
   220   151   218    1
   221   152   153    1
   222   152   219    1
   223   152   220    1
   224   153   154    1
   225   153   221    1
   226   153   222    1
   227   154   155    1
   228   154   223    1
   229   154   224    1
   230   155   225    1
   231   155   226    1
   232   155   227    1
   233   228   229    2
   234   228   230    1
   235   228   231    1
@<TRIPOS>SUBSTRUCTURE
     1 RES1      231 GROUP             0 ****  ****    0  
