@<TRIPOS>MOLECULE
ICIGOT_geomtry_0_nunpairedes_0_charge_2 Charge: 2 Unpaired_Electrons: 2 XTB_Unpaired_Electrons: 0 XTB_Charge: 2
   111   115     1     0     0
SMALL
NoCharges
****
Generated from Architector

@<TRIPOS>ATOM
     1 Tm1      -0.2871   -0.0836   -0.2160   Tm        1 RES1   0.0000
     2 C1       -0.5420    0.7052    7.4615   C.3       1 RES1   0.0000
     3 C2       -1.2820    0.4843    6.1476   C.3       1 RES1   0.0000
     4 C3       -0.6323   -0.6480    5.3465   C.3       1 RES1   0.0000
     5 N1       -1.1711   -0.8029    3.9999   N.am      1 RES1   0.0000
     6 C4       -2.2802   -1.7477    3.8027   C.3       1 RES1   0.0000
     7 C5       -3.5527   -1.1133    3.2339   C.3       1 RES1   0.0000
     8 C6       -4.1582   -0.0401    4.1292   C.3       1 RES1   0.0000
     9 C7       -0.6841   -0.1743    2.9391   C.2       1 RES1   0.0000
    10 O1       -1.0941   -0.4073    1.7837   O.2       1 RES1   0.0000
    11 C8        0.4477    0.8590    3.1078   C.3       1 RES1   0.0000
    12 O2        0.7149    1.4850    1.8606   O.3       1 RES1   0.0000
    13 C9        0.3861    2.8637    1.7330   C.3       1 RES1   0.0000
    14 C10      -0.5624    3.0336    0.5334   C.2       1 RES1   0.0000
    15 O3       -0.9542    1.9952   -0.0518   O.2       1 RES1   0.0000
    16 N2       -0.9592    4.2317    0.1505   N.am      1 RES1   0.0000
    17 C11      -0.5576    5.4936    0.7592   C.3       1 RES1   0.0000
    18 C12       0.3670    6.3284   -0.1363   C.3       1 RES1   0.0000
    19 C13       1.6669    5.6149   -0.4840   C.3       1 RES1   0.0000
    20 C14      -1.8634    4.2931   -1.0012   C.3       1 RES1   0.0000
    21 C15      -1.1925    3.9506   -2.3358   C.3       1 RES1   0.0000
    22 C16      -2.2401    3.9928   -3.4427   C.3       1 RES1   0.0000
    23 H1       -1.0005    1.5170    8.0174   H         1 RES1   0.0000
    24 H2       -0.5738   -0.1896    8.0768   H         1 RES1   0.0000
    25 H3        0.4998    0.9615    7.2836   H         1 RES1   0.0000
    26 H4       -2.3226    0.2339    6.3492   H         1 RES1   0.0000
    27 H5       -1.2694    1.4021    5.5575   H         1 RES1   0.0000
    28 H6        0.4457   -0.4821    5.2878   H         1 RES1   0.0000
    29 H7       -0.7815   -1.5825    5.8933   H         1 RES1   0.0000
    30 H8       -1.9464   -2.5301    3.1115   H         1 RES1   0.0000
    31 H9       -2.5001   -2.2014    4.7694   H         1 RES1   0.0000
    32 H10      -3.3349   -0.7019    2.2461   H         1 RES1   0.0000
    33 H11      -4.2739   -1.9217    3.1058   H         1 RES1   0.0000
    34 H12      -3.5013    0.8224    4.2122   H         1 RES1   0.0000
    35 H13      -5.0994    0.2936    3.7039   H         1 RES1   0.0000
    36 H14      -4.3675   -0.4239    5.1253   H         1 RES1   0.0000
    37 H15       0.2047    1.5870    3.8876   H         1 RES1   0.0000
    38 H16       1.3590    0.3257    3.4124   H         1 RES1   0.0000
    39 H17      -0.0826    3.2416    2.6487   H         1 RES1   0.0000
    40 H18       1.3125    3.4250    1.5500   H         1 RES1   0.0000
    41 H19      -1.4600    6.0765    0.9711   H         1 RES1   0.0000
    42 H20      -0.0557    5.2975    1.7045   H         1 RES1   0.0000
    43 H21      -0.1562    6.6026   -1.0514   H         1 RES1   0.0000
    44 H22       0.5966    7.2525    0.3978   H         1 RES1   0.0000
    45 H23       1.4813    4.6680   -0.9867   H         1 RES1   0.0000
    46 H24       2.2592    6.2391   -1.1466   H         1 RES1   0.0000
    47 H25       2.2570    5.4230    0.4085   H         1 RES1   0.0000
    48 H26      -2.6706    3.5738   -0.8263   H         1 RES1   0.0000
    49 H27      -2.2788    5.3010   -1.0468   H         1 RES1   0.0000
    50 H28      -0.4007    4.6731   -2.5424   H         1 RES1   0.0000
    51 H29      -0.7457    2.9505   -2.2898   H         1 RES1   0.0000
    52 H30      -2.6962    4.9775   -3.5053   H         1 RES1   0.0000
    53 H31      -1.7847    3.7689   -4.4010   H         1 RES1   0.0000
    54 H32      -3.0244    3.2633   -3.2580   H         1 RES1   0.0000
    55 C17       2.9135   -4.6442    4.8445   C.3       1 RES1   0.0000
    56 C18       2.8240   -3.2983    4.1361   C.3       1 RES1   0.0000
    57 C19       3.2935   -3.4167    2.6789   C.3       1 RES1   0.0000
    58 N3        3.0923   -2.1622    1.9689   N.am      1 RES1   0.0000
    59 C20       4.0850   -1.1191    2.2436   C.3       1 RES1   0.0000
    60 C21       5.0140   -0.8525    1.0573   C.3       1 RES1   0.0000
    61 C22       5.8686   -2.0515    0.6672   C.3       1 RES1   0.0000
    62 C23       1.9956   -1.8647    1.2785   C.2       1 RES1   0.0000
    63 O4        1.7332   -0.7178    0.8748   O.2       1 RES1   0.0000
    64 C24       0.9981   -2.9995    0.9571   C.3       1 RES1   0.0000
    65 O5       -0.0784   -2.4940    0.1726   O.3       1 RES1   0.0000
    66 C25      -0.2028   -3.0185   -1.1466   C.3       1 RES1   0.0000
    67 C26       0.5273   -2.0811   -2.1425   C.2       1 RES1   0.0000
    68 O6        1.0331   -1.0487   -1.6534   O.2       1 RES1   0.0000
    69 N4        0.5614   -2.3909   -3.4250   N.am      1 RES1   0.0000
    70 C27       1.1033   -1.4697   -4.4389   C.3       1 RES1   0.0000
    71 C28       2.4127   -0.7508   -4.1118   C.3       1 RES1   0.0000
    72 C29       3.5661   -1.7010   -3.8171   C.3       1 RES1   0.0000
    73 C30      -0.1801   -3.5427   -3.9367   C.3       1 RES1   0.0000
    74 C31       0.5566   -4.8752   -3.7732   C.3       1 RES1   0.0000
    75 C32       1.7869   -4.9927   -4.6609   C.3       1 RES1   0.0000
    76 H33       2.6223   -4.5544    5.8871   H         1 RES1   0.0000
    77 H34       2.2623   -5.3719    4.3684   H         1 RES1   0.0000
    78 H35       3.9300   -5.0247    4.8097   H         1 RES1   0.0000
    79 H36       1.7920   -2.9363    4.1441   H         1 RES1   0.0000
    80 H37       3.4384   -2.5677    4.6654   H         1 RES1   0.0000
    81 H38       4.3551   -3.6738    2.6609   H         1 RES1   0.0000
    82 H39       2.7479   -4.2239    2.1938   H         1 RES1   0.0000
    83 H40       3.5526   -0.1963    2.4862   H         1 RES1   0.0000
    84 H41       4.6769   -1.4314    3.1062   H         1 RES1   0.0000
    85 H42       4.4113   -0.5266    0.2084   H         1 RES1   0.0000
    86 H43       5.6691   -0.0288    1.3464   H         1 RES1   0.0000
    87 H44       5.2576   -2.8825    0.3228   H         1 RES1   0.0000
    88 H45       6.5375   -1.7653   -0.1388   H         1 RES1   0.0000
    89 H46       6.4784   -2.3844    1.5037   H         1 RES1   0.0000
    90 H47       1.5119   -3.8061    0.4244   H         1 RES1   0.0000
    91 H48       0.5631   -3.3885    1.8884   H         1 RES1   0.0000
    92 H49       0.1443   -4.0562   -1.1853   H         1 RES1   0.0000
    93 H50      -1.2811   -3.0002   -1.3614   H         1 RES1   0.0000
    94 H51       1.2616   -2.0705   -5.3337   H         1 RES1   0.0000
    95 H52       0.3359   -0.7181   -4.6584   H         1 RES1   0.0000
    96 H53       2.6575   -0.1591   -4.9964   H         1 RES1   0.0000
    97 H54       2.2673   -0.0622   -3.2786   H         1 RES1   0.0000
    98 H55       3.7622   -2.3580   -4.6619   H         1 RES1   0.0000
    99 H56       4.4731   -1.1344   -3.6320   H         1 RES1   0.0000
   100 H57       3.3562   -2.2988   -2.9327   H         1 RES1   0.0000
   101 H58      -1.1550   -3.5930   -3.4459   H         1 RES1   0.0000
   102 H59      -0.3736   -3.3720   -4.9954   H         1 RES1   0.0000
   103 H60       0.8616   -5.0081   -2.7352   H         1 RES1   0.0000
   104 H61      -0.1470   -5.6728   -4.0136   H         1 RES1   0.0000
   105 H62       2.5302   -4.2485   -4.3934   H         1 RES1   0.0000
   106 H63       2.2294   -5.9761   -4.5382   H         1 RES1   0.0000
   107 H64       1.5276   -4.8734   -5.7084   H         1 RES1   0.0000
   108 N5       -2.1679   -0.1205   -1.8552   N.3       1 RES1   0.0000
   109 O7       -3.1609    0.0440   -2.4801   O.2       1 RES1   0.0000
   110 O8       -2.1397   -0.8607   -0.8464   O.co2     1 RES1   0.0000
   111 O9       -1.0829    0.3893   -2.1825   O.co2     1 RES1   0.0000
@<TRIPOS>BOND
     1     1    10    1
     2     1    12    1
     3     1    15    1
     4     1    63    1
     5     1    65    1
     6     1    68    1
     7     1   110    1
     8     1   111    1
     9     2     3    1
    10     2    23    1
    11     2    24    1
    12     2    25    1
    13     3     4    1
    14     3    26    1
    15     3    27    1
    16     4     5    1
    17     4    28    1
    18     4    29    1
    19     5     6    1
    20     5     9    1
    21     6     7    1
    22     6    30    1
    23     6    31    1
    24     7     8    1
    25     7    32    1
    26     7    33    1
    27     8    34    1
    28     8    35    1
    29     8    36    1
    30     9    10    2
    31     9    11    1
    32    11    12    1
    33    11    37    1
    34    11    38    1
    35    12    13    1
    36    13    14    1
    37    13    39    1
    38    13    40    1
    39    14    15    2
    40    14    16    1
    41    16    17    1
    42    16    20    1
    43    17    18    1
    44    17    41    1
    45    17    42    1
    46    18    19    1
    47    18    43    1
    48    18    44    1
    49    19    45    1
    50    19    46    1
    51    19    47    1
    52    20    21    1
    53    20    48    1
    54    20    49    1
    55    21    22    1
    56    21    50    1
    57    21    51    1
    58    22    52    1
    59    22    53    1
    60    22    54    1
    61    55    56    1
    62    55    76    1
    63    55    77    1
    64    55    78    1
    65    56    57    1
    66    56    79    1
    67    56    80    1
    68    57    58    1
    69    57    81    1
    70    57    82    1
    71    58    59    1
    72    58    62    1
    73    59    60    1
    74    59    83    1
    75    59    84    1
    76    60    61    1
    77    60    85    1
    78    60    86    1
    79    61    87    1
    80    61    88    1
    81    61    89    1
    82    62    63    2
    83    62    64    1
    84    64    65    1
    85    64    90    1
    86    64    91    1
    87    65    66    1
    88    66    67    1
    89    66    92    1
    90    66    93    1
    91    67    68    2
    92    67    69    1
    93    69    70    1
    94    69    73    1
    95    70    71    1
    96    70    94    1
    97    70    95    1
    98    71    72    1
    99    71    96    1
   100    71    97    1
   101    72    98    1
   102    72    99    1
   103    72   100    1
   104    73    74    1
   105    73   101    1
   106    73   102    1
   107    74    75    1
   108    74   103    1
   109    74   104    1
   110    75   105    1
   111    75   106    1
   112    75   107    1
   113   108   109    2
   114   108   110    1
   115   108   111    1
@<TRIPOS>SUBSTRUCTURE
     1 RES1      111 GROUP             0 ****  ****    0  
