@<TRIPOS>MOLECULE
ICIGOT_geomtry_0_nunpairedes_0_charge_3 Charge: 3 Unpaired_Electrons: 2 XTB_Unpaired_Electrons: 0 XTB_Charge: 3
    69    81     1     0     0
SMALL
NoCharges
****
Generated from Architector

@<TRIPOS>ATOM
     1 Tm1       1.9878    1.3728    1.3998   Tm        1 RES1   0.0000
     2 C1        4.6787    2.8145   -0.1506   C.3       1 RES1   0.0000
     3 C2        3.8828    2.2725   -1.3253   C.3       1 RES1   0.0000
     4 C3        2.4917    2.9377   -1.5457   C.3       1 RES1   0.0000
     5 C4        2.0463    2.4171   -2.9315   C.3       1 RES1   0.0000
     6 C5        3.2323    1.5306   -3.3881   C.3       1 RES1   0.0000
     7 C6        3.1527    0.3386   -2.4863   C.ar      1 RES1   0.0000
     8 N1        2.6140   -0.8517   -2.5905   N.ar      1 RES1   0.0000
     9 N2        2.5268   -1.5992   -1.5237   N.ar      1 RES1   0.0000
    10 C7        2.7897   -1.1267   -0.3321   C.ar      1 RES1   0.0000
    11 C8        2.3354   -1.8041    0.9133   C.ar      1 RES1   0.0000
    12 C9        2.4616   -3.1382    1.2767   C.ar      1 RES1   0.0000
    13 C10       1.9839   -3.5359    2.5268   C.ar      1 RES1   0.0000
    14 C11       1.2917   -2.6370    3.3361   C.ar      1 RES1   0.0000
    15 C12       1.1622   -1.3330    2.8804   C.ar      1 RES1   0.0000
    16 C13       0.3884   -0.2178    3.4942   C.ar      1 RES1   0.0000
    17 N3       -0.8763   -0.3814    3.7809   N.ar      1 RES1   0.0000
    18 N4       -1.6766    0.6443    3.8973   N.ar      1 RES1   0.0000
    19 C14      -1.1607    1.8462    3.8977   C.ar      1 RES1   0.0000
    20 C15       0.2516    2.0217    3.8198   C.ar      1 RES1   0.0000
    21 N5        1.0274    1.0083    3.4702   N.ar      1 RES1   0.0000
    22 C16       0.5386    3.4841    3.8331   C.3       1 RES1   0.0000
    23 C17       1.9677    3.8562    3.4700   C.3       1 RES1   0.0000
    24 C18       0.0839    3.9523    5.2495   C.3       1 RES1   0.0000
    25 C19      -1.4541    3.8348    5.2262   C.3       1 RES1   0.0000
    26 C20      -1.7431    3.2161    3.8361   C.3       1 RES1   0.0000
    27 C21      -0.6754    3.9595    2.9541   C.3       1 RES1   0.0000
    28 C22      -0.8484    5.4710    2.8858   C.3       1 RES1   0.0000
    29 C23      -0.5895    3.4369    1.5107   C.3       1 RES1   0.0000
    30 N6        1.7138   -0.9172    1.7228   N.ar      1 RES1   0.0000
    31 N7        3.2276    0.1646   -0.1066   N.ar      1 RES1   0.0000
    32 C24       3.5229    0.8285   -1.2058   C.ar      1 RES1   0.0000
    33 C25       4.4534    2.3004   -2.7960   C.3       1 RES1   0.0000
    34 C26       4.6863    3.7024   -3.3446   C.3       1 RES1   0.0000
    35 C27       5.7338    1.4974   -2.9728   C.3       1 RES1   0.0000
    36 H1        4.1968    2.5428    0.8369   H         1 RES1   0.0000
    37 H2        4.7826    3.8972   -0.2080   H         1 RES1   0.0000
    38 H3        5.6767    2.3721   -0.1417   H         1 RES1   0.0000
    39 H4        2.5984    4.0220   -1.5460   H         1 RES1   0.0000
    40 H5        1.7708    2.6791   -0.7136   H         1 RES1   0.0000
    41 H6        1.9221    3.2291   -3.6467   H         1 RES1   0.0000
    42 H7        1.1201    1.8476   -2.9050   H         1 RES1   0.0000
    43 H8        3.2509    1.3086   -4.4479   H         1 RES1   0.0000
    44 H9        2.9564   -3.8453    0.6307   H         1 RES1   0.0000
    45 H10       2.1537   -4.5447    2.8808   H         1 RES1   0.0000
    46 H11       0.8913   -2.9196    4.2998   H         1 RES1   0.0000
    47 H12       2.6389    3.4114    4.2124   H         1 RES1   0.0000
    48 H13       2.1130    4.9366    3.5144   H         1 RES1   0.0000
    49 H14       2.2552    3.5123    2.4283   H         1 RES1   0.0000
    50 H15       0.4068    4.9776    5.4155   H         1 RES1   0.0000
    51 H16       0.5280    3.3262    6.0206   H         1 RES1   0.0000
    52 H17      -1.9498    4.8024    5.2946   H         1 RES1   0.0000
    53 H18      -1.8481    3.2189    6.0315   H         1 RES1   0.0000
    54 H19      -2.7848    3.2532    3.5323   H         1 RES1   0.0000
    55 H20      -0.9013    5.9330    3.8629   H         1 RES1   0.0000
    56 H21      -1.7731    5.7045    2.3636   H         1 RES1   0.0000
    57 H22      -0.0177    5.9220    2.3464   H         1 RES1   0.0000
    58 H23      -0.4403    2.3363    1.4595   H         1 RES1   0.0000
    59 H24       0.1891    3.9741    0.9459   H         1 RES1   0.0000
    60 H25      -1.5345    3.6425    1.0064   H         1 RES1   0.0000
    61 H26       3.8669    4.3971   -3.1990   H         1 RES1   0.0000
    62 H27       4.8875    3.6523   -4.4113   H         1 RES1   0.0000
    63 H28       5.5644    4.1311   -2.8700   H         1 RES1   0.0000
    64 H29       5.6329    0.4817   -2.5983   H         1 RES1   0.0000
    65 H30       6.5750    1.9657   -2.4709   H         1 RES1   0.0000
    66 H31       5.9671    1.4466   -4.0334   H         1 RES1   0.0000
    67 O1        0.0786    0.6396   -0.2517   O.3       1 RES1   0.0000
    68 H32       0.0850    0.1235   -1.0808   H         1 RES1   0.0000
    69 H33      -0.8469    0.5402    0.0386   H         1 RES1   0.0000
@<TRIPOS>BOND
     1     1     8    1
     2     1     9    1
     3     1    17    1
     4     1    18    1
     5     1    21    1
     6     1    30    1
     7     1    31    1
     8     1    67    1
     9     2     3    1
    10     2    36    1
    11     2    37    1
    12     2    38    1
    13     3     4    1
    14     3    32    1
    15     3    33    1
    16     4     5    1
    17     4    39    1
    18     4    40    1
    19     5     6    1
    20     5    41    1
    21     5    42    1
    22     6     7    1
    23     6    33    1
    24     6    43    1
    25     7     8    1
    26     7    32    2
    27     8     9    2
    28     9    10    1
    29    10    11    1
    30    10    31    2
    31    11    12    1
    32    11    30    2
    33    12    13    2
    34    12    44    1
    35    13    14    1
    36    13    45    1
    37    14    15    2
    38    14    46    1
    39    15    16    1
    40    15    30    1
    41    16    17    1
    42    16    21    2
    43    17    18    2
    44    18    19    1
    45    19    20    2
    46    19    26    1
    47    20    21    1
    48    20    22    1
    49    22    23    1
    50    22    24    1
    51    22    27    1
    52    23    47    1
    53    23    48    1
    54    23    49    1
    55    24    25    1
    56    24    50    1
    57    24    51    1
    58    25    26    1
    59    25    52    1
    60    25    53    1
    61    26    27    1
    62    26    54    1
    63    27    28    1
    64    27    29    1
    65    28    55    1
    66    28    56    1
    67    28    57    1
    68    29    58    1
    69    29    59    1
    70    29    60    1
    71    31    32    1
    72    33    34    1
    73    33    35    1
    74    34    61    1
    75    34    62    1
    76    34    63    1
    77    35    64    1
    78    35    65    1
    79    35    66    1
    80    67    68    1
    81    67    69    1
@<TRIPOS>SUBSTRUCTURE
     1 RES1       69 GROUP             0 ****  ****    0  
