@<TRIPOS>MOLECULE
bicapped_trigonal_prismatic_0_nunpairedes_0_charge_3 Charge: 3 Unpaired_Electrons: 2 XTB_Unpaired_Electrons: 0 XTB_Charge: 3
   337   342     1     0     0
SMALL
NoCharges
****
Generated from Architector

@<TRIPOS>ATOM
     1 Tm1      -0.3435   -0.0548    0.5148   Tm        1 RES1   0.0000
     2 C1      -13.3026    2.3652   -1.4532   C.3       1 RES1   0.0000
     3 C2      -12.7904    2.6020   -0.0383   C.3       1 RES1   0.0000
     4 C3      -12.9768    1.3566    0.8243   C.3       1 RES1   0.0000
     5 C4      -12.6075    1.5409    2.2988   C.3       1 RES1   0.0000
     6 C5      -11.1945    2.0698    2.5684   C.3       1 RES1   0.0000
     7 C6      -10.0648    1.2079    1.9817   C.3       1 RES1   0.0000
     8 C7       -9.0667    2.0481    1.1921   C.3       1 RES1   0.0000
     9 C8       -7.9196    1.2172    0.6302   C.3       1 RES1   0.0000
    10 C9       -7.0057    2.0780   -0.2375   C.3       1 RES1   0.0000
    11 C10      -5.7709    1.3403   -0.7491   C.3       1 RES1   0.0000
    12 C11      -6.1180    0.1653   -1.6525   C.3       1 RES1   0.0000
    13 C12      -4.9602   -0.7984   -1.8460   C.3       1 RES1   0.0000
    14 N1       -3.7178   -0.2992   -2.4621   N.am      1 RES1   0.0000
    15 C13      -3.8900    0.1543   -3.8513   C.3       1 RES1   0.0000
    16 C14      -4.3001    1.6346   -4.0620   C.3       1 RES1   0.0000
    17 C15      -4.2114    2.0031   -5.5635   C.3       1 RES1   0.0000
    18 C16      -3.2688    3.1562   -5.9545   C.3       1 RES1   0.0000
    19 C17      -2.7748    2.9639   -7.4019   C.3       1 RES1   0.0000
    20 C18      -1.3503    3.4556   -7.6738   C.3       1 RES1   0.0000
    21 C19      -0.6955    2.6890   -8.8303   C.3       1 RES1   0.0000
    22 C20       0.8326    2.7273   -8.7765   C.3       1 RES1   0.0000
    23 C21       1.5150    1.6558   -9.6361   C.3       1 RES1   0.0000
    24 C22       1.5235    0.2702   -8.9860   C.3       1 RES1   0.0000
    25 C23       2.5289   -0.7095   -9.5967   C.3       1 RES1   0.0000
    26 C24       2.7967   -1.8842   -8.6529   C.3       1 RES1   0.0000
    27 C25      -2.5735   -0.6009   -1.8418   C.2       1 RES1   0.0000
    28 O1       -2.4561   -0.7286   -0.5970   O.2       1 RES1   0.0000
    29 C26      -1.3047   -0.9864   -2.6216   C.3       1 RES1   0.0000
    30 O2       -0.1543   -0.5848   -1.8666   O.3       1 RES1   0.0000
    31 C27       1.0397   -1.3154   -2.1817   C.3       1 RES1   0.0000
    32 C28       1.1012   -2.6103   -1.3564   C.3       1 RES1   0.0000
    33 O3        0.5158   -2.3020   -0.0921   O.3       1 RES1   0.0000
    34 C29      -0.0862   -3.4338    0.5192   C.3       1 RES1   0.0000
    35 C30      -0.8365   -2.9293    1.7472   C.2       1 RES1   0.0000
    36 O4       -0.8073   -1.6906    1.9807   O.2       1 RES1   0.0000
    37 N2       -1.4371   -3.8218    2.5021   N.am      1 RES1   0.0000
    38 C31      -1.6507   -5.1977    2.0818   C.3       1 RES1   0.0000
    39 C32      -2.9584   -5.3280    1.2752   C.3       1 RES1   0.0000
    40 C33      -4.1639   -5.7497    2.1340   C.3       1 RES1   0.0000
    41 C34      -5.4113   -4.8793    1.9625   C.3       1 RES1   0.0000
    42 C35      -6.1797   -5.1459    0.6686   C.3       1 RES1   0.0000
    43 C36      -7.5824   -4.5435    0.7444   C.3       1 RES1   0.0000
    44 C37      -8.5094   -4.9971   -0.3835   C.3       1 RES1   0.0000
    45 C38      -8.4605   -4.1332   -1.6407   C.3       1 RES1   0.0000
    46 C39      -9.1309   -2.7722   -1.4590   C.3       1 RES1   0.0000
    47 C40      -9.4981   -2.1474   -2.8012   C.3       1 RES1   0.0000
    48 C41     -10.2402   -0.8213   -2.6478   C.3       1 RES1   0.0000
    49 C42     -10.8934   -0.3932   -3.9569   C.3       1 RES1   0.0000
    50 C43      -1.8822   -3.4590    3.8346   C.3       1 RES1   0.0000
    51 C44      -0.8693   -3.9309    4.8825   C.3       1 RES1   0.0000
    52 C45       0.5379   -3.3808    4.6228   C.3       1 RES1   0.0000
    53 C46       1.4396   -4.2862    3.7802   C.3       1 RES1   0.0000
    54 C47       2.5721   -3.4960    3.1216   C.3       1 RES1   0.0000
    55 C48       3.4404   -4.3896    2.2385   C.3       1 RES1   0.0000
    56 C49       4.4900   -3.6196    1.4374   C.3       1 RES1   0.0000
    57 C50       5.1783   -4.4968    0.3844   C.3       1 RES1   0.0000
    58 C51       4.3066   -4.7230   -0.8504   C.3       1 RES1   0.0000
    59 C52       4.8993   -5.7207   -1.8423   C.3       1 RES1   0.0000
    60 C53       4.0045   -5.8846   -3.0702   C.3       1 RES1   0.0000
    61 C54       4.5588   -6.9176   -4.0416   C.3       1 RES1   0.0000
    62 H1      -13.1066    3.2285   -2.0834   H         1 RES1   0.0000
    63 H2      -14.3737    2.1833   -1.4421   H         1 RES1   0.0000
    64 H3      -12.8138    1.5005   -1.8984   H         1 RES1   0.0000
    65 H4      -13.3232    3.4425    0.4104   H         1 RES1   0.0000
    66 H5      -11.7317    2.8646   -0.0795   H         1 RES1   0.0000
    67 H6      -12.3969    0.5359    0.3947   H         1 RES1   0.0000
    68 H7      -14.0265    1.0597    0.7830   H         1 RES1   0.0000
    69 H8      -12.7282    0.5804    2.8086   H         1 RES1   0.0000
    70 H9      -13.3131    2.2464    2.7446   H         1 RES1   0.0000
    71 H10     -11.0654    2.1404    3.6515   H         1 RES1   0.0000
    72 H11     -11.1208    3.0844    2.1730   H         1 RES1   0.0000
    73 H12     -10.4762    0.4468    1.3192   H         1 RES1   0.0000
    74 H13      -9.5439    0.6885    2.7880   H         1 RES1   0.0000
    75 H14      -8.6689    2.8408    1.8266   H         1 RES1   0.0000
    76 H15      -9.5830    2.5277    0.3601   H         1 RES1   0.0000
    77 H16      -8.3469    0.4120    0.0313   H         1 RES1   0.0000
    78 H17      -7.3479    0.7656    1.4451   H         1 RES1   0.0000
    79 H18      -6.6774    2.9469    0.3383   H         1 RES1   0.0000
    80 H19      -7.5732    2.4481   -1.0916   H         1 RES1   0.0000
    81 H20      -5.2052    0.9562    0.1044   H         1 RES1   0.0000
    82 H21      -5.1509    2.0476   -1.3064   H         1 RES1   0.0000
    83 H22      -6.5362    0.5042   -2.6001   H         1 RES1   0.0000
    84 H23      -6.8939   -0.4247   -1.1661   H         1 RES1   0.0000
    85 H24      -5.3013   -1.6091   -2.4990   H         1 RES1   0.0000
    86 H25      -4.6880   -1.2311   -0.8823   H         1 RES1   0.0000
    87 H26      -4.6896   -0.4623   -4.2677   H         1 RES1   0.0000
    88 H27      -2.9921   -0.0207   -4.4402   H         1 RES1   0.0000
    89 H28      -3.6542    2.3066   -3.4971   H         1 RES1   0.0000
    90 H29      -5.3171    1.7881   -3.7065   H         1 RES1   0.0000
    91 H30      -5.1935    2.2640   -5.9478   H         1 RES1   0.0000
    92 H31      -3.9008    1.1053   -6.1016   H         1 RES1   0.0000
    93 H32      -2.4236    3.2001   -5.2663   H         1 RES1   0.0000
    94 H33      -3.7871    4.1093   -5.8584   H         1 RES1   0.0000
    95 H34      -3.4717    3.4511   -8.0812   H         1 RES1   0.0000
    96 H35      -2.8013    1.8963   -7.6367   H         1 RES1   0.0000
    97 H36      -0.7394    3.3070   -6.7784   H         1 RES1   0.0000
    98 H37      -1.3466    4.5236   -7.8802   H         1 RES1   0.0000
    99 H38      -1.0269    3.0946   -9.7849   H         1 RES1   0.0000
   100 H39      -1.0173    1.6477   -8.7962   H         1 RES1   0.0000
   101 H40       1.1694    2.6098   -7.7417   H         1 RES1   0.0000
   102 H41       1.1646    3.7086   -9.1107   H         1 RES1   0.0000
   103 H42       2.5504    1.9607   -9.8010   H         1 RES1   0.0000
   104 H43       1.0141    1.6126  -10.6002   H         1 RES1   0.0000
   105 H44       0.5325   -0.1872   -9.0523   H         1 RES1   0.0000
   106 H45       1.7862    0.3883   -7.9296   H         1 RES1   0.0000
   107 H46       3.4716   -0.1933   -9.7894   H         1 RES1   0.0000
   108 H47       2.1550   -1.0883  -10.5500   H         1 RES1   0.0000
   109 H48       3.3600   -1.5509   -7.7798   H         1 RES1   0.0000
   110 H49       3.3791   -2.6550   -9.1513   H         1 RES1   0.0000
   111 H50       1.8665   -2.3374   -8.3063   H         1 RES1   0.0000
   112 H51      -1.2108   -0.5956   -3.6291   H         1 RES1   0.0000
   113 H52      -1.3468   -2.0849   -2.6832   H         1 RES1   0.0000
   114 H53       1.8673   -0.6404   -1.9260   H         1 RES1   0.0000
   115 H54       1.0863   -1.5571   -3.2504   H         1 RES1   0.0000
   116 H55       2.1402   -2.9441   -1.2374   H         1 RES1   0.0000
   117 H56       0.5253   -3.4042   -1.8485   H         1 RES1   0.0000
   118 H57       0.6867   -4.1443    0.8409   H         1 RES1   0.0000
   119 H58      -0.7670   -3.9251   -0.1873   H         1 RES1   0.0000
   120 H59      -1.6968   -5.8284    2.9688   H         1 RES1   0.0000
   121 H60      -0.8067   -5.5470    1.4899   H         1 RES1   0.0000
   122 H61      -2.8061   -6.0566    0.4780   H         1 RES1   0.0000
   123 H62      -3.1710   -4.3628    0.8086   H         1 RES1   0.0000
   124 H63      -3.8826   -5.7347    3.1880   H         1 RES1   0.0000
   125 H64      -4.4357   -6.7774    1.8933   H         1 RES1   0.0000
   126 H65      -5.1597   -3.8168    2.0414   H         1 RES1   0.0000
   127 H66      -6.0813   -5.1101    2.7919   H         1 RES1   0.0000
   128 H67      -6.2712   -6.2248    0.5399   H         1 RES1   0.0000
   129 H68      -5.6337   -4.7574   -0.1941   H         1 RES1   0.0000
   130 H69      -7.5138   -3.4555    0.7533   H         1 RES1   0.0000
   131 H70      -8.0232   -4.8519    1.6934   H         1 RES1   0.0000
   132 H71      -9.5355   -4.9967   -0.0170   H         1 RES1   0.0000
   133 H72      -8.2652   -6.0253   -0.6493   H         1 RES1   0.0000
   134 H73      -8.9877   -4.6641   -2.4347   H         1 RES1   0.0000
   135 H74      -7.4290   -3.9977   -1.9734   H         1 RES1   0.0000
   136 H75      -8.4843   -2.0923   -0.8964   H         1 RES1   0.0000
   137 H76     -10.0444   -2.9010   -0.8773   H         1 RES1   0.0000
   138 H77     -10.1405   -2.8444   -3.3414   H         1 RES1   0.0000
   139 H78      -8.5956   -2.0038   -3.4041   H         1 RES1   0.0000
   140 H79      -9.5504   -0.0454   -2.3013   H         1 RES1   0.0000
   141 H80     -11.0142   -0.9353   -1.8865   H         1 RES1   0.0000
   142 H81     -10.1690   -0.3828   -4.7676   H         1 RES1   0.0000
   143 H82     -11.3256    0.6001   -3.8664   H         1 RES1   0.0000
   144 H83     -11.6898   -1.0835   -4.2220   H         1 RES1   0.0000
   145 H84      -2.8635   -3.8951    4.0151   H         1 RES1   0.0000
   146 H85      -1.9580   -2.3717    3.8571   H         1 RES1   0.0000
   147 H86      -0.8400   -5.0187    4.9262   H         1 RES1   0.0000
   148 H87      -1.2288   -3.5805    5.8477   H         1 RES1   0.0000
   149 H88       1.0376   -3.2029    5.5738   H         1 RES1   0.0000
   150 H89       0.4499   -2.4172    4.1218   H         1 RES1   0.0000
   151 H90       0.8595   -4.7876    3.0034   H         1 RES1   0.0000
   152 H91       1.8656   -5.0659    4.4114   H         1 RES1   0.0000
   153 H92       3.1883   -3.0405    3.8975   H         1 RES1   0.0000
   154 H93       2.1468   -2.6822    2.5169   H         1 RES1   0.0000
   155 H94       2.7960   -4.9424    1.5495   H         1 RES1   0.0000
   156 H95       3.9434   -5.1269    2.8634   H         1 RES1   0.0000
   157 H96       5.2413   -3.2263    2.1234   H         1 RES1   0.0000
   158 H97       4.0213   -2.7612    0.9429   H         1 RES1   0.0000
   159 H98       5.4354   -5.4573    0.8325   H         1 RES1   0.0000
   160 H99       6.1090   -4.0207    0.0723   H         1 RES1   0.0000
   161 H100      4.1654   -3.7626   -1.3607   H         1 RES1   0.0000
   162 H101      3.3238   -5.0918   -0.5411   H         1 RES1   0.0000
   163 H102      5.0197   -6.6886   -1.3542   H         1 RES1   0.0000
   164 H103      5.8874   -5.3830   -2.1572   H         1 RES1   0.0000
   165 H104      3.9074   -4.9209   -3.5792   H         1 RES1   0.0000
   166 H105      3.0037   -6.1914   -2.7510   H         1 RES1   0.0000
   167 H106      5.5406   -6.6190   -4.3980   H         1 RES1   0.0000
   168 H107      3.9037   -7.0316   -4.9015   H         1 RES1   0.0000
   169 H108      4.6522   -7.8833   -3.5528   H         1 RES1   0.0000
   170 C55       7.2486    6.2437   -8.7973   C.3       1 RES1   0.0000
   171 C56       7.9924    5.4510   -7.7313   C.3       1 RES1   0.0000
   172 C57       8.3981    6.3391   -6.5565   C.3       1 RES1   0.0000
   173 C58       9.3957    5.6864   -5.5970   C.3       1 RES1   0.0000
   174 C59       8.9627    4.3289   -5.0443   C.3       1 RES1   0.0000
   175 C60       7.6918    4.4015   -4.2038   C.3       1 RES1   0.0000
   176 C61       7.2587    3.0176   -3.7204   C.3       1 RES1   0.0000
   177 C62       5.9510    3.0918   -2.9264   C.3       1 RES1   0.0000
   178 C63       5.2769    1.7262   -2.7461   C.3       1 RES1   0.0000
   179 C64       3.7777    1.8460   -2.4462   C.3       1 RES1   0.0000
   180 C65       2.9800    2.1888   -3.7038   C.3       1 RES1   0.0000
   181 C66       1.6736    2.9375   -3.4336   C.3       1 RES1   0.0000
   182 N3        0.4509    2.1811   -3.1207   N.am      1 RES1   0.0000
   183 C67      -0.3434    1.7764   -4.2714   C.3       1 RES1   0.0000
   184 C68       0.3081    0.6973   -5.1602   C.3       1 RES1   0.0000
   185 C69      -0.7200    0.2138   -6.2080   C.3       1 RES1   0.0000
   186 C70      -1.2504   -1.2271   -6.1653   C.3       1 RES1   0.0000
   187 C71      -2.1645   -1.4705   -7.3828   C.3       1 RES1   0.0000
   188 C72      -3.3163   -2.4701   -7.1377   C.3       1 RES1   0.0000
   189 C73      -4.7027   -1.8687   -7.4445   C.3       1 RES1   0.0000
   190 C74      -5.7668   -2.1465   -6.3795   C.3       1 RES1   0.0000
   191 C75      -7.0690   -1.3454   -6.5663   C.3       1 RES1   0.0000
   192 C76      -6.8205    0.1408   -6.8371   C.3       1 RES1   0.0000
   193 C77      -8.0430    1.0642   -6.7274   C.3       1 RES1   0.0000
   194 C78      -8.2391    1.5710   -5.3011   C.3       1 RES1   0.0000
   195 C79       0.0069    2.0552   -1.8677   C.2       1 RES1   0.0000
   196 O5        0.7310    1.8401   -0.8769   O.2       1 RES1   0.0000
   197 C80      -1.4846    2.3213   -1.5598   C.3       1 RES1   0.0000
   198 O6       -1.7408    1.7836   -0.2701   O.3       1 RES1   0.0000
   199 C81      -2.6293    2.5172    0.5813   C.3       1 RES1   0.0000
   200 C82      -2.5505    1.7608    1.9216   C.3       1 RES1   0.0000
   201 O7       -1.2092    1.3292    2.1568   O.3       1 RES1   0.0000
   202 C83      -0.3125    2.3657    2.5568   C.3       1 RES1   0.0000
   203 C84       1.1129    1.8400    2.3286   C.2       1 RES1   0.0000
   204 O8        1.2458    0.7412    1.7312   O.2       1 RES1   0.0000
   205 N4        2.1172    2.5411    2.8104   N.am      1 RES1   0.0000
   206 C85       1.9421    3.8790    3.3549   C.3       1 RES1   0.0000
   207 C86       1.7269    4.9219    2.2380   C.3       1 RES1   0.0000
   208 C87       2.9183    5.8886    2.0628   C.3       1 RES1   0.0000
   209 C88       3.4835    5.9440    0.6438   C.3       1 RES1   0.0000
   210 C89       2.5046    6.5580   -0.3648   C.3       1 RES1   0.0000
   211 C90       3.1932    7.5516   -1.2978   C.3       1 RES1   0.0000
   212 C91       2.2323    8.2181   -2.2808   C.3       1 RES1   0.0000
   213 C92       1.7908    7.3324   -3.4450   C.3       1 RES1   0.0000
   214 C93       2.9417    6.9495   -4.3771   C.3       1 RES1   0.0000
   215 C94       2.4372    6.5864   -5.7713   C.3       1 RES1   0.0000
   216 C95       3.5631    6.1545   -6.7098   C.3       1 RES1   0.0000
   217 C96       3.1107    6.1888   -8.1639   C.3       1 RES1   0.0000
   218 C97       3.4649    1.9828    2.8355   C.3       1 RES1   0.0000
   219 C98       3.8178    1.4316    4.2253   C.3       1 RES1   0.0000
   220 C99       2.8037    0.3940    4.7238   C.3       1 RES1   0.0000
   221 C100      1.5921    1.0050    5.4430   C.3       1 RES1   0.0000
   222 C101      0.3893    0.0693    5.3876   C.3       1 RES1   0.0000
   223 C102     -0.8733    0.6595    6.0103   C.3       1 RES1   0.0000
   224 C103     -1.9470   -0.4182    6.1124   C.3       1 RES1   0.0000
   225 C104     -3.3261    0.0814    6.5291   C.3       1 RES1   0.0000
   226 C105     -4.0364    0.8367    5.4117   C.3       1 RES1   0.0000
   227 C106     -5.4657    1.1993    5.7880   C.3       1 RES1   0.0000
   228 C107     -6.2152    1.8453    4.6284   C.3       1 RES1   0.0000
   229 C108     -7.6612    2.1463    4.9949   C.3       1 RES1   0.0000
   230 H109      6.9106    5.5908   -9.5974   H         1 RES1   0.0000
   231 H110      7.8986    7.0013   -9.2249   H         1 RES1   0.0000
   232 H111      6.3816    6.7427   -8.3708   H         1 RES1   0.0000
   233 H112      8.8852    5.0010   -8.1694   H         1 RES1   0.0000
   234 H113      7.3536    4.6376   -7.3790   H         1 RES1   0.0000
   235 H114      7.5027    6.6467   -6.0103   H         1 RES1   0.0000
   236 H115      8.8557    7.2502   -6.9494   H         1 RES1   0.0000
   237 H116      9.5751    6.3713   -4.7643   H         1 RES1   0.0000
   238 H117     10.3413    5.5513   -6.1257   H         1 RES1   0.0000
   239 H118      9.7712    3.9311   -4.4271   H         1 RES1   0.0000
   240 H119      8.8076    3.6363   -5.8732   H         1 RES1   0.0000
   241 H120      6.8832    4.8302   -4.8007   H         1 RES1   0.0000
   242 H121      7.8566    5.0611   -3.3487   H         1 RES1   0.0000
   243 H122      8.0479    2.5737   -3.1085   H         1 RES1   0.0000
   244 H123      7.1126    2.3729   -4.5927   H         1 RES1   0.0000
   245 H124      5.2709    3.7630   -3.4593   H         1 RES1   0.0000
   246 H125      6.1424    3.5345   -1.9453   H         1 RES1   0.0000
   247 H126      5.7652    1.1831   -1.9361   H         1 RES1   0.0000
   248 H127      5.4051    1.1381   -3.6569   H         1 RES1   0.0000
   249 H128      3.6272    2.6208   -1.6933   H         1 RES1   0.0000
   250 H129      3.4054    0.9119   -2.0208   H         1 RES1   0.0000
   251 H130      2.8153    1.2965   -4.3057   H         1 RES1   0.0000
   252 H131      3.5833    2.8651   -4.3073   H         1 RES1   0.0000
   253 H132      1.4154    3.5190   -4.3286   H         1 RES1   0.0000
   254 H133      1.8346    3.6333   -2.6049   H         1 RES1   0.0000
   255 H134     -0.5380    2.6471   -4.9061   H         1 RES1   0.0000
   256 H135     -1.2994    1.3973   -3.9196   H         1 RES1   0.0000
   257 H136      0.7163   -0.1130   -4.5592   H         1 RES1   0.0000
   258 H137      1.1532    1.1263   -5.6957   H         1 RES1   0.0000
   259 H138     -0.2847    0.3368   -7.1948   H         1 RES1   0.0000
   260 H139     -1.5784    0.8809   -6.1745   H         1 RES1   0.0000
   261 H140     -1.8356   -1.4380   -5.2676   H         1 RES1   0.0000
   262 H141     -0.4255   -1.9384   -6.1825   H         1 RES1   0.0000
   263 H142     -1.5437   -1.7974   -8.2167   H         1 RES1   0.0000
   264 H143     -2.6049   -0.5129   -7.6682   H         1 RES1   0.0000
   265 H144     -3.2838   -2.8152   -6.1008   H         1 RES1   0.0000
   266 H145     -3.1584   -3.3546   -7.7521   H         1 RES1   0.0000
   267 H146     -5.0544   -2.2451   -8.4043   H         1 RES1   0.0000
   268 H147     -4.5973   -0.7891   -7.5399   H         1 RES1   0.0000
   269 H148     -5.3475   -1.9252   -5.3890   H         1 RES1   0.0000
   270 H149     -6.0184   -3.2066   -6.3912   H         1 RES1   0.0000
   271 H150     -7.6714   -1.4552   -5.6593   H         1 RES1   0.0000
   272 H151     -7.6387   -1.7682   -7.3940   H         1 RES1   0.0000
   273 H152     -6.4061    0.2507   -7.8396   H         1 RES1   0.0000
   274 H153     -6.0848    0.4886   -6.1152   H         1 RES1   0.0000
   275 H154     -8.9404    0.5535   -7.0792   H         1 RES1   0.0000
   276 H155     -7.8886    1.9301   -7.3778   H         1 RES1   0.0000
   277 H156     -8.2175    0.7449   -4.5941   H         1 RES1   0.0000
   278 H157     -9.1918    2.0820   -5.1986   H         1 RES1   0.0000
   279 H158     -7.4509    2.2805   -5.0452   H         1 RES1   0.0000
   280 H159     -2.1883    1.8981   -2.2789   H         1 RES1   0.0000
   281 H160     -1.6017    3.4162   -1.5541   H         1 RES1   0.0000
   282 H161     -3.6564    2.5070    0.1881   H         1 RES1   0.0000
   283 H162     -2.3001    3.5612    0.6701   H         1 RES1   0.0000
   284 H163     -3.1242    0.8287    1.8511   H         1 RES1   0.0000
   285 H164     -2.9348    2.3580    2.7561   H         1 RES1   0.0000
   286 H165     -0.4624    2.5704    3.6234   H         1 RES1   0.0000
   287 H166     -0.4684    3.2807    1.9750   H         1 RES1   0.0000
   288 H167      2.8379    4.1230    3.9236   H         1 RES1   0.0000
   289 H168      1.1091    3.8995    4.0606   H         1 RES1   0.0000
   290 H169      0.8276    5.5001    2.4616   H         1 RES1   0.0000
   291 H170      1.5567    4.3836    1.2995   H         1 RES1   0.0000
   292 H171      3.7244    5.6138    2.7452   H         1 RES1   0.0000
   293 H172      2.6052    6.8977    2.3319   H         1 RES1   0.0000
   294 H173      3.7927    4.9491    0.3176   H         1 RES1   0.0000
   295 H174      4.3799    6.5619    0.6832   H         1 RES1   0.0000
   296 H175      1.7205    7.0909    0.1745   H         1 RES1   0.0000
   297 H176      2.0201    5.7719   -0.9482   H         1 RES1   0.0000
   298 H177      3.9939    7.0578   -1.8468   H         1 RES1   0.0000
   299 H178      3.6451    8.3327   -0.6857   H         1 RES1   0.0000
   300 H179      2.7170    9.1004   -2.6998   H         1 RES1   0.0000
   301 H180      1.3475    8.5594   -1.7393   H         1 RES1   0.0000
   302 H181      1.0481    7.8848   -4.0251   H         1 RES1   0.0000
   303 H182      1.2999    6.4279   -3.0742   H         1 RES1   0.0000
   304 H183      3.5114    6.1139   -3.9618   H         1 RES1   0.0000
   305 H184      3.6213    7.7981   -4.4688   H         1 RES1   0.0000
   306 H185      1.9439    7.4619   -6.1982   H         1 RES1   0.0000
   307 H186      1.6866    5.7912   -5.7027   H         1 RES1   0.0000
   308 H187      3.9026    5.1481   -6.4480   H         1 RES1   0.0000
   309 H188      4.4113    6.8295   -6.5831   H         1 RES1   0.0000
   310 H189      2.2192    5.5799   -8.3019   H         1 RES1   0.0000
   311 H190      3.8899    5.8189   -8.8242   H         1 RES1   0.0000
   312 H191      2.8751    7.2086   -8.4570   H         1 RES1   0.0000
   313 H192      4.1726    2.7666    2.5571   H         1 RES1   0.0000
   314 H193      3.4974    1.1809    2.0956   H         1 RES1   0.0000
   315 H194      3.8916    2.2496    4.9443   H         1 RES1   0.0000
   316 H195      4.8036    0.9661    4.1487   H         1 RES1   0.0000
   317 H196      3.3058   -0.2863    5.4133   H         1 RES1   0.0000
   318 H197      2.4681   -0.1991    3.8662   H         1 RES1   0.0000
   319 H198      1.3219    1.9594    4.9939   H         1 RES1   0.0000
   320 H199      1.8511    1.2074    6.4840   H         1 RES1   0.0000
   321 H200      0.6452   -0.8437    5.9262   H         1 RES1   0.0000
   322 H201      0.1788   -0.1953    4.3394   H         1 RES1   0.0000
   323 H202     -1.2413    1.4877    5.3989   H         1 RES1   0.0000
   324 H203     -0.6535    1.0515    7.0027   H         1 RES1   0.0000
   325 H204     -1.6124   -1.1767    6.8209   H         1 RES1   0.0000
   326 H205     -2.0372   -0.8910    5.1330   H         1 RES1   0.0000
   327 H206     -3.2432    0.7168    7.4101   H         1 RES1   0.0000
   328 H207     -3.9386   -0.7805    6.7982   H         1 RES1   0.0000
   329 H208     -4.0525    0.2160    4.5106   H         1 RES1   0.0000
   330 H209     -3.4917    1.7521    5.1750   H         1 RES1   0.0000
   331 H210     -5.4522    1.8810    6.6368   H         1 RES1   0.0000
   332 H211     -5.9956    0.2998    6.0994   H         1 RES1   0.0000
   333 H212     -6.1906    1.1724    3.7662   H         1 RES1   0.0000
   334 H213     -5.7102    2.7712    4.3403   H         1 RES1   0.0000
   335 H214     -8.1853    1.2288    5.2510   H         1 RES1   0.0000
   336 H215     -8.1823    2.6174    4.1657   H         1 RES1   0.0000
   337 H216     -7.7005    2.8123    5.8522   H         1 RES1   0.0000
@<TRIPOS>BOND
     1     1    28    1
     2     1    30    1
     3     1    33    1
     4     1    36    1
     5     1   196    1
     6     1   198    1
     7     1   201    1
     8     1   204    1
     9     2     3    1
    10     2    62    1
    11     2    63    1
    12     2    64    1
    13     3     4    1
    14     3    65    1
    15     3    66    1
    16     4     5    1
    17     4    67    1
    18     4    68    1
    19     5     6    1
    20     5    69    1
    21     5    70    1
    22     6     7    1
    23     6    71    1
    24     6    72    1
    25     7     8    1
    26     7    73    1
    27     7    74    1
    28     8     9    1
    29     8    75    1
    30     8    76    1
    31     9    10    1
    32     9    77    1
    33     9    78    1
    34    10    11    1
    35    10    79    1
    36    10    80    1
    37    11    12    1
    38    11    81    1
    39    11    82    1
    40    12    13    1
    41    12    83    1
    42    12    84    1
    43    13    14    1
    44    13    85    1
    45    13    86    1
    46    14    15    1
    47    14    27    1
    48    15    16    1
    49    15    87    1
    50    15    88    1
    51    16    17    1
    52    16    89    1
    53    16    90    1
    54    17    18    1
    55    17    91    1
    56    17    92    1
    57    18    19    1
    58    18    93    1
    59    18    94    1
    60    19    20    1
    61    19    95    1
    62    19    96    1
    63    20    21    1
    64    20    97    1
    65    20    98    1
    66    21    22    1
    67    21    99    1
    68    21   100    1
    69    22    23    1
    70    22   101    1
    71    22   102    1
    72    23    24    1
    73    23   103    1
    74    23   104    1
    75    24    25    1
    76    24   105    1
    77    24   106    1
    78    25    26    1
    79    25   107    1
    80    25   108    1
    81    26   109    1
    82    26   110    1
    83    26   111    1
    84    27    28    2
    85    27    29    1
    86    29    30    1
    87    29   112    1
    88    29   113    1
    89    30    31    1
    90    31    32    1
    91    31   114    1
    92    31   115    1
    93    32    33    1
    94    32   116    1
    95    32   117    1
    96    33    34    1
    97    34    35    1
    98    34   118    1
    99    34   119    1
   100    35    36    2
   101    35    37    1
   102    37    38    1
   103    37    50    1
   104    38    39    1
   105    38   120    1
   106    38   121    1
   107    39    40    1
   108    39   122    1
   109    39   123    1
   110    40    41    1
   111    40   124    1
   112    40   125    1
   113    41    42    1
   114    41   126    1
   115    41   127    1
   116    42    43    1
   117    42   128    1
   118    42   129    1
   119    43    44    1
   120    43   130    1
   121    43   131    1
   122    44    45    1
   123    44   132    1
   124    44   133    1
   125    45    46    1
   126    45   134    1
   127    45   135    1
   128    46    47    1
   129    46   136    1
   130    46   137    1
   131    47    48    1
   132    47   138    1
   133    47   139    1
   134    48    49    1
   135    48   140    1
   136    48   141    1
   137    49   142    1
   138    49   143    1
   139    49   144    1
   140    50    51    1
   141    50   145    1
   142    50   146    1
   143    51    52    1
   144    51   147    1
   145    51   148    1
   146    52    53    1
   147    52   149    1
   148    52   150    1
   149    53    54    1
   150    53   151    1
   151    53   152    1
   152    54    55    1
   153    54   153    1
   154    54   154    1
   155    55    56    1
   156    55   155    1
   157    55   156    1
   158    56    57    1
   159    56   157    1
   160    56   158    1
   161    57    58    1
   162    57   159    1
   163    57   160    1
   164    58    59    1
   165    58   161    1
   166    58   162    1
   167    59    60    1
   168    59   163    1
   169    59   164    1
   170    60    61    1
   171    60   165    1
   172    60   166    1
   173    61   167    1
   174    61   168    1
   175    61   169    1
   176   170   171    1
   177   170   230    1
   178   170   231    1
   179   170   232    1
   180   171   172    1
   181   171   233    1
   182   171   234    1
   183   172   173    1
   184   172   235    1
   185   172   236    1
   186   173   174    1
   187   173   237    1
   188   173   238    1
   189   174   175    1
   190   174   239    1
   191   174   240    1
   192   175   176    1
   193   175   241    1
   194   175   242    1
   195   176   177    1
   196   176   243    1
   197   176   244    1
   198   177   178    1
   199   177   245    1
   200   177   246    1
   201   178   179    1
   202   178   247    1
   203   178   248    1
   204   179   180    1
   205   179   249    1
   206   179   250    1
   207   180   181    1
   208   180   251    1
   209   180   252    1
   210   181   182    1
   211   181   253    1
   212   181   254    1
   213   182   183    1
   214   182   195    1
   215   183   184    1
   216   183   255    1
   217   183   256    1
   218   184   185    1
   219   184   257    1
   220   184   258    1
   221   185   186    1
   222   185   259    1
   223   185   260    1
   224   186   187    1
   225   186   261    1
   226   186   262    1
   227   187   188    1
   228   187   263    1
   229   187   264    1
   230   188   189    1
   231   188   265    1
   232   188   266    1
   233   189   190    1
   234   189   267    1
   235   189   268    1
   236   190   191    1
   237   190   269    1
   238   190   270    1
   239   191   192    1
   240   191   271    1
   241   191   272    1
   242   192   193    1
   243   192   273    1
   244   192   274    1
   245   193   194    1
   246   193   275    1
   247   193   276    1
   248   194   277    1
   249   194   278    1
   250   194   279    1
   251   195   196    2
   252   195   197    1
   253   197   198    1
   254   197   280    1
   255   197   281    1
   256   198   199    1
   257   199   200    1
   258   199   282    1
   259   199   283    1
   260   200   201    1
   261   200   284    1
   262   200   285    1
   263   201   202    1
   264   202   203    1
   265   202   286    1
   266   202   287    1
   267   203   204    2
   268   203   205    1
   269   205   206    1
   270   205   218    1
   271   206   207    1
   272   206   288    1
   273   206   289    1
   274   207   208    1
   275   207   290    1
   276   207   291    1
   277   208   209    1
   278   208   292    1
   279   208   293    1
   280   209   210    1
   281   209   294    1
   282   209   295    1
   283   210   211    1
   284   210   296    1
   285   210   297    1
   286   211   212    1
   287   211   298    1
   288   211   299    1
   289   212   213    1
   290   212   300    1
   291   212   301    1
   292   213   214    1
   293   213   302    1
   294   213   303    1
   295   214   215    1
   296   214   304    1
   297   214   305    1
   298   215   216    1
   299   215   306    1
   300   215   307    1
   301   216   217    1
   302   216   308    1
   303   216   309    1
   304   217   310    1
   305   217   311    1
   306   217   312    1
   307   218   219    1
   308   218   313    1
   309   218   314    1
   310   219   220    1
   311   219   315    1
   312   219   316    1
   313   220   221    1
   314   220   317    1
   315   220   318    1
   316   221   222    1
   317   221   319    1
   318   221   320    1
   319   222   223    1
   320   222   321    1
   321   222   322    1
   322   223   224    1
   323   223   323    1
   324   223   324    1
   325   224   225    1
   326   224   325    1
   327   224   326    1
   328   225   226    1
   329   225   327    1
   330   225   328    1
   331   226   227    1
   332   226   329    1
   333   226   330    1
   334   227   228    1
   335   227   331    1
   336   227   332    1
   337   228   229    1
   338   228   333    1
   339   228   334    1
   340   229   335    1
   341   229   336    1
   342   229   337    1
@<TRIPOS>SUBSTRUCTURE
     1 RES1      337 GROUP             0 ****  ****    0  
