@<TRIPOS>MOLECULE
ICIGOT_geomtry_0_nunpairedes_0_charge_3 Charge: 3 Unpaired_Electrons: 2 XTB_Unpaired_Electrons: 0 XTB_Charge: 3
   245   248     1     0     0
SMALL
NoCharges
****
Generated from Architector

@<TRIPOS>ATOM
     1 Tm1      -0.2741   -0.1953    0.1451   Tm        1 RES1   0.0000
     2 C1        4.6518    2.2333   -2.9878   C.3       1 RES1   0.0000
     3 C2        3.8948    2.5641   -4.2677   C.3       1 RES1   0.0000
     4 C3        2.7401    3.5166   -3.9731   C.3       1 RES1   0.0000
     5 C4        1.9181    3.8981   -5.2034   C.3       1 RES1   0.0000
     6 C5        1.1309    5.2061   -5.0566   C.3       1 RES1   0.0000
     7 C6       -0.2072    5.1182   -4.3138   C.3       1 RES1   0.0000
     8 C7       -0.0475    4.9208   -2.8099   C.3       1 RES1   0.0000
     9 C8       -1.3799    4.8066   -2.0483   C.3       1 RES1   0.0000
    10 N1       -1.1789    3.9786   -0.8623   N.am      1 RES1   0.0000
    11 C9       -0.9140    4.6809    0.3997   C.3       1 RES1   0.0000
    12 C10       0.3997    5.4694    0.5636   C.3       1 RES1   0.0000
    13 C11       1.5840    4.7172    1.1844   C.3       1 RES1   0.0000
    14 C12       1.2268    4.2083    2.5808   C.3       1 RES1   0.0000
    15 C13       2.7964    5.6434    1.4020   C.3       1 RES1   0.0000
    16 C14       3.7789    5.9613    0.2589   C.3       1 RES1   0.0000
    17 C15       5.0241    6.5845    0.9085   C.3       1 RES1   0.0000
    18 C16       4.2112    4.6909   -0.4734   C.3       1 RES1   0.0000
    19 C17       3.2126    6.9642   -0.7497   C.3       1 RES1   0.0000
    20 C18      -1.1416    2.6562   -0.9066   C.2       1 RES1   0.0000
    21 O1       -0.6154    1.9782    0.0096   O.2       1 RES1   0.0000
    22 C19      -1.8448    1.8869   -2.0619   C.3       1 RES1   0.0000
    23 O2       -1.6956    0.4921   -1.7793   O.3       1 RES1   0.0000
    24 C20      -2.5722   -0.4523   -2.4090   C.3       1 RES1   0.0000
    25 C21      -2.5215   -1.6897   -1.4739   C.2       1 RES1   0.0000
    26 O3       -1.9446   -1.4923   -0.3684   O.2       1 RES1   0.0000
    27 N2       -3.1649   -2.8274   -1.7104   N.am      1 RES1   0.0000
    28 C22      -3.4935   -3.4026   -3.0238   C.3       1 RES1   0.0000
    29 C23      -3.4498   -4.9536   -3.0765   C.3       1 RES1   0.0000
    30 C24      -2.3882   -5.6106   -3.9702   C.3       1 RES1   0.0000
    31 C25      -0.9707   -5.7303   -3.3951   C.3       1 RES1   0.0000
    32 C26      -0.7595   -6.7877   -2.3022   C.3       1 RES1   0.0000
    33 C27      -1.0628   -6.3632   -0.8595   C.3       1 RES1   0.0000
    34 C28      -0.3312   -5.1072   -0.3739   C.3       1 RES1   0.0000
    35 C29       1.1790   -5.3005   -0.2792   C.3       1 RES1   0.0000
    36 C30      -3.7510   -3.4717   -0.5338   C.3       1 RES1   0.0000
    37 C31      -5.2800   -3.2811   -0.5604   C.3       1 RES1   0.0000
    38 C32      -5.8072   -2.6705    0.7435   C.3       1 RES1   0.0000
    39 C33      -5.5077   -3.6135    1.9077   C.3       1 RES1   0.0000
    40 C34      -5.2528   -1.2466    0.9489   C.3       1 RES1   0.0000
    41 C35      -6.2821   -0.2121    1.4511   C.3       1 RES1   0.0000
    42 C36      -6.9532   -0.6780    2.7446   C.3       1 RES1   0.0000
    43 C37      -7.3324    0.0455    0.3675   C.3       1 RES1   0.0000
    44 C38      -5.5592    1.1162    1.7291   C.3       1 RES1   0.0000
    45 H1        5.4164    1.4880   -3.1689   H         1 RES1   0.0000
    46 H2        5.1378    3.1260   -2.6126   H         1 RES1   0.0000
    47 H3        3.9781    1.8576   -2.2142   H         1 RES1   0.0000
    48 H4        4.5831    3.0179   -4.9803   H         1 RES1   0.0000
    49 H5        3.5092    1.6557   -4.7299   H         1 RES1   0.0000
    50 H6        2.0984    3.0403   -3.2192   H         1 RES1   0.0000
    51 H7        3.1507    4.4228   -3.5257   H         1 RES1   0.0000
    52 H8        2.6139    4.0329   -6.0319   H         1 RES1   0.0000
    53 H9        1.2470    3.0824   -5.4836   H         1 RES1   0.0000
    54 H10       1.7662    5.9500   -4.5733   H         1 RES1   0.0000
    55 H11       0.9127    5.5807   -6.0566   H         1 RES1   0.0000
    56 H12      -0.7507    6.0504   -4.4769   H         1 RES1   0.0000
    57 H13      -0.8046    4.3084   -4.7392   H         1 RES1   0.0000
    58 H14       0.5214    4.0134   -2.6170   H         1 RES1   0.0000
    59 H15       0.5287    5.7602   -2.4237   H         1 RES1   0.0000
    60 H16      -1.7164    5.7953   -1.7363   H         1 RES1   0.0000
    61 H17      -2.1578    4.3699   -2.6787   H         1 RES1   0.0000
    62 H18      -1.7366    5.3907    0.5032   H         1 RES1   0.0000
    63 H19      -1.0083    3.9408    1.1939   H         1 RES1   0.0000
    64 H20       0.7016    5.8944   -0.3897   H         1 RES1   0.0000
    65 H21       0.1811    6.3165    1.2154   H         1 RES1   0.0000
    66 H22       1.8518    3.8664    0.5501   H         1 RES1   0.0000
    67 H23       1.0146    5.0522    3.2297   H         1 RES1   0.0000
    68 H24       0.3563    3.5556    2.5767   H         1 RES1   0.0000
    69 H25       2.0770    3.6776    3.0062   H         1 RES1   0.0000
    70 H26       2.4268    6.5889    1.8033   H         1 RES1   0.0000
    71 H27       3.3971    5.1850    2.1909   H         1 RES1   0.0000
    72 H28       5.4947    5.8843    1.5971   H         1 RES1   0.0000
    73 H29       5.7548    6.8551    0.1499   H         1 RES1   0.0000
    74 H30       4.7615    7.4829    1.4611   H         1 RES1   0.0000
    75 H31       4.6352    3.9698    0.2238   H         1 RES1   0.0000
    76 H32       3.3741    4.2322   -0.9973   H         1 RES1   0.0000
    77 H33       4.9744    4.9495   -1.2033   H         1 RES1   0.0000
    78 H34       2.7191    7.7878   -0.2406   H         1 RES1   0.0000
    79 H35       4.0201    7.3815   -1.3468   H         1 RES1   0.0000
    80 H36       2.5033    6.4927   -1.4289   H         1 RES1   0.0000
    81 H37      -2.9071    2.1637   -2.0650   H         1 RES1   0.0000
    82 H38      -1.4033    2.1397   -3.0317   H         1 RES1   0.0000
    83 H39      -3.6106   -0.0900   -2.3969   H         1 RES1   0.0000
    84 H40      -2.2922   -0.6394   -3.4515   H         1 RES1   0.0000
    85 H41      -4.4913   -3.0613   -3.3111   H         1 RES1   0.0000
    86 H42      -2.7969   -2.9869   -3.7486   H         1 RES1   0.0000
    87 H43      -3.3209   -5.3779   -2.0926   H         1 RES1   0.0000
    88 H44      -4.4227   -5.2905   -3.4228   H         1 RES1   0.0000
    89 H45      -2.7356   -6.6203   -4.1960   H         1 RES1   0.0000
    90 H46      -2.3356   -5.0879   -4.9283   H         1 RES1   0.0000
    91 H47      -0.3226   -5.9973   -4.2276   H         1 RES1   0.0000
    92 H48      -0.6363   -4.7699   -3.0226   H         1 RES1   0.0000
    93 H49      -1.3646   -7.6650   -2.5299   H         1 RES1   0.0000
    94 H50       0.2856   -7.1030   -2.3316   H         1 RES1   0.0000
    95 H51      -2.1394   -6.2264   -0.7286   H         1 RES1   0.0000
    96 H52      -0.7814   -7.1934   -0.2047   H         1 RES1   0.0000
    97 H53      -0.5432   -4.2571   -1.0318   H         1 RES1   0.0000
    98 H54      -0.7188   -4.8495    0.6170   H         1 RES1   0.0000
    99 H55       1.6132   -5.4886   -1.2573   H         1 RES1   0.0000
   100 H56       1.6391   -4.4075    0.1427   H         1 RES1   0.0000
   101 H57       1.4102   -6.1483    0.3628   H         1 RES1   0.0000
   102 H58      -3.4831   -4.5210   -0.4769   H         1 RES1   0.0000
   103 H59      -3.3285   -2.9855    0.3423   H         1 RES1   0.0000
   104 H60      -5.5593   -2.6234   -1.3853   H         1 RES1   0.0000
   105 H61      -5.7731   -4.2371   -0.7353   H         1 RES1   0.0000
   106 H62      -6.8906   -2.5972    0.6406   H         1 RES1   0.0000
   107 H63      -4.4388   -3.6963    2.0976   H         1 RES1   0.0000
   108 H64      -5.9927   -3.2824    2.8202   H         1 RES1   0.0000
   109 H65      -5.8859   -4.6058    1.6720   H         1 RES1   0.0000
   110 H66      -4.4165   -1.3008    1.6554   H         1 RES1   0.0000
   111 H67      -4.8575   -0.8778   -0.0063   H         1 RES1   0.0000
   112 H68      -7.6792   -1.4633    2.5563   H         1 RES1   0.0000
   113 H69      -6.2164   -1.0509    3.4537   H         1 RES1   0.0000
   114 H70      -7.4793    0.1503    3.2115   H         1 RES1   0.0000
   115 H71      -7.9101   -0.8446    0.1347   H         1 RES1   0.0000
   116 H72      -8.0293    0.8072    0.7030   H         1 RES1   0.0000
   117 H73      -6.8613    0.3917   -0.5509   H         1 RES1   0.0000
   118 H74      -4.9535    1.0465    2.6279   H         1 RES1   0.0000
   119 H75      -4.9413    1.4155    0.8831   H         1 RES1   0.0000
   120 H76      -6.2890    1.9013    1.8902   H         1 RES1   0.0000
   121 C39      -4.6028    0.1663    9.1634   C.3       1 RES1   0.0000
   122 C40      -5.0281    1.3502    8.3039   C.3       1 RES1   0.0000
   123 C41      -5.6930    0.9536    6.9813   C.3       1 RES1   0.0000
   124 C42      -4.7535    0.7933    5.7850   C.3       1 RES1   0.0000
   125 C43      -3.9169   -0.4891    5.7506   C.3       1 RES1   0.0000
   126 C44      -3.2342   -0.6083    4.3825   C.3       1 RES1   0.0000
   127 C45      -2.1493   -1.6767    4.2454   C.3       1 RES1   0.0000
   128 C46      -0.8073   -1.3575    4.9031   C.3       1 RES1   0.0000
   129 N3       -0.0513   -0.2196    4.3659   N.am      1 RES1   0.0000
   130 C47       0.2511    0.8508    5.3198   C.3       1 RES1   0.0000
   131 C48      -1.0520    1.6005    5.6254   C.3       1 RES1   0.0000
   132 C49      -0.9548    2.8506    6.5180   C.3       1 RES1   0.0000
   133 C50       0.0236    2.6295    7.6708   C.3       1 RES1   0.0000
   134 C51      -0.6233    4.1342    5.7378   C.3       1 RES1   0.0000
   135 C52      -1.8263    4.9835    5.2741   C.3       1 RES1   0.0000
   136 C53      -2.6261    5.5011    6.4720   C.3       1 RES1   0.0000
   137 C54      -1.2893    6.2000    4.5097   C.3       1 RES1   0.0000
   138 C55      -2.7631    4.2235    4.3291   C.3       1 RES1   0.0000
   139 C56       0.3481   -0.2134    3.1108   C.2       1 RES1   0.0000
   140 O4       -0.0579   -1.0037    2.2250   O.2       1 RES1   0.0000
   141 C57       1.4451    0.7828    2.6810   C.3       1 RES1   0.0000
   142 O5        1.6974    0.6044    1.2854   O.3       1 RES1   0.0000
   143 C58       2.9788    0.0749    0.9490   C.3       1 RES1   0.0000
   144 C59       2.7823   -0.8823   -0.2349   C.2       1 RES1   0.0000
   145 O6        1.5965   -1.2114   -0.5072   O.2       1 RES1   0.0000
   146 N4        3.8318   -1.3223   -0.9033   N.am      1 RES1   0.0000
   147 C60       3.6243   -2.1305   -2.0968   C.3       1 RES1   0.0000
   148 C61       3.7456   -1.2663   -3.3567   C.3       1 RES1   0.0000
   149 C62       3.1113   -1.8916   -4.6022   C.3       1 RES1   0.0000
   150 C63       2.4461   -0.8339   -5.4822   C.3       1 RES1   0.0000
   151 C64       1.4166   -1.4179   -6.4475   C.3       1 RES1   0.0000
   152 C65       0.0020   -1.5354   -5.8760   C.3       1 RES1   0.0000
   153 C66      -0.2481   -2.6787   -4.8806   C.3       1 RES1   0.0000
   154 C67      -0.0463   -2.3123   -3.3978   C.3       1 RES1   0.0000
   155 C68       5.2213   -0.9921   -0.6001   C.3       1 RES1   0.0000
   156 C69       6.0947   -2.1877   -0.1875   C.3       1 RES1   0.0000
   157 C70       5.8090   -2.8487    1.1662   C.3       1 RES1   0.0000
   158 C71       4.4012   -3.4549    1.2196   C.3       1 RES1   0.0000
   159 C72       6.8268   -3.9780    1.4220   C.3       1 RES1   0.0000
   160 C73       8.2024   -3.6409    2.0367   C.3       1 RES1   0.0000
   161 C74       8.0506   -2.8676    3.3498   C.3       1 RES1   0.0000
   162 C75       9.1174   -2.8570    1.0917   C.3       1 RES1   0.0000
   163 C76       8.8683   -4.9910    2.3370   C.3       1 RES1   0.0000
   164 H77      -4.2039    0.5205   10.1102   H         1 RES1   0.0000
   165 H78      -3.8407   -0.4373    8.6775   H         1 RES1   0.0000
   166 H79      -5.4597   -0.4695    9.3746   H         1 RES1   0.0000
   167 H80      -4.1706    1.9980    8.1031   H         1 RES1   0.0000
   168 H81      -5.7452    1.9367    8.8804   H         1 RES1   0.0000
   169 H82      -6.4112    1.7329    6.7126   H         1 RES1   0.0000
   170 H83      -6.2592    0.0313    7.1194   H         1 RES1   0.0000
   171 H84      -4.0879    1.6601    5.7441   H         1 RES1   0.0000
   172 H85      -5.3688    0.8186    4.8822   H         1 RES1   0.0000
   173 H86      -4.5675   -1.3530    5.9004   H         1 RES1   0.0000
   174 H87      -3.1910   -0.4849    6.5641   H         1 RES1   0.0000
   175 H88      -2.8224    0.3621    4.1008   H         1 RES1   0.0000
   176 H89      -4.0190   -0.8475    3.6648   H         1 RES1   0.0000
   177 H90      -2.5019   -2.6018    4.7041   H         1 RES1   0.0000
   178 H91      -1.9731   -1.8772    3.1852   H         1 RES1   0.0000
   179 H92      -0.1657   -2.2339    4.7974   H         1 RES1   0.0000
   180 H93      -0.9481   -1.1707    5.9628   H         1 RES1   0.0000
   181 H94       0.9966    1.5321    4.9123   H         1 RES1   0.0000
   182 H95       0.6597    0.4040    6.2296   H         1 RES1   0.0000
   183 H96      -1.7178    0.8984    6.1228   H         1 RES1   0.0000
   184 H97      -1.5030    1.8874    4.6737   H         1 RES1   0.0000
   185 H98      -1.9482    2.9733    6.9549   H         1 RES1   0.0000
   186 H99       1.0530    2.6186    7.3188   H         1 RES1   0.0000
   187 H100     -0.1870    1.6904    8.1792   H         1 RES1   0.0000
   188 H101     -0.0770    3.4291    8.3985   H         1 RES1   0.0000
   189 H102     -0.0005    3.8779    4.8784   H         1 RES1   0.0000
   190 H103     -0.0212    4.7686    6.3886   H         1 RES1   0.0000
   191 H104     -1.9978    6.1096    7.1162   H         1 RES1   0.0000
   192 H105     -3.0523    4.7014    7.0733   H         1 RES1   0.0000
   193 H106     -3.4473    6.1184    6.1179   H         1 RES1   0.0000
   194 H107     -0.4732    6.6745    5.0468   H         1 RES1   0.0000
   195 H108     -2.0778    6.9356    4.3915   H         1 RES1   0.0000
   196 H109     -0.9395    5.9145    3.5198   H         1 RES1   0.0000
   197 H110     -3.3279    3.4521    4.8466   H         1 RES1   0.0000
   198 H111     -2.2087    3.7750    3.5013   H         1 RES1   0.0000
   199 H112     -3.4761    4.9258    3.9057   H         1 RES1   0.0000
   200 H113      2.3484    0.6080    3.2732   H         1 RES1   0.0000
   201 H114      1.1057    1.8121    2.8090   H         1 RES1   0.0000
   202 H115      3.4147   -0.4909    1.7812   H         1 RES1   0.0000
   203 H116      3.6375    0.9166    0.6894   H         1 RES1   0.0000
   204 H117      2.6384   -2.5781   -2.0103   H         1 RES1   0.0000
   205 H118      4.3565   -2.9327   -2.1297   H         1 RES1   0.0000
   206 H119      4.7932   -1.0709   -3.5662   H         1 RES1   0.0000
   207 H120      3.2729   -0.3056   -3.1469   H         1 RES1   0.0000
   208 H121      2.3791   -2.6387   -4.3203   H         1 RES1   0.0000
   209 H122      3.8632   -2.4074   -5.2003   H         1 RES1   0.0000
   210 H123      3.2223   -0.3105   -6.0437   H         1 RES1   0.0000
   211 H124      1.9374   -0.0910   -4.8602   H         1 RES1   0.0000
   212 H125      1.7475   -2.3938   -6.7954   H         1 RES1   0.0000
   213 H126      1.3564   -0.7655   -7.3206   H         1 RES1   0.0000
   214 H127     -0.6718   -1.6883   -6.7178   H         1 RES1   0.0000
   215 H128     -0.2767   -0.5827   -5.4167   H         1 RES1   0.0000
   216 H129      0.3659   -3.5362   -5.1530   H         1 RES1   0.0000
   217 H130     -1.2826   -3.0012   -5.0176   H         1 RES1   0.0000
   218 H131     -0.0985   -1.2339   -3.2556   H         1 RES1   0.0000
   219 H132      0.9021   -2.6690   -3.0108   H         1 RES1   0.0000
   220 H133     -0.8206   -2.7679   -2.7872   H         1 RES1   0.0000
   221 H134      5.2592   -0.2259    0.1712   H         1 RES1   0.0000
   222 H135      5.6499   -0.5683   -1.5145   H         1 RES1   0.0000
   223 H136      7.1148   -1.8119   -0.1685   H         1 RES1   0.0000
   224 H137      6.0690   -2.9562   -0.9590   H         1 RES1   0.0000
   225 H138      5.9053   -2.1088    1.9648   H         1 RES1   0.0000
   226 H139      4.2419   -4.1127    0.3671   H         1 RES1   0.0000
   227 H140      3.6154   -2.7004    1.2260   H         1 RES1   0.0000
   228 H141      4.2952   -4.0481    2.1247   H         1 RES1   0.0000
   229 H142      6.9849   -4.5296    0.4916   H         1 RES1   0.0000
   230 H143      6.3583   -4.6764    2.1176   H         1 RES1   0.0000
   231 H144      7.7003   -1.8501    3.1800   H         1 RES1   0.0000
   232 H145      9.0164   -2.8010    3.8426   H         1 RES1   0.0000
   233 H146      7.3614   -3.3743    4.0228   H         1 RES1   0.0000
   234 H147      8.8590   -1.7990    1.0658   H         1 RES1   0.0000
   235 H148      9.0818   -3.2610    0.0823   H         1 RES1   0.0000
   236 H149     10.1430   -2.9351    1.4427   H         1 RES1   0.0000
   237 H150      8.2714   -5.5724    3.0358   H         1 RES1   0.0000
   238 H151      9.8506   -4.8448    2.7757   H         1 RES1   0.0000
   239 H152      8.9882   -5.5710    1.4249   H         1 RES1   0.0000
   240 O7       -2.2738    0.5608    1.4702   O.3       1 RES1   0.0000
   241 H153     -2.5223    1.3874    1.9084   H         1 RES1   0.0000
   242 H154     -3.0742    0.0036    1.5258   H         1 RES1   0.0000
   243 O8        0.9460    0.7928   -2.0533   O.3       1 RES1   0.0000
   244 H155      1.1763    0.0393   -2.6205   H         1 RES1   0.0000
   245 H156      1.3926    1.5598   -2.4469   H         1 RES1   0.0000
@<TRIPOS>BOND
     1     1    21    1
     2     1    23    1
     3     1    26    1
     4     1   140    1
     5     1   142    1
     6     1   145    1
     7     1   240    1
     8     1   243    1
     9     2     3    1
    10     2    45    1
    11     2    46    1
    12     2    47    1
    13     3     4    1
    14     3    48    1
    15     3    49    1
    16     4     5    1
    17     4    50    1
    18     4    51    1
    19     5     6    1
    20     5    52    1
    21     5    53    1
    22     6     7    1
    23     6    54    1
    24     6    55    1
    25     7     8    1
    26     7    56    1
    27     7    57    1
    28     8     9    1
    29     8    58    1
    30     8    59    1
    31     9    10    1
    32     9    60    1
    33     9    61    1
    34    10    11    1
    35    10    20    1
    36    11    12    1
    37    11    62    1
    38    11    63    1
    39    12    13    1
    40    12    64    1
    41    12    65    1
    42    13    14    1
    43    13    15    1
    44    13    66    1
    45    14    67    1
    46    14    68    1
    47    14    69    1
    48    15    16    1
    49    15    70    1
    50    15    71    1
    51    16    17    1
    52    16    18    1
    53    16    19    1
    54    17    72    1
    55    17    73    1
    56    17    74    1
    57    18    75    1
    58    18    76    1
    59    18    77    1
    60    19    78    1
    61    19    79    1
    62    19    80    1
    63    20    21    2
    64    20    22    1
    65    22    23    1
    66    22    81    1
    67    22    82    1
    68    23    24    1
    69    24    25    1
    70    24    83    1
    71    24    84    1
    72    25    26    2
    73    25    27    1
    74    27    28    1
    75    27    36    1
    76    28    29    1
    77    28    85    1
    78    28    86    1
    79    29    30    1
    80    29    87    1
    81    29    88    1
    82    30    31    1
    83    30    89    1
    84    30    90    1
    85    31    32    1
    86    31    91    1
    87    31    92    1
    88    32    33    1
    89    32    93    1
    90    32    94    1
    91    33    34    1
    92    33    95    1
    93    33    96    1
    94    34    35    1
    95    34    97    1
    96    34    98    1
    97    35    99    1
    98    35   100    1
    99    35   101    1
   100    36    37    1
   101    36   102    1
   102    36   103    1
   103    37    38    1
   104    37   104    1
   105    37   105    1
   106    38    39    1
   107    38    40    1
   108    38   106    1
   109    39   107    1
   110    39   108    1
   111    39   109    1
   112    40    41    1
   113    40   110    1
   114    40   111    1
   115    41    42    1
   116    41    43    1
   117    41    44    1
   118    42   112    1
   119    42   113    1
   120    42   114    1
   121    43   115    1
   122    43   116    1
   123    43   117    1
   124    44   118    1
   125    44   119    1
   126    44   120    1
   127   121   122    1
   128   121   164    1
   129   121   165    1
   130   121   166    1
   131   122   123    1
   132   122   167    1
   133   122   168    1
   134   123   124    1
   135   123   169    1
   136   123   170    1
   137   124   125    1
   138   124   171    1
   139   124   172    1
   140   125   126    1
   141   125   173    1
   142   125   174    1
   143   126   127    1
   144   126   175    1
   145   126   176    1
   146   127   128    1
   147   127   177    1
   148   127   178    1
   149   128   129    1
   150   128   179    1
   151   128   180    1
   152   129   130    1
   153   129   139    1
   154   130   131    1
   155   130   181    1
   156   130   182    1
   157   131   132    1
   158   131   183    1
   159   131   184    1
   160   132   133    1
   161   132   134    1
   162   132   185    1
   163   133   186    1
   164   133   187    1
   165   133   188    1
   166   134   135    1
   167   134   189    1
   168   134   190    1
   169   135   136    1
   170   135   137    1
   171   135   138    1
   172   136   191    1
   173   136   192    1
   174   136   193    1
   175   137   194    1
   176   137   195    1
   177   137   196    1
   178   138   197    1
   179   138   198    1
   180   138   199    1
   181   139   140    2
   182   139   141    1
   183   141   142    1
   184   141   200    1
   185   141   201    1
   186   142   143    1
   187   143   144    1
   188   143   202    1
   189   143   203    1
   190   144   145    2
   191   144   146    1
   192   146   147    1
   193   146   155    1
   194   147   148    1
   195   147   204    1
   196   147   205    1
   197   148   149    1
   198   148   206    1
   199   148   207    1
   200   149   150    1
   201   149   208    1
   202   149   209    1
   203   150   151    1
   204   150   210    1
   205   150   211    1
   206   151   152    1
   207   151   212    1
   208   151   213    1
   209   152   153    1
   210   152   214    1
   211   152   215    1
   212   153   154    1
   213   153   216    1
   214   153   217    1
   215   154   218    1
   216   154   219    1
   217   154   220    1
   218   155   156    1
   219   155   221    1
   220   155   222    1
   221   156   157    1
   222   156   223    1
   223   156   224    1
   224   157   158    1
   225   157   159    1
   226   157   225    1
   227   158   226    1
   228   158   227    1
   229   158   228    1
   230   159   160    1
   231   159   229    1
   232   159   230    1
   233   160   161    1
   234   160   162    1
   235   160   163    1
   236   161   231    1
   237   161   232    1
   238   161   233    1
   239   162   234    1
   240   162   235    1
   241   162   236    1
   242   163   237    1
   243   163   238    1
   244   163   239    1
   245   240   241    1
   246   240   242    1
   247   243   244    1
   248   243   245    1
@<TRIPOS>SUBSTRUCTURE
     1 RES1      245 GROUP             0 ****  ****    0  
