@<TRIPOS>MOLECULE
ICIGOT_geomtry_0_nunpairedes_0_charge_2 Charge: 2 Unpaired_Electrons: 2 XTB_Unpaired_Electrons: 0 XTB_Charge: 2
   243   247     1     0     0
SMALL
NoCharges
****
Generated from Architector

@<TRIPOS>ATOM
     1 Tm1      -0.7109   -0.2664   -0.4705   Tm        1 RES1   0.0000
     2 C1        6.5007    1.8647    0.5513   C.3       1 RES1   0.0000
     3 C2        5.8189    3.1790    0.9186   C.3       1 RES1   0.0000
     4 C3        5.6756    4.0783   -0.3049   C.3       1 RES1   0.0000
     5 C4        4.9337    5.3954   -0.0633   C.3       1 RES1   0.0000
     6 C5        3.4043    5.3142    0.1002   C.3       1 RES1   0.0000
     7 C6        2.6626    4.7170   -1.1126   C.3       1 RES1   0.0000
     8 C7        1.3777    5.4562   -1.5066   C.3       1 RES1   0.0000
     9 C8        0.0967    5.2554   -0.6849   C.3       1 RES1   0.0000
    10 N1       -0.5953    4.0033   -0.9558   N.am      1 RES1   0.0000
    11 C9       -1.4297    3.9653   -2.1673   C.3       1 RES1   0.0000
    12 C10      -0.9333    3.0715   -3.3017   C.3       1 RES1   0.0000
    13 C11      -2.0333    2.9250   -4.3549   C.3       1 RES1   0.0000
    14 C12      -1.6712    1.9387   -5.4669   C.3       1 RES1   0.0000
    15 C13      -1.6772    0.4836   -4.9981   C.3       1 RES1   0.0000
    16 C14      -1.3232   -0.5231   -6.0973   C.3       1 RES1   0.0000
    17 C15       0.1789   -0.6304   -6.3667   C.3       1 RES1   0.0000
    18 C16       0.4903   -1.6845   -7.4252   C.3       1 RES1   0.0000
    19 C17      -0.6504    2.9091   -0.2067   C.2       1 RES1   0.0000
    20 O1       -1.2152    1.8820   -0.6396   O.2       1 RES1   0.0000
    21 C18      -0.2628    2.8042    1.2899   C.3       1 RES1   0.0000
    22 C19       0.8983    3.5878    1.8863   C.3       1 RES1   0.0000
    23 O2       -0.0144    1.3998    1.4989   O.3       1 RES1   0.0000
    24 C20      -0.3880    0.9332    2.8027   C.3       1 RES1   0.0000
    25 C21       0.7381    0.0339    3.3019   C.3       1 RES1   0.0000
    26 C22      -1.7357    0.2093    2.6574   C.2       1 RES1   0.0000
    27 O3       -2.0937   -0.1281    1.5123   O.2       1 RES1   0.0000
    28 N2       -2.4876    0.0114    3.7326   N.am      1 RES1   0.0000
    29 C23      -2.1145    0.3784    5.0908   C.3       1 RES1   0.0000
    30 C24      -2.3653    1.8456    5.4831   C.3       1 RES1   0.0000
    31 C25      -3.7534    2.3919    5.1329   C.3       1 RES1   0.0000
    32 C26      -3.8278    3.0158    3.7388   C.3       1 RES1   0.0000
    33 C27      -5.2589    3.4149    3.3778   C.3       1 RES1   0.0000
    34 C28      -6.1066    2.2254    2.9360   C.3       1 RES1   0.0000
    35 C29      -7.5111    2.6322    2.4958   C.3       1 RES1   0.0000
    36 C30      -8.3689    3.1370    3.6486   C.3       1 RES1   0.0000
    37 C31      -3.7742   -0.6607    3.5565   C.3       1 RES1   0.0000
    38 C32      -3.5966   -2.1613    3.3499   C.3       1 RES1   0.0000
    39 C33      -4.9305   -2.9012    3.3519   C.3       1 RES1   0.0000
    40 C34      -4.7386   -4.3844    3.0376   C.3       1 RES1   0.0000
    41 C35      -6.0464   -5.1140    2.7315   C.3       1 RES1   0.0000
    42 C36      -6.8620   -4.4823    1.5963   C.3       1 RES1   0.0000
    43 C37      -7.7478   -5.5176    0.8992   C.3       1 RES1   0.0000
    44 C38      -6.9746   -6.3301   -0.1312   C.3       1 RES1   0.0000
    45 H1        6.5833    1.2129    1.4152   H         1 RES1   0.0000
    46 H2        7.5039    2.0415    0.1801   H         1 RES1   0.0000
    47 H3        5.9533    1.3435   -0.2284   H         1 RES1   0.0000
    48 H4        6.4221    3.6878    1.6705   H         1 RES1   0.0000
    49 H5        4.8407    2.9834    1.3624   H         1 RES1   0.0000
    50 H6        5.1798    3.5225   -1.1033   H         1 RES1   0.0000
    51 H7        6.6805    4.3132   -0.6574   H         1 RES1   0.0000
    52 H8        5.1482    6.0544   -0.9045   H         1 RES1   0.0000
    53 H9        5.3341    5.8700    0.8349   H         1 RES1   0.0000
    54 H10       3.0398    6.3352    0.2455   H         1 RES1   0.0000
    55 H11       3.1824    4.7812    1.0250   H         1 RES1   0.0000
    56 H12       2.4517    3.6493   -0.9902   H         1 RES1   0.0000
    57 H13       3.3303    4.8256   -1.9701   H         1 RES1   0.0000
    58 H14       1.1328    5.2129   -2.5408   H         1 RES1   0.0000
    59 H15       1.5934    6.5237   -1.4765   H         1 RES1   0.0000
    60 H16      -0.5857    6.0612   -0.9760   H         1 RES1   0.0000
    61 H17       0.2915    5.3552    0.3752   H         1 RES1   0.0000
    62 H18      -1.5311    4.9887   -2.5270   H         1 RES1   0.0000
    63 H19      -2.4144    3.5987   -1.8587   H         1 RES1   0.0000
    64 H20      -0.6771    2.0881   -2.9108   H         1 RES1   0.0000
    65 H21      -0.0444    3.5046   -3.7523   H         1 RES1   0.0000
    66 H22      -2.2405    3.9025   -4.7972   H         1 RES1   0.0000
    67 H23      -2.9428    2.5835   -3.8572   H         1 RES1   0.0000
    68 H24      -0.6912    2.1953   -5.8706   H         1 RES1   0.0000
    69 H25      -2.3948    2.0544   -6.2757   H         1 RES1   0.0000
    70 H26      -2.6748    0.2442   -4.6238   H         1 RES1   0.0000
    71 H27      -0.9727    0.3568   -4.1676   H         1 RES1   0.0000
    72 H28      -1.8406   -0.2478   -7.0187   H         1 RES1   0.0000
    73 H29      -1.6878   -1.5070   -5.7914   H         1 RES1   0.0000
    74 H30       0.6916   -0.8971   -5.4358   H         1 RES1   0.0000
    75 H31       0.5723    0.3332   -6.6999   H         1 RES1   0.0000
    76 H32       0.0712   -2.6457   -7.1327   H         1 RES1   0.0000
    77 H33       1.5665   -1.7996   -7.5529   H         1 RES1   0.0000
    78 H34       0.0609   -1.3977   -8.3831   H         1 RES1   0.0000
    79 H35      -1.1999    3.0891    1.8033   H         1 RES1   0.0000
    80 H36       1.7761    3.4898    1.2612   H         1 RES1   0.0000
    81 H37       1.1360    3.1895    2.8701   H         1 RES1   0.0000
    82 H38       0.6553    4.6338    2.0334   H         1 RES1   0.0000
    83 H39      -0.5208    1.7784    3.4821   H         1 RES1   0.0000
    84 H40       0.8833   -0.7728    2.5923   H         1 RES1   0.0000
    85 H41       0.5217   -0.3858    4.2758   H         1 RES1   0.0000
    86 H42       1.6512    0.6165    3.3859   H         1 RES1   0.0000
    87 H43      -1.0620    0.1536    5.2667   H         1 RES1   0.0000
    88 H44      -2.6927   -0.2667    5.7549   H         1 RES1   0.0000
    89 H45      -1.6180    2.5040    5.0315   H         1 RES1   0.0000
    90 H46      -2.2200    1.8892    6.5658   H         1 RES1   0.0000
    91 H47      -4.0032    3.1685    5.8579   H         1 RES1   0.0000
    92 H48      -4.4987    1.6038    5.2280   H         1 RES1   0.0000
    93 H49      -3.4479    2.3193    2.9859   H         1 RES1   0.0000
    94 H50      -3.1925    3.9065    3.7306   H         1 RES1   0.0000
    95 H51      -5.2364    4.1425    2.5659   H         1 RES1   0.0000
    96 H52      -5.7208    3.9032    4.2357   H         1 RES1   0.0000
    97 H53      -6.1980    1.5051    3.7494   H         1 RES1   0.0000
    98 H54      -5.6057    1.7277    2.1008   H         1 RES1   0.0000
    99 H55      -8.0003    1.7662    2.0451   H         1 RES1   0.0000
   100 H56      -7.4361    3.4055    1.7296   H         1 RES1   0.0000
   101 H57      -8.3829    2.4136    4.4601   H         1 RES1   0.0000
   102 H58      -9.3912    3.2904    3.3167   H         1 RES1   0.0000
   103 H59      -7.9961    4.0810    4.0353   H         1 RES1   0.0000
   104 H60      -4.2674   -0.2260    2.6851   H         1 RES1   0.0000
   105 H61      -4.3868   -0.4708    4.4354   H         1 RES1   0.0000
   106 H62      -2.9574   -2.5698    4.1341   H         1 RES1   0.0000
   107 H63      -3.0967   -2.2999    2.3911   H         1 RES1   0.0000
   108 H64      -5.5847   -2.4547    2.6038   H         1 RES1   0.0000
   109 H65      -5.4123   -2.7985    4.3264   H         1 RES1   0.0000
   110 H66      -4.2530   -4.8742    3.8850   H         1 RES1   0.0000
   111 H67      -4.0792   -4.4884    2.1722   H         1 RES1   0.0000
   112 H68      -6.6624   -5.1478    3.6313   H         1 RES1   0.0000
   113 H69      -5.8018   -6.1451    2.4667   H         1 RES1   0.0000
   114 H70      -6.1988   -4.0306    0.8532   H         1 RES1   0.0000
   115 H71      -7.4911   -3.6915    2.0121   H         1 RES1   0.0000
   116 H72      -8.5763   -5.0103    0.4034   H         1 RES1   0.0000
   117 H73      -8.1726   -6.1782    1.6563   H         1 RES1   0.0000
   118 H74      -6.6515   -5.6946   -0.9521   H         1 RES1   0.0000
   119 H75      -7.5959   -7.1197   -0.5400   H         1 RES1   0.0000
   120 H76      -6.0931   -6.7886    0.3084   H         1 RES1   0.0000
   121 C39      -5.8139    0.4621   -0.9873   C.3       1 RES1   0.0000
   122 C40      -4.7773   -0.4834   -0.3913   C.3       1 RES1   0.0000
   123 C41      -4.6805   -1.8104   -1.1450   C.3       1 RES1   0.0000
   124 C42      -3.7246   -2.7848   -0.4518   C.3       1 RES1   0.0000
   125 C43      -3.5172   -4.0489   -1.2862   C.3       1 RES1   0.0000
   126 C44      -2.7012   -5.1629   -0.6245   C.3       1 RES1   0.0000
   127 C45      -1.2573   -4.7942   -0.2705   C.3       1 RES1   0.0000
   128 C46      -1.0477   -4.3038    1.1661   C.3       1 RES1   0.0000
   129 N3        0.3800   -3.9882    1.2992   N.am      1 RES1   0.0000
   130 C47       1.2085   -5.1089    1.6986   C.3       1 RES1   0.0000
   131 C48       1.1287   -5.3494    3.2206   C.3       1 RES1   0.0000
   132 C49       1.8925   -4.3229    4.0633   C.3       1 RES1   0.0000
   133 C50       1.0652   -3.1609    4.6217   C.3       1 RES1   0.0000
   134 C51       0.4262   -3.4363    5.9921   C.3       1 RES1   0.0000
   135 C52      -1.0633   -3.7560    5.9328   C.3       1 RES1   0.0000
   136 C53      -1.6982   -3.8203    7.3203   C.3       1 RES1   0.0000
   137 C54      -3.2132   -3.9701    7.2480   C.3       1 RES1   0.0000
   138 C55       0.7400   -2.7724    0.9176   C.2       1 RES1   0.0000
   139 O4       -0.1196   -1.8601    0.8965   O.2       1 RES1   0.0000
   140 C56       2.1341   -2.4017    0.3521   C.3       1 RES1   0.0000
   141 C57       3.2870   -2.3125    1.3504   C.3       1 RES1   0.0000
   142 O5        1.8399   -1.1497   -0.2846   O.3       1 RES1   0.0000
   143 C58       2.8917   -0.3301   -0.8008   C.3       1 RES1   0.0000
   144 C59       3.2428    0.7359    0.2512   C.3       1 RES1   0.0000
   145 C60       2.2603    0.3863   -2.0177   C.2       1 RES1   0.0000
   146 O6        1.0220    0.5588   -1.9604   O.2       1 RES1   0.0000
   147 N4        3.0051    0.8192   -3.0336   N.am      1 RES1   0.0000
   148 C61       2.3351    1.4590   -4.1713   C.3       1 RES1   0.0000
   149 C62       2.6548    2.9519   -4.2527   C.3       1 RES1   0.0000
   150 C63       2.1731    3.6199   -5.5400   C.3       1 RES1   0.0000
   151 C64       2.3972    5.1370   -5.4697   C.3       1 RES1   0.0000
   152 C65       1.5016    5.9350   -6.4214   C.3       1 RES1   0.0000
   153 C66       0.0134    5.9388   -6.0233   C.3       1 RES1   0.0000
   154 C67      -0.5058    7.3270   -5.6518   C.3       1 RES1   0.0000
   155 C68       0.1176    7.8479   -4.3646   C.3       1 RES1   0.0000
   156 C69       4.4730    0.9022   -3.0054   C.3       1 RES1   0.0000
   157 C70       5.1938    0.8419   -4.3670   C.3       1 RES1   0.0000
   158 C71       6.5304    1.6150   -4.3574   C.3       1 RES1   0.0000
   159 C72       6.4352    2.9776   -5.0496   C.3       1 RES1   0.0000
   160 C73       7.7248    3.8026   -4.9455   C.3       1 RES1   0.0000
   161 C74       7.6925    4.7933   -3.7830   C.3       1 RES1   0.0000
   162 C75       8.8903    5.7397   -3.7850   C.3       1 RES1   0.0000
   163 C76      10.2250    5.0541   -3.5203   C.3       1 RES1   0.0000
   164 H77      -5.8072    1.4134   -0.4609   H         1 RES1   0.0000
   165 H78      -6.8137    0.0421   -0.9073   H         1 RES1   0.0000
   166 H79      -5.6065    0.6525   -2.0362   H         1 RES1   0.0000
   167 H80      -5.0506   -0.6917    0.6472   H         1 RES1   0.0000
   168 H81      -3.7870    0.0051   -0.4024   H         1 RES1   0.0000
   169 H82      -4.3382   -1.6274   -2.1650   H         1 RES1   0.0000
   170 H83      -5.6670   -2.2763   -1.2114   H         1 RES1   0.0000
   171 H84      -4.1563   -3.0638    0.5111   H         1 RES1   0.0000
   172 H85      -2.7613   -2.2690   -0.2551   H         1 RES1   0.0000
   173 H86      -3.0510   -3.7808   -2.2363   H         1 RES1   0.0000
   174 H87      -4.5022   -4.4597   -1.5207   H         1 RES1   0.0000
   175 H88      -2.6656   -5.9802   -1.3470   H         1 RES1   0.0000
   176 H89      -3.2214   -5.5327    0.2619   H         1 RES1   0.0000
   177 H90      -0.8971   -4.0156   -0.9470   H         1 RES1   0.0000
   178 H91      -0.6327   -5.6771   -0.4193   H         1 RES1   0.0000
   179 H92      -1.3218   -5.0614    1.8982   H         1 RES1   0.0000
   180 H93      -1.6266   -3.4026    1.3608   H         1 RES1   0.0000
   181 H94       2.2425   -4.9648    1.3833   H         1 RES1   0.0000
   182 H95       0.8230   -6.0016    1.1983   H         1 RES1   0.0000
   183 H96       1.5417   -6.3420    3.4048   H         1 RES1   0.0000
   184 H97       0.0842   -5.3726    3.5330   H         1 RES1   0.0000
   185 H98       2.6943   -3.9130    3.4545   H         1 RES1   0.0000
   186 H99       2.3805   -4.8234    4.8982   H         1 RES1   0.0000
   187 H100      0.2945   -2.8770    3.9022   H         1 RES1   0.0000
   188 H101      1.7457   -2.3140    4.7333   H         1 RES1   0.0000
   189 H102      0.5531   -2.5502    6.6173   H         1 RES1   0.0000
   190 H103      0.9500   -4.2522    6.4890   H         1 RES1   0.0000
   191 H104     -1.2306   -4.7051    5.4221   H         1 RES1   0.0000
   192 H105     -1.5609   -2.9718    5.3573   H         1 RES1   0.0000
   193 H106     -1.4543   -2.9129    7.8762   H         1 RES1   0.0000
   194 H107     -1.2773   -4.6593    7.8742   H         1 RES1   0.0000
   195 H108     -3.6584   -3.1319    6.7148   H         1 RES1   0.0000
   196 H109     -3.6440   -4.0006    8.2455   H         1 RES1   0.0000
   197 H110     -3.4855   -4.8866    6.7300   H         1 RES1   0.0000
   198 H111      2.3783   -3.1546   -0.4182   H         1 RES1   0.0000
   199 H112      3.1079   -1.5455    2.0991   H         1 RES1   0.0000
   200 H113      4.2171   -2.1077    0.8274   H         1 RES1   0.0000
   201 H114      3.4324   -3.2614    1.8527   H         1 RES1   0.0000
   202 H115      3.7511   -0.9310   -1.1052   H         1 RES1   0.0000
   203 H116      2.3250    0.9410    0.8045   H         1 RES1   0.0000
   204 H117      3.5646    1.6642   -0.2105   H         1 RES1   0.0000
   205 H118      4.0297    0.4079    0.9265   H         1 RES1   0.0000
   206 H119      1.2651    1.3042   -4.0442   H         1 RES1   0.0000
   207 H120      2.6288    0.9416   -5.0859   H         1 RES1   0.0000
   208 H121      3.7292    3.1099   -4.1765   H         1 RES1   0.0000
   209 H122      2.1828    3.4454   -3.4049   H         1 RES1   0.0000
   210 H123      1.1146    3.4134   -5.7001   H         1 RES1   0.0000
   211 H124      2.7152    3.2184   -6.3986   H         1 RES1   0.0000
   212 H125      3.4412    5.3477   -5.7121   H         1 RES1   0.0000
   213 H126      2.2295    5.4915   -4.4485   H         1 RES1   0.0000
   214 H127      1.6201    5.5286   -7.4264   H         1 RES1   0.0000
   215 H128      1.8764    6.9609   -6.4452   H         1 RES1   0.0000
   216 H129     -0.1482    5.2751   -5.1712   H         1 RES1   0.0000
   217 H130     -0.5858    5.5496   -6.8478   H         1 RES1   0.0000
   218 H131     -1.5888    7.2763   -5.5331   H         1 RES1   0.0000
   219 H132     -0.2979    8.0174   -6.4681   H         1 RES1   0.0000
   220 H133     -0.1662    7.2169   -3.5236   H         1 RES1   0.0000
   221 H134     -0.2123    8.8619   -4.1603   H         1 RES1   0.0000
   222 H135      1.2018    7.8581   -4.4384   H         1 RES1   0.0000
   223 H136      4.8712    0.0959   -2.3870   H         1 RES1   0.0000
   224 H137      4.7383    1.8500   -2.5181   H         1 RES1   0.0000
   225 H138      4.5794    1.2637   -5.1552   H         1 RES1   0.0000
   226 H139      5.3777   -0.1972   -4.6361   H         1 RES1   0.0000
   227 H140      7.2872    1.0268   -4.8775   H         1 RES1   0.0000
   228 H141      6.8775    1.7611   -3.3342   H         1 RES1   0.0000
   229 H142      5.6222    3.5595   -4.6107   H         1 RES1   0.0000
   230 H143      6.1980    2.8208   -6.1024   H         1 RES1   0.0000
   231 H144      7.8701    4.3665   -5.8700   H         1 RES1   0.0000
   232 H145      8.5782    3.1312   -4.8428   H         1 RES1   0.0000
   233 H146      7.6370    4.2577   -2.8340   H         1 RES1   0.0000
   234 H147      6.7898    5.4014   -3.8711   H         1 RES1   0.0000
   235 H148      8.7316    6.5110   -3.0278   H         1 RES1   0.0000
   236 H149      8.9336    6.2378   -4.7555   H         1 RES1   0.0000
   237 H150     10.2648    4.6502   -2.5104   H         1 RES1   0.0000
   238 H151     11.0318    5.7740   -3.6321   H         1 RES1   0.0000
   239 H152     10.4005    4.2452   -4.2252   H         1 RES1   0.0000
   240 N5       -1.4835   -1.5281   -2.4164   N.3       1 RES1   0.0000
   241 O7       -1.9075   -2.1660   -3.3224   O.2       1 RES1   0.0000
   242 O8       -2.0179   -0.4722   -2.0487   O.co2     1 RES1   0.0000
   243 O9       -0.4863   -1.9078   -1.7696   O.co2     1 RES1   0.0000
@<TRIPOS>BOND
     1     1    20    1
     2     1    23    1
     3     1    27    1
     4     1   139    1
     5     1   142    1
     6     1   146    1
     7     1   242    1
     8     1   243    1
     9     2     3    1
    10     2    45    1
    11     2    46    1
    12     2    47    1
    13     3     4    1
    14     3    48    1
    15     3    49    1
    16     4     5    1
    17     4    50    1
    18     4    51    1
    19     5     6    1
    20     5    52    1
    21     5    53    1
    22     6     7    1
    23     6    54    1
    24     6    55    1
    25     7     8    1
    26     7    56    1
    27     7    57    1
    28     8     9    1
    29     8    58    1
    30     8    59    1
    31     9    10    1
    32     9    60    1
    33     9    61    1
    34    10    11    1
    35    10    19    1
    36    11    12    1
    37    11    62    1
    38    11    63    1
    39    12    13    1
    40    12    64    1
    41    12    65    1
    42    13    14    1
    43    13    66    1
    44    13    67    1
    45    14    15    1
    46    14    68    1
    47    14    69    1
    48    15    16    1
    49    15    70    1
    50    15    71    1
    51    16    17    1
    52    16    72    1
    53    16    73    1
    54    17    18    1
    55    17    74    1
    56    17    75    1
    57    18    76    1
    58    18    77    1
    59    18    78    1
    60    19    20    2
    61    19    21    1
    62    21    22    1
    63    21    23    1
    64    21    79    1
    65    22    80    1
    66    22    81    1
    67    22    82    1
    68    23    24    1
    69    24    25    1
    70    24    26    1
    71    24    83    1
    72    25    84    1
    73    25    85    1
    74    25    86    1
    75    26    27    2
    76    26    28    1
    77    28    29    1
    78    28    37    1
    79    29    30    1
    80    29    87    1
    81    29    88    1
    82    30    31    1
    83    30    89    1
    84    30    90    1
    85    31    32    1
    86    31    91    1
    87    31    92    1
    88    32    33    1
    89    32    93    1
    90    32    94    1
    91    33    34    1
    92    33    95    1
    93    33    96    1
    94    34    35    1
    95    34    97    1
    96    34    98    1
    97    35    36    1
    98    35    99    1
    99    35   100    1
   100    36   101    1
   101    36   102    1
   102    36   103    1
   103    37    38    1
   104    37   104    1
   105    37   105    1
   106    38    39    1
   107    38   106    1
   108    38   107    1
   109    39    40    1
   110    39   108    1
   111    39   109    1
   112    40    41    1
   113    40   110    1
   114    40   111    1
   115    41    42    1
   116    41   112    1
   117    41   113    1
   118    42    43    1
   119    42   114    1
   120    42   115    1
   121    43    44    1
   122    43   116    1
   123    43   117    1
   124    44   118    1
   125    44   119    1
   126    44   120    1
   127   121   122    1
   128   121   164    1
   129   121   165    1
   130   121   166    1
   131   122   123    1
   132   122   167    1
   133   122   168    1
   134   123   124    1
   135   123   169    1
   136   123   170    1
   137   124   125    1
   138   124   171    1
   139   124   172    1
   140   125   126    1
   141   125   173    1
   142   125   174    1
   143   126   127    1
   144   126   175    1
   145   126   176    1
   146   127   128    1
   147   127   177    1
   148   127   178    1
   149   128   129    1
   150   128   179    1
   151   128   180    1
   152   129   130    1
   153   129   138    1
   154   130   131    1
   155   130   181    1
   156   130   182    1
   157   131   132    1
   158   131   183    1
   159   131   184    1
   160   132   133    1
   161   132   185    1
   162   132   186    1
   163   133   134    1
   164   133   187    1
   165   133   188    1
   166   134   135    1
   167   134   189    1
   168   134   190    1
   169   135   136    1
   170   135   191    1
   171   135   192    1
   172   136   137    1
   173   136   193    1
   174   136   194    1
   175   137   195    1
   176   137   196    1
   177   137   197    1
   178   138   139    2
   179   138   140    1
   180   140   141    1
   181   140   142    1
   182   140   198    1
   183   141   199    1
   184   141   200    1
   185   141   201    1
   186   142   143    1
   187   143   144    1
   188   143   145    1
   189   143   202    1
   190   144   203    1
   191   144   204    1
   192   144   205    1
   193   145   146    2
   194   145   147    1
   195   147   148    1
   196   147   156    1
   197   148   149    1
   198   148   206    1
   199   148   207    1
   200   149   150    1
   201   149   208    1
   202   149   209    1
   203   150   151    1
   204   150   210    1
   205   150   211    1
   206   151   152    1
   207   151   212    1
   208   151   213    1
   209   152   153    1
   210   152   214    1
   211   152   215    1
   212   153   154    1
   213   153   216    1
   214   153   217    1
   215   154   155    1
   216   154   218    1
   217   154   219    1
   218   155   220    1
   219   155   221    1
   220   155   222    1
   221   156   157    1
   222   156   223    1
   223   156   224    1
   224   157   158    1
   225   157   225    1
   226   157   226    1
   227   158   159    1
   228   158   227    1
   229   158   228    1
   230   159   160    1
   231   159   229    1
   232   159   230    1
   233   160   161    1
   234   160   231    1
   235   160   232    1
   236   161   162    1
   237   161   233    1
   238   161   234    1
   239   162   163    1
   240   162   235    1
   241   162   236    1
   242   163   237    1
   243   163   238    1
   244   163   239    1
   245   240   241    2
   246   240   242    1
   247   240   243    1
@<TRIPOS>SUBSTRUCTURE
     1 RES1      243 GROUP             0 ****  ****    0  
