@<TRIPOS>MOLECULE
bicapped_trigonal_prismatic_0_nunpairedes_0_charge_3 Charge: 3 Unpaired_Electrons: 2 XTB_Unpaired_Electrons: 0 XTB_Charge: 3
   117   130     1     0     0
SMALL
NoCharges
****
Generated from Architector

@<TRIPOS>ATOM
     1 Tm1       1.8327    0.0168   -0.3583   Tm        1 RES1   0.0000
     2 C1       -1.9907   -4.5753   -3.7623   C.3       1 RES1   0.0000
     3 C2       -0.8130   -5.4361   -3.3215   C.3       1 RES1   0.0000
     4 C3       -0.6620   -5.6023   -1.8091   C.3       1 RES1   0.0000
     5 C4       -0.3754   -4.3162   -1.0244   C.3       1 RES1   0.0000
     6 C5       -1.6590   -3.6019   -0.6156   C.3       1 RES1   0.0000
     7 C6       -1.4283   -2.2648    0.0669   C.3       1 RES1   0.0000
     8 N1       -0.7250   -2.3014    1.3531   N.ar      1 RES1   0.0000
     9 C7       -1.4109   -2.4464    2.5397   C.ar      1 RES1   0.0000
    10 C8       -2.8562   -2.7435    2.4601   C.ar      1 RES1   0.0000
    11 C9       -3.3999   -4.0167    2.3975   C.ar      1 RES1   0.0000
    12 C10      -4.7734   -4.1659    2.3020   C.ar      1 RES1   0.0000
    13 C11      -5.5975   -3.0554    2.2722   C.ar      1 RES1   0.0000
    14 C12      -5.0562   -1.7817    2.3348   C.ar      1 RES1   0.0000
    15 C13      -3.6894   -1.6231    2.4318   C.ar      1 RES1   0.0000
    16 C14      -0.8683   -2.0526    3.7469   C.ar      1 RES1   0.0000
    17 C15      -1.4782   -2.5246    5.0102   C.ar      1 RES1   0.0000
    18 C16      -2.5498   -1.9465    5.6813   C.ar      1 RES1   0.0000
    19 C17      -3.0691   -2.5773    6.8001   C.ar      1 RES1   0.0000
    20 C18      -2.5302   -3.7696    7.2490   C.ar      1 RES1   0.0000
    21 C19      -1.4529   -4.3350    6.5909   C.ar      1 RES1   0.0000
    22 C20      -0.9251   -3.7178    5.4764   C.ar      1 RES1   0.0000
    23 C21       0.2276   -1.1309    3.6831   C.ar      1 RES1   0.0000
    24 C22       0.3694   -0.0543    4.5883   C.ar      1 RES1   0.0000
    25 C23       0.8158    1.1671    4.0869   C.ar      1 RES1   0.0000
    26 C24       0.5034    2.4408    4.6919   C.ar      1 RES1   0.0000
    27 C25       0.2285    3.5130    3.9181   C.ar      1 RES1   0.0000
    28 C26       0.3148    3.4167    2.4813   C.ar      1 RES1   0.0000
    29 C27      -0.5222    4.0932    1.5940   C.ar      1 RES1   0.0000
    30 C28      -0.6090    3.6383    0.2576   C.ar      1 RES1   0.0000
    31 C29      -1.7900    3.7345   -0.5515   C.ar      1 RES1   0.0000
    32 C30      -2.8358    4.7695   -0.3714   C.ar      1 RES1   0.0000
    33 C31      -4.0621    4.5869    0.2586   C.ar      1 RES1   0.0000
    34 C32      -5.0204    5.5851    0.1852   C.ar      1 RES1   0.0000
    35 C33      -4.7684    6.7461   -0.5256   C.ar      1 RES1   0.0000
    36 C34      -3.5366    6.9424   -1.1256   C.ar      1 RES1   0.0000
    37 C35      -2.5685    5.9627   -1.0424   C.ar      1 RES1   0.0000
    38 C36      -1.9679    2.8118   -1.5584   C.ar      1 RES1   0.0000
    39 C37      -3.3025    2.5039   -2.1135   C.ar      1 RES1   0.0000
    40 C38      -3.8411    3.1336   -3.2259   C.ar      1 RES1   0.0000
    41 C39      -5.0503    2.6910   -3.7357   C.ar      1 RES1   0.0000
    42 C40      -5.7143    1.6301   -3.1459   C.ar      1 RES1   0.0000
    43 C41      -5.1918    1.0166   -2.0187   C.ar      1 RES1   0.0000
    44 C42      -3.9895    1.4529   -1.5022   C.ar      1 RES1   0.0000
    45 N2       -0.9449    1.9851   -1.9674   N.ar      1 RES1   0.0000
    46 C43      -1.1302    0.9251   -2.9525   C.3       1 RES1   0.0000
    47 C44      -0.6069    1.3756   -4.3193   C.3       1 RES1   0.0000
    48 C45      -0.2857    0.2122   -5.2551   C.3       1 RES1   0.0000
    49 C46       0.4550    0.6934   -6.5025   C.3       1 RES1   0.0000
    50 C47      -0.3805    1.6259   -7.3726   C.3       1 RES1   0.0000
    51 C48       0.3712    2.1035   -8.6031   C.3       1 RES1   0.0000
    52 C49       0.2944    2.0617   -1.4418   C.ar      1 RES1   0.0000
    53 O1        1.2142    1.2880   -1.8542   O.2       1 RES1   0.0000
    54 C50       0.4163    2.7692   -0.1898   C.ar      1 RES1   0.0000
    55 N3        1.3153    2.1979    0.6409   N.ar      1 RES1   0.0000
    56 C51       1.1409    2.3754    1.9565   C.ar      1 RES1   0.0000
    57 C52       1.3503    1.1919    2.7673   C.ar      1 RES1   0.0000
    58 N4        1.5913    0.0708    2.0661   N.ar      1 RES1   0.0000
    59 C53       0.9360   -1.0471    2.4606   C.ar      1 RES1   0.0000
    60 C54       0.5564   -1.8712    1.3331   C.ar      1 RES1   0.0000
    61 O2        1.2047   -1.8423    0.2425   O.2       1 RES1   0.0000
    62 H1       -2.1793   -4.7221   -4.8209   H         1 RES1   0.0000
    63 H2       -1.8021   -3.5137   -3.6059   H         1 RES1   0.0000
    64 H3       -2.8905   -4.8612   -3.2253   H         1 RES1   0.0000
    65 H4        0.1113   -5.0380   -3.7429   H         1 RES1   0.0000
    66 H5       -0.9447   -6.4340   -3.7369   H         1 RES1   0.0000
    67 H6        0.1552   -6.3000   -1.6314   H         1 RES1   0.0000
    68 H7       -1.5649   -6.0643   -1.4101   H         1 RES1   0.0000
    69 H8        0.2622   -3.6489   -1.6151   H         1 RES1   0.0000
    70 H9        0.1791   -4.5590   -0.1167   H         1 RES1   0.0000
    71 H10      -2.2372   -4.2385    0.0513   H         1 RES1   0.0000
    72 H11      -2.2695   -3.3928   -1.4909   H         1 RES1   0.0000
    73 H12      -2.3898   -1.7817    0.2544   H         1 RES1   0.0000
    74 H13      -0.8320   -1.6056   -0.5937   H         1 RES1   0.0000
    75 H14      -2.7548   -4.8798    2.4427   H         1 RES1   0.0000
    76 H15      -5.1984   -5.1550    2.2654   H         1 RES1   0.0000
    77 H16      -6.6647   -3.1809    2.2221   H         1 RES1   0.0000
    78 H17      -5.6986   -0.9172    2.3292   H         1 RES1   0.0000
    79 H18      -3.2468   -0.6350    2.4894   H         1 RES1   0.0000
    80 H19      -2.9859   -1.0203    5.3303   H         1 RES1   0.0000
    81 H20      -3.9023   -2.1339    7.3191   H         1 RES1   0.0000
    82 H21      -2.9370   -4.2543    8.1176   H         1 RES1   0.0000
    83 H22      -1.0175   -5.2549    6.9400   H         1 RES1   0.0000
    84 H23      -0.0889   -4.1558    4.9507   H         1 RES1   0.0000
    85 H24      -0.0686   -0.1324    5.5746   H         1 RES1   0.0000
    86 H25       0.3638    2.4781    5.7584   H         1 RES1   0.0000
    87 H26      -0.1500    4.4296    4.3419   H         1 RES1   0.0000
    88 H27      -1.2400    4.8271    1.9436   H         1 RES1   0.0000
    89 H28      -4.2742    3.6767    0.8037   H         1 RES1   0.0000
    90 H29      -5.9697    5.4503    0.6787   H         1 RES1   0.0000
    91 H30      -5.5262    7.5046   -0.6068   H         1 RES1   0.0000
    92 H31      -3.3247    7.8505   -1.6647   H         1 RES1   0.0000
    93 H32      -1.6083    6.0958   -1.5186   H         1 RES1   0.0000
    94 H33      -3.3185    3.9588   -3.6846   H         1 RES1   0.0000
    95 H34      -5.4682    3.1754   -4.6028   H         1 RES1   0.0000
    96 H35      -6.6420    1.2801   -3.5623   H         1 RES1   0.0000
    97 H36      -5.7183    0.2022   -1.5497   H         1 RES1   0.0000
    98 H37      -3.5679    0.9829   -0.6190   H         1 RES1   0.0000
    99 H38      -2.1822    0.6450   -2.9899   H         1 RES1   0.0000
   100 H39      -0.5512    0.0568   -2.5913   H         1 RES1   0.0000
   101 H40       0.3116    1.9467   -4.1639   H         1 RES1   0.0000
   102 H41      -1.3590    2.0237   -4.7675   H         1 RES1   0.0000
   103 H42      -1.2010   -0.3041   -5.5413   H         1 RES1   0.0000
   104 H43       0.3449   -0.5005   -4.7168   H         1 RES1   0.0000
   105 H44       0.7429   -0.1769   -7.0921   H         1 RES1   0.0000
   106 H45       1.3699    1.2011   -6.1940   H         1 RES1   0.0000
   107 H46      -0.6893    2.5036   -6.7991   H         1 RES1   0.0000
   108 H47      -1.2906    1.1073   -7.6839   H         1 RES1   0.0000
   109 H48       1.2653    2.6616   -8.3253   H         1 RES1   0.0000
   110 H49      -0.2638    2.7494   -9.2035   H         1 RES1   0.0000
   111 H50       0.6869    1.2658   -9.2228   H         1 RES1   0.0000
   112 O3        1.9822   -1.3603   -2.3885   O.3       1 RES1   0.0000
   113 H51       2.7172   -1.7390   -2.9014   H         1 RES1   0.0000
   114 H52       1.2025   -1.8439   -2.7152   H         1 RES1   0.0000
   115 O4       -0.8208    0.4689    0.7067   O.3       1 RES1   0.0000
   116 H53      -0.9208    0.7293    1.6337   H         1 RES1   0.0000
   117 H54      -1.6078    0.8323    0.2719   H         1 RES1   0.0000
@<TRIPOS>BOND
     1     1     8    1
     2     1    45    1
     3     1    53    1
     4     1    55    1
     5     1    58    1
     6     1    61    1
     7     1   112    1
     8     1   115    1
     9     2     3    1
    10     2    62    1
    11     2    63    1
    12     2    64    1
    13     3     4    1
    14     3    65    1
    15     3    66    1
    16     4     5    1
    17     4    67    1
    18     4    68    1
    19     5     6    1
    20     5    69    1
    21     5    70    1
    22     6     7    1
    23     6    71    1
    24     6    72    1
    25     7     8    1
    26     7    73    1
    27     7    74    1
    28     8     9    1
    29     8    60    1
    30     9    10    1
    31     9    16    2
    32    10    11    1
    33    10    15    2
    34    11    12    2
    35    11    75    1
    36    12    13    1
    37    12    76    1
    38    13    14    2
    39    13    77    1
    40    14    15    1
    41    14    78    1
    42    15    79    1
    43    16    17    1
    44    16    23    1
    45    17    18    1
    46    17    22    2
    47    18    19    2
    48    18    80    1
    49    19    20    1
    50    19    81    1
    51    20    21    2
    52    20    82    1
    53    21    22    1
    54    21    83    1
    55    22    84    1
    56    23    24    1
    57    23    59    2
    58    24    25    2
    59    24    85    1
    60    25    26    1
    61    25    57    1
    62    26    27    2
    63    26    86    1
    64    27    28    1
    65    27    87    1
    66    28    29    1
    67    28    56    2
    68    29    30    2
    69    29    88    1
    70    30    31    1
    71    30    54    1
    72    31    32    1
    73    31    38    2
    74    32    33    1
    75    32    37    2
    76    33    34    2
    77    33    89    1
    78    34    35    1
    79    34    90    1
    80    35    36    2
    81    35    91    1
    82    36    37    1
    83    36    92    1
    84    37    93    1
    85    38    39    1
    86    38    45    1
    87    39    40    1
    88    39    44    2
    89    40    41    2
    90    40    94    1
    91    41    42    1
    92    41    95    1
    93    42    43    2
    94    42    96    1
    95    43    44    1
    96    43    97    1
    97    44    98    1
    98    45    46    1
    99    45    52    1
   100    46    47    1
   101    46    99    1
   102    46   100    1
   103    47    48    1
   104    47   101    1
   105    47   102    1
   106    48    49    1
   107    48   103    1
   108    48   104    1
   109    49    50    1
   110    49   105    1
   111    49   106    1
   112    50    51    1
   113    50   107    1
   114    50   108    1
   115    51   109    1
   116    51   110    1
   117    51   111    1
   118    52    53    2
   119    52    54    1
   120    54    55    2
   121    55    56    1
   122    56    57    1
   123    57    58    2
   124    58    59    1
   125    59    60    1
   126    60    61    2
   127   112   113    1
   128   112   114    1
   129   115   116    1
   130   115   117    1
@<TRIPOS>SUBSTRUCTURE
     1 RES1      117 GROUP             0 ****  ****    0  
