@<TRIPOS>MOLECULE
am_c3_9H2O_c0_0_nunpairedes_0_charge_3 Charge: 3 Unpaired_Electrons: 5 XTB_Unpaired_Electrons: 0 XTB_Charge: 3
   126   137     1     0     0
SMALL
NoCharges
****
Generated from Architector

@<TRIPOS>ATOM
     1 Sm1      -0.1110    0.0448    0.0244   Sm        1 RES1   0.0000
     2 C1        2.3623    2.7411    5.1735   C.3       1 RES1   0.0000
     3 C2        0.8793    2.8538    4.8521   C.3       1 RES1   0.0000
     4 C3        0.1355    1.5640    5.2020   C.3       1 RES1   0.0000
     5 C4       -1.3806    1.6982    5.0517   C.3       1 RES1   0.0000
     6 C5       -2.1633    0.4621    5.5010   C.3       1 RES1   0.0000
     7 C6       -2.1958   -0.7116    4.5193   C.3       1 RES1   0.0000
     8 N1       -0.8863   -1.2996    4.2346   N.ar      1 RES1   0.0000
     9 C7       -0.1599   -1.9900    5.1822   C.ar      1 RES1   0.0000
    10 C8       -0.8332   -2.2964    6.4570   C.ar      1 RES1   0.0000
    11 C9       -2.0139   -3.0406    6.4773   C.ar      1 RES1   0.0000
    12 C10      -2.6418   -3.3196    7.6748   C.ar      1 RES1   0.0000
    13 C11      -2.1106   -2.8764    8.8735   C.ar      1 RES1   0.0000
    14 C12      -0.9349   -2.1470    8.8567   C.ar      1 RES1   0.0000
    15 C13      -0.2942   -1.8570    7.6650   C.ar      1 RES1   0.0000
    16 C14       1.1467   -2.3922    4.9642   C.ar      1 RES1   0.0000
    17 C15       1.8174   -3.2290    5.9792   C.ar      1 RES1   0.0000
    18 C16       1.2304   -4.4276    6.3885   C.ar      1 RES1   0.0000
    19 C17       1.8449   -5.2134    7.3439   C.ar      1 RES1   0.0000
    20 C18       3.0453   -4.8191    7.9156   C.ar      1 RES1   0.0000
    21 C19       3.6220   -3.6213    7.5258   C.ar      1 RES1   0.0000
    22 C20       3.0191   -2.8308    6.5604   C.ar      1 RES1   0.0000
    23 C21       1.8044   -2.0272    3.7452   C.ar      1 RES1   0.0000
    24 C22       3.1257   -2.3347    3.3539   C.ar      1 RES1   0.0000
    25 C23       3.5811   -1.9946    2.0770   C.ar      1 RES1   0.0000
    26 C24       4.8804   -2.3025    1.5385   C.ar      1 RES1   0.0000
    27 C25       5.2400   -1.9757    0.2695   C.ar      1 RES1   0.0000
    28 C26       4.3302   -1.3398   -0.6466   C.ar      1 RES1   0.0000
    29 C27       4.5951   -1.0336   -1.9829   C.ar      1 RES1   0.0000
    30 C28       3.6070   -0.4223   -2.7839   C.ar      1 RES1   0.0000
    31 C29       3.7438    0.0241   -4.1360   C.ar      1 RES1   0.0000
    32 C30       5.0393   -0.0931   -4.8524   C.ar      1 RES1   0.0000
    33 C31       5.9705    0.9395   -4.7945   C.ar      1 RES1   0.0000
    34 C32       7.1827    0.8086   -5.4472   C.ar      1 RES1   0.0000
    35 C33       7.4795   -0.3364   -6.1662   C.ar      1 RES1   0.0000
    36 C34       6.5431   -1.3518   -6.2396   C.ar      1 RES1   0.0000
    37 C35       5.3283   -1.2377   -5.5853   C.ar      1 RES1   0.0000
    38 C36       2.6783    0.6150   -4.7766   C.ar      1 RES1   0.0000
    39 C37       2.8193    1.1431   -6.1540   C.ar      1 RES1   0.0000
    40 C38       2.9509    2.5186   -6.3571   C.ar      1 RES1   0.0000
    41 C39       3.0886    3.0178   -7.6381   C.ar      1 RES1   0.0000
    42 C40       3.0809    2.1715   -8.7338   C.ar      1 RES1   0.0000
    43 C41       2.9372    0.8108   -8.5321   C.ar      1 RES1   0.0000
    44 C42       2.8118    0.2916   -7.2541   C.ar      1 RES1   0.0000
    45 N2        1.4603    0.8039   -4.1529   N.ar      1 RES1   0.0000
    46 C43       0.3209    1.3957   -4.8512   C.3       1 RES1   0.0000
    47 C44      -0.8985    0.4694   -4.8928   C.3       1 RES1   0.0000
    48 C45      -0.6333   -0.8710   -5.5853   C.3       1 RES1   0.0000
    49 C46      -1.8841   -1.7531   -5.7163   C.3       1 RES1   0.0000
    50 C47      -2.4305   -2.2757   -4.3881   C.3       1 RES1   0.0000
    51 C48      -3.6007   -3.2334   -4.5761   C.3       1 RES1   0.0000
    52 C49       1.2765    0.4932   -2.8551   C.ar      1 RES1   0.0000
    53 O1        0.2161    0.8028   -2.2333   O.2       1 RES1   0.0000
    54 C50       2.3549   -0.1848   -2.1689   C.ar      1 RES1   0.0000
    55 N3        2.0797   -0.5017   -0.9005   N.ar      1 RES1   0.0000
    56 C51       3.0385   -1.0258   -0.1451   C.ar      1 RES1   0.0000
    57 C52       2.6803   -1.3106    1.2206   C.ar      1 RES1   0.0000
    58 N4        1.4485   -0.9707    1.5830   N.ar      1 RES1   0.0000
    59 C53       1.0075   -1.3511    2.7841   C.ar      1 RES1   0.0000
    60 C54      -0.3967   -1.0871    2.9953   C.ar      1 RES1   0.0000
    61 O2       -1.1229   -0.6780    2.0421   O.2       1 RES1   0.0000
    62 H1        2.8806    3.6557    4.9049   H         1 RES1   0.0000
    63 H2        2.8179    1.9129    4.6319   H         1 RES1   0.0000
    64 H3        2.5010    2.5780    6.2378   H         1 RES1   0.0000
    65 H4        0.7650    3.0902    3.7868   H         1 RES1   0.0000
    66 H5        0.4507    3.6845    5.4137   H         1 RES1   0.0000
    67 H6        0.3537    1.3150    6.2429   H         1 RES1   0.0000
    68 H7        0.5210    0.7483    4.5837   H         1 RES1   0.0000
    69 H8       -1.6547    1.9552    4.0245   H         1 RES1   0.0000
    70 H9       -1.6989    2.5296    5.6817   H         1 RES1   0.0000
    71 H10      -3.2117    0.7368    5.6207   H         1 RES1   0.0000
    72 H11      -1.7922    0.1397    6.4732   H         1 RES1   0.0000
    73 H12      -2.5766   -0.3729    3.5542   H         1 RES1   0.0000
    74 H13      -2.8606   -1.4827    4.9017   H         1 RES1   0.0000
    75 H14      -2.4182   -3.4420    5.5577   H         1 RES1   0.0000
    76 H15      -3.5567   -3.8829    7.6678   H         1 RES1   0.0000
    77 H16      -2.6054   -3.0957    9.8072   H         1 RES1   0.0000
    78 H17      -0.5254   -1.8001    9.7876   H         1 RES1   0.0000
    79 H18       0.6179   -1.2781    7.6576   H         1 RES1   0.0000
    80 H19       0.2950   -4.7485    5.9525   H         1 RES1   0.0000
    81 H20       1.3749   -6.1325    7.6527   H         1 RES1   0.0000
    82 H21       3.5243   -5.4361    8.6626   H         1 RES1   0.0000
    83 H22       4.5401   -3.3054    7.9943   H         1 RES1   0.0000
    84 H23       3.4456   -1.8742    6.2886   H         1 RES1   0.0000
    85 H24       3.7805   -2.8737    4.0245   H         1 RES1   0.0000
    86 H25       5.5748   -2.8152    2.1893   H         1 RES1   0.0000
    87 H26       6.2308   -2.2095   -0.0940   H         1 RES1   0.0000
    88 H27       5.5653   -1.2535   -2.4038   H         1 RES1   0.0000
    89 H28       5.7401    1.8442   -4.2478   H         1 RES1   0.0000
    90 H29       7.8987    1.6092   -5.3907   H         1 RES1   0.0000
    91 H30       8.4308   -0.4408   -6.6648   H         1 RES1   0.0000
    92 H31       6.7679   -2.2362   -6.8095   H         1 RES1   0.0000
    93 H32       4.5890   -2.0256   -5.6427   H         1 RES1   0.0000
    94 H33       2.9567    3.1952   -5.5134   H         1 RES1   0.0000
    95 H34       3.1899    4.0785   -7.7788   H         1 RES1   0.0000
    96 H35       3.1717    2.5673   -9.7339   H         1 RES1   0.0000
    97 H36       2.9153    0.1545   -9.3834   H         1 RES1   0.0000
    98 H37       2.6928   -0.7711   -7.1009   H         1 RES1   0.0000
    99 H38       0.6371    1.6496   -5.8606   H         1 RES1   0.0000
   100 H39       0.0681    2.3131   -4.3130   H         1 RES1   0.0000
   101 H40      -1.6662    1.0102   -5.4444   H         1 RES1   0.0000
   102 H41      -1.2639    0.3217   -3.8755   H         1 RES1   0.0000
   103 H42       0.1448   -1.4287   -5.0506   H         1 RES1   0.0000
   104 H43      -0.2588   -0.6715   -6.5920   H         1 RES1   0.0000
   105 H44      -1.6302   -2.6106   -6.3405   H         1 RES1   0.0000
   106 H45      -2.6691   -1.1973   -6.2310   H         1 RES1   0.0000
   107 H46      -2.7872   -1.4261   -3.8001   H         1 RES1   0.0000
   108 H47      -1.6267   -2.8123   -3.8653   H         1 RES1   0.0000
   109 H48      -4.4180   -2.7332   -5.0856   H         1 RES1   0.0000
   110 H49      -3.9667   -3.5899   -3.6156   H         1 RES1   0.0000
   111 H50      -3.3031   -4.0942   -5.1662   H         1 RES1   0.0000
   112 O3       -2.4060    0.8336   -0.2194   O.3       1 RES1   0.0000
   113 H51      -2.6907    1.2636   -1.0404   H         1 RES1   0.0000
   114 H52      -3.1773    0.3539    0.1212   H         1 RES1   0.0000
   115 O4        1.8300    1.9825    0.0599   O.3       1 RES1   0.0000
   116 H53       1.8820    2.5839   -0.6959   H         1 RES1   0.0000
   117 H54       2.6854    2.0587    0.5056   H         1 RES1   0.0000
   118 O5       -0.5142    1.9112    1.6834   O.3       1 RES1   0.0000
   119 H55      -0.0125    2.1296    2.4914   H         1 RES1   0.0000
   120 H56      -1.4324    2.1482    1.8900   H         1 RES1   0.0000
   121 O6       -1.5671   -1.3401   -1.6339   O.3       1 RES1   0.0000
   122 H57      -2.3027   -1.9659   -1.5519   H         1 RES1   0.0000
   123 H58      -1.2527   -1.4549   -2.5502   H         1 RES1   0.0000
   124 O7        0.1426   -2.6802   -0.1379   O.3       1 RES1   0.0000
   125 H59      -0.4318   -3.3202    0.3037   H         1 RES1   0.0000
   126 H60       0.6343   -3.1859   -0.7987   H         1 RES1   0.0000
@<TRIPOS>BOND
     1     1    53    1
     2     1    55    1
     3     1    58    1
     4     1    61    1
     5     1   112    1
     6     1   115    1
     7     1   118    1
     8     1   121    1
     9     1   124    1
    10     2     3    1
    11     2    62    1
    12     2    63    1
    13     2    64    1
    14     3     4    1
    15     3    65    1
    16     3    66    1
    17     4     5    1
    18     4    67    1
    19     4    68    1
    20     5     6    1
    21     5    69    1
    22     5    70    1
    23     6     7    1
    24     6    71    1
    25     6    72    1
    26     7     8    1
    27     7    73    1
    28     7    74    1
    29     8     9    1
    30     8    60    1
    31     9    10    1
    32     9    16    2
    33    10    11    1
    34    10    15    2
    35    11    12    2
    36    11    75    1
    37    12    13    1
    38    12    76    1
    39    13    14    2
    40    13    77    1
    41    14    15    1
    42    14    78    1
    43    15    79    1
    44    16    17    1
    45    16    23    1
    46    17    18    1
    47    17    22    2
    48    18    19    2
    49    18    80    1
    50    19    20    1
    51    19    81    1
    52    20    21    2
    53    20    82    1
    54    21    22    1
    55    21    83    1
    56    22    84    1
    57    23    24    1
    58    23    59    2
    59    24    25    2
    60    24    85    1
    61    25    26    1
    62    25    57    1
    63    26    27    2
    64    26    86    1
    65    27    28    1
    66    27    87    1
    67    28    29    1
    68    28    56    2
    69    29    30    2
    70    29    88    1
    71    30    31    1
    72    30    54    1
    73    31    32    1
    74    31    38    2
    75    32    33    1
    76    32    37    2
    77    33    34    2
    78    33    89    1
    79    34    35    1
    80    34    90    1
    81    35    36    2
    82    35    91    1
    83    36    37    1
    84    36    92    1
    85    37    93    1
    86    38    39    1
    87    38    45    1
    88    39    40    1
    89    39    44    2
    90    40    41    2
    91    40    94    1
    92    41    42    1
    93    41    95    1
    94    42    43    2
    95    42    96    1
    96    43    44    1
    97    43    97    1
    98    44    98    1
    99    45    46    1
   100    45    52    1
   101    46    47    1
   102    46    99    1
   103    46   100    1
   104    47    48    1
   105    47   101    1
   106    47   102    1
   107    48    49    1
   108    48   103    1
   109    48   104    1
   110    49    50    1
   111    49   105    1
   112    49   106    1
   113    50    51    1
   114    50   107    1
   115    50   108    1
   116    51   109    1
   117    51   110    1
   118    51   111    1
   119    52    53    2
   120    52    54    1
   121    54    55    2
   122    55    56    1
   123    56    57    1
   124    57    58    2
   125    58    59    1
   126    59    60    1
   127    60    61    2
   128   112   113    1
   129   112   114    1
   130   115   116    1
   131   115   117    1
   132   118   119    1
   133   118   120    1
   134   121   122    1
   135   121   123    1
   136   124   125    1
   137   124   126    1
@<TRIPOS>SUBSTRUCTURE
     1 RES1      126 GROUP             0 ****  ****    0  
