@<TRIPOS>MOLECULE
am_c3_9H2O_c0_0_nunpairedes_0_charge_3 Charge: 3 Unpaired_Electrons: 1 XTB_Unpaired_Electrons: 0 XTB_Charge: 3
   340   345     1     0     0
SMALL
NoCharges
****
Generated from Architector

@<TRIPOS>ATOM
     1 Ce1      -0.0205   -0.0688    0.2544   Ce        1 RES1   0.0000
     2 C1        3.1443    6.6337   -1.5998   C.3       1 RES1   0.0000
     3 C2        1.9514    7.4052   -2.1565   C.3       1 RES1   0.0000
     4 C3        0.8283    7.5973   -1.1388   C.3       1 RES1   0.0000
     5 C4        0.0656    6.3096   -0.7923   C.3       1 RES1   0.0000
     6 C5       -0.9270    6.5588    0.3467   C.3       1 RES1   0.0000
     7 C6       -0.2140    7.0397    1.6228   C.3       1 RES1   0.0000
     8 C7        1.0768    6.2887    1.9355   C.3       1 RES1   0.0000
     9 C8       -1.9457    5.4115    0.5962   C.3       1 RES1   0.0000
    10 N1       -1.4781    4.1370    1.1402   N.am      1 RES1   0.0000
    11 C9       -1.4927    4.0018    2.6042   C.3       1 RES1   0.0000
    12 C10      -2.9037    3.8070    3.2068   C.3       1 RES1   0.0000
    13 C11      -2.9268    4.3244    4.6609   C.3       1 RES1   0.0000
    14 C12      -2.3322    3.3778    5.6998   C.3       1 RES1   0.0000
    15 C13      -3.3542    2.3434    3.1135   C.3       1 RES1   0.0000
    16 C14      -4.8201    2.1510    3.5058   C.3       1 RES1   0.0000
    17 C15      -5.1937    0.6771    3.6682   C.3       1 RES1   0.0000
    18 C16      -4.7091    0.1050    4.9948   C.3       1 RES1   0.0000
    19 C17      -1.1640    3.0596    0.4317   C.2       1 RES1   0.0000
    20 O1       -0.7277    2.0199    0.9641   O.2       1 RES1   0.0000
    21 C18      -1.3483    3.0741   -1.0905   C.3       1 RES1   0.0000
    22 O2       -0.8868    1.8542   -1.6797   O.3       1 RES1   0.0000
    23 C19      -1.8576    1.2477   -2.5261   C.3       1 RES1   0.0000
    24 C20      -2.8789    0.5123   -1.6344   C.2       1 RES1   0.0000
    25 O3       -2.4804    0.2790   -0.4755   O.2       1 RES1   0.0000
    26 N2       -4.0876    0.1941   -2.0820   N.am      1 RES1   0.0000
    27 C21      -4.5610    0.4064   -3.4501   C.3       1 RES1   0.0000
    28 C22      -4.9150   -0.8890   -4.2118   C.3       1 RES1   0.0000
    29 C23      -5.9865   -0.6144   -5.2767   C.3       1 RES1   0.0000
    30 C24      -6.6075   -1.9021   -5.8054   C.3       1 RES1   0.0000
    31 C25      -3.6567   -1.6224   -4.7205   C.3       1 RES1   0.0000
    32 C26      -3.1138   -1.3076   -6.1202   C.3       1 RES1   0.0000
    33 C27      -2.2790   -0.0295   -6.2598   C.3       1 RES1   0.0000
    34 C28      -3.0616    1.1754   -6.7693   C.3       1 RES1   0.0000
    35 C29      -4.9888   -0.4895   -1.1518   C.3       1 RES1   0.0000
    36 C30      -6.1951    0.2767   -0.5677   C.3       1 RES1   0.0000
    37 C31      -7.4173    0.3970   -1.4850   C.3       1 RES1   0.0000
    38 C32      -8.0145   -0.9654   -1.8185   C.3       1 RES1   0.0000
    39 C33      -5.7873    1.5803    0.1300   C.3       1 RES1   0.0000
    40 C34      -5.5979    2.8500   -0.7058   C.3       1 RES1   0.0000
    41 C35      -6.8834    3.6508   -0.9224   C.3       1 RES1   0.0000
    42 C36      -6.5862    5.0767   -1.3625   C.3       1 RES1   0.0000
    43 H1        3.8646    6.4343   -2.3890   H         1 RES1   0.0000
    44 H2        3.6436    7.2176   -0.8315   H         1 RES1   0.0000
    45 H3        2.8415    5.6832   -1.1603   H         1 RES1   0.0000
    46 H4        2.2995    8.3876   -2.4725   H         1 RES1   0.0000
    47 H5        1.5560    6.9084   -3.0411   H         1 RES1   0.0000
    48 H6        1.2571    8.0370   -0.2417   H         1 RES1   0.0000
    49 H7        0.1070    8.3123   -1.5360   H         1 RES1   0.0000
    50 H8       -0.4869    5.9977   -1.6824   H         1 RES1   0.0000
    51 H9        0.7546    5.5066   -0.5211   H         1 RES1   0.0000
    52 H10      -1.5660    7.3887    0.0244   H         1 RES1   0.0000
    53 H11       0.0269    8.1002    1.5322   H         1 RES1   0.0000
    54 H12      -0.9094    6.9650    2.4602   H         1 RES1   0.0000
    55 H13       1.8690    6.5390    1.2368   H         1 RES1   0.0000
    56 H14       1.4153    6.5697    2.9261   H         1 RES1   0.0000
    57 H15       0.9224    5.2120    1.9055   H         1 RES1   0.0000
    58 H16      -2.6557    5.8068    1.3231   H         1 RES1   0.0000
    59 H17      -2.4923    5.2449   -0.3342   H         1 RES1   0.0000
    60 H18      -0.8760    3.1379    2.8609   H         1 RES1   0.0000
    61 H19      -1.0353    4.8908    3.0314   H         1 RES1   0.0000
    62 H20      -3.6130    4.4209    2.6368   H         1 RES1   0.0000
    63 H21      -2.3908    5.2737    4.7017   H         1 RES1   0.0000
    64 H22      -3.9575    4.5375    4.9433   H         1 RES1   0.0000
    65 H23      -1.3613    3.0003    5.3914   H         1 RES1   0.0000
    66 H24      -2.2063    3.9078    6.6390   H         1 RES1   0.0000
    67 H25      -2.9849    2.5320    5.8900   H         1 RES1   0.0000
    68 H26      -3.2001    1.9729    2.0933   H         1 RES1   0.0000
    69 H27      -2.7237    1.7390    3.7644   H         1 RES1   0.0000
    70 H28      -5.0240    2.6613    4.4446   H         1 RES1   0.0000
    71 H29      -5.4526    2.6127    2.7491   H         1 RES1   0.0000
    72 H30      -6.2784    0.5783    3.6307   H         1 RES1   0.0000
    73 H31      -4.7768    0.0985    2.8400   H         1 RES1   0.0000
    74 H32      -5.1486    0.6574    5.8210   H         1 RES1   0.0000
    75 H33      -5.0049   -0.9359    5.1036   H         1 RES1   0.0000
    76 H34      -3.6268    0.1633    5.0783   H         1 RES1   0.0000
    77 H35      -2.4149    3.2112   -1.2919   H         1 RES1   0.0000
    78 H36      -0.7839    3.8926   -1.5452   H         1 RES1   0.0000
    79 H37      -2.3076    2.0014   -3.1810   H         1 RES1   0.0000
    80 H38      -1.2981    0.5262   -3.1312   H         1 RES1   0.0000
    81 H39      -5.4566    1.0292   -3.3859   H         1 RES1   0.0000
    82 H40      -3.8106    0.9486   -4.0197   H         1 RES1   0.0000
    83 H41      -5.3869   -1.5696   -3.4995   H         1 RES1   0.0000
    84 H42      -6.7796   -0.0202   -4.8209   H         1 RES1   0.0000
    85 H43      -5.5799   -0.0321   -6.1001   H         1 RES1   0.0000
    86 H44      -7.0627   -2.4654   -4.9945   H         1 RES1   0.0000
    87 H45      -7.3872   -1.6734   -6.5260   H         1 RES1   0.0000
    88 H46      -5.8676   -2.5358   -6.2852   H         1 RES1   0.0000
    89 H47      -2.8625   -1.4635   -3.9842   H         1 RES1   0.0000
    90 H48      -3.8850   -2.6896   -4.7103   H         1 RES1   0.0000
    91 H49      -2.4858   -2.1549   -6.4070   H         1 RES1   0.0000
    92 H50      -3.9297   -1.2750   -6.8369   H         1 RES1   0.0000
    93 H51      -1.7872    0.2014   -5.3116   H         1 RES1   0.0000
    94 H52      -1.4866   -0.2185   -6.9839   H         1 RES1   0.0000
    95 H53      -3.8777    1.4539   -6.1071   H         1 RES1   0.0000
    96 H54      -2.4036    2.0342   -6.8830   H         1 RES1   0.0000
    97 H55      -3.4765    0.9461   -7.7467   H         1 RES1   0.0000
    98 H56      -5.3661   -1.3842   -1.6450   H         1 RES1   0.0000
    99 H57      -4.3546   -0.7932   -0.3151   H         1 RES1   0.0000
   100 H58      -6.5235   -0.3829    0.2470   H         1 RES1   0.0000
   101 H59      -8.1740    0.9670   -0.9452   H         1 RES1   0.0000
   102 H60      -7.1977    0.9435   -2.3999   H         1 RES1   0.0000
   103 H61      -8.2844   -1.4929   -0.9069   H         1 RES1   0.0000
   104 H62      -8.9103   -0.8504   -2.4197   H         1 RES1   0.0000
   105 H63      -7.3231   -1.5886   -2.3776   H         1 RES1   0.0000
   106 H64      -6.5452    1.8011    0.8822   H         1 RES1   0.0000
   107 H65      -4.8569    1.3706    0.6615   H         1 RES1   0.0000
   108 H66      -4.9065    3.4953   -0.1534   H         1 RES1   0.0000
   109 H67      -5.1332    2.6215   -1.6677   H         1 RES1   0.0000
   110 H68      -7.5149    3.1663   -1.6633   H         1 RES1   0.0000
   111 H69      -7.4431    3.6812    0.0124   H         1 RES1   0.0000
   112 H70      -6.0246    5.0888   -2.2935   H         1 RES1   0.0000
   113 H71      -7.5096    5.6249   -1.5123   H         1 RES1   0.0000
   114 H72      -6.0051    5.5956   -0.6041   H         1 RES1   0.0000
   115 C37      -1.7639    4.6708   -4.6496   C.3       1 RES1   0.0000
   116 C38      -0.7060    5.7677   -4.6997   C.3       1 RES1   0.0000
   117 C39       0.6446    5.2477   -5.1878   C.3       1 RES1   0.0000
   118 C40       1.3497    4.3157   -4.1938   C.3       1 RES1   0.0000
   119 C41       2.5389    3.6166   -4.8540   C.3       1 RES1   0.0000
   120 C42       2.0703    2.7521   -6.0347   C.3       1 RES1   0.0000
   121 C43       0.8331    1.9041   -5.7451   C.3       1 RES1   0.0000
   122 C44       3.4499    2.9076   -3.8142   C.3       1 RES1   0.0000
   123 N3        3.0278    1.5980   -3.3501   N.am      1 RES1   0.0000
   124 C45       3.4715    0.4647   -4.1654   C.3       1 RES1   0.0000
   125 C46       4.9973    0.4387   -4.4491   C.3       1 RES1   0.0000
   126 C47       5.3952    0.9596   -5.8483   C.3       1 RES1   0.0000
   127 C48       5.1189    0.0129   -7.0196   C.3       1 RES1   0.0000
   128 C49       5.5572   -0.9725   -4.2648   C.3       1 RES1   0.0000
   129 C50       7.0800   -1.0121   -4.4023   C.3       1 RES1   0.0000
   130 C51       7.6873   -2.2263   -3.7079   C.3       1 RES1   0.0000
   131 C52       7.1220   -3.5470   -4.2139   C.3       1 RES1   0.0000
   132 C53       2.2840    1.3993   -2.2609   C.2       1 RES1   0.0000
   133 O4        1.6606    0.3474   -2.0100   O.2       1 RES1   0.0000
   134 C54       2.2824    2.4965   -1.1897   C.3       1 RES1   0.0000
   135 O5        1.8323    1.8991    0.0159   O.3       1 RES1   0.0000
   136 C55       2.2216    2.6232    1.1746   C.3       1 RES1   0.0000
   137 C56       2.1850    1.6322    2.3533   C.2       1 RES1   0.0000
   138 O6        1.5663    0.5587    2.1625   O.2       1 RES1   0.0000
   139 N4        2.8650    1.9037    3.4664   N.am      1 RES1   0.0000
   140 C57       3.3809    3.2128    3.8541   C.3       1 RES1   0.0000
   141 C58       2.8328    3.8361    5.1653   C.3       1 RES1   0.0000
   142 C59       3.7913    4.9712    5.5914   C.3       1 RES1   0.0000
   143 C60       4.2189    4.9006    7.0584   C.3       1 RES1   0.0000
   144 C61       1.4123    4.3866    4.9714   C.3       1 RES1   0.0000
   145 C62       0.8917    5.2861    6.1144   C.3       1 RES1   0.0000
   146 C63       0.3278    6.6385    5.6472   C.3       1 RES1   0.0000
   147 C64       1.3672    7.7527    5.5148   C.3       1 RES1   0.0000
   148 C65       3.1013    0.8012    4.4032   C.3       1 RES1   0.0000
   149 C66       4.5359    0.4935    4.8945   C.3       1 RES1   0.0000
   150 C67       4.9974    1.2849    6.1197   C.3       1 RES1   0.0000
   151 C68       4.1883    0.9555    7.3683   C.3       1 RES1   0.0000
   152 C69       5.6107    0.3617    3.8018   C.3       1 RES1   0.0000
   153 C70       6.2110    1.5637    3.0639   C.3       1 RES1   0.0000
   154 C71       7.0338    2.5566    3.8846   C.3       1 RES1   0.0000
   155 C72       7.5487    3.6916    3.0065   C.3       1 RES1   0.0000
   156 H73      -2.6866    5.0512   -4.2197   H         1 RES1   0.0000
   157 H74      -1.9802    4.3123   -5.6525   H         1 RES1   0.0000
   158 H75      -1.4184    3.8281   -4.0518   H         1 RES1   0.0000
   159 H76      -1.0420    6.5498   -5.3804   H         1 RES1   0.0000
   160 H77      -0.5987    6.2252   -3.7153   H         1 RES1   0.0000
   161 H78       0.4787    4.7401   -6.1369   H         1 RES1   0.0000
   162 H79       1.3064    6.0910   -5.3951   H         1 RES1   0.0000
   163 H80       1.7144    4.9091   -3.3548   H         1 RES1   0.0000
   164 H81       0.6631    3.5676   -3.7925   H         1 RES1   0.0000
   165 H82       3.1809    4.4001   -5.2748   H         1 RES1   0.0000
   166 H83       1.8388    3.4103   -6.8732   H         1 RES1   0.0000
   167 H84       2.8897    2.1269   -6.3770   H         1 RES1   0.0000
   168 H85      -0.0481    2.5305   -5.6444   H         1 RES1   0.0000
   169 H86       0.6592    1.2246   -6.5749   H         1 RES1   0.0000
   170 H87       0.9283    1.3183   -4.8322   H         1 RES1   0.0000
   171 H88       4.4311    2.7770   -4.2605   H         1 RES1   0.0000
   172 H89       3.5642    3.5872   -2.9712   H         1 RES1   0.0000
   173 H90       3.1842   -0.4248   -3.6036   H         1 RES1   0.0000
   174 H91       2.9369    0.4664   -5.1107   H         1 RES1   0.0000
   175 H92       5.4899    1.0714   -3.7020   H         1 RES1   0.0000
   176 H93       4.9093    1.9133   -6.0542   H         1 RES1   0.0000
   177 H94       6.4696    1.1553   -5.8274   H         1 RES1   0.0000
   178 H95       4.1834   -0.5257   -6.9097   H         1 RES1   0.0000
   179 H96       5.0755    0.5765   -7.9475   H         1 RES1   0.0000
   180 H97       5.9080   -0.7268   -7.1218   H         1 RES1   0.0000
   181 H98       5.2860   -1.3149   -3.2668   H         1 RES1   0.0000
   182 H99       5.1049   -1.6454   -4.9921   H         1 RES1   0.0000
   183 H100      7.3591   -1.0291   -5.4542   H         1 RES1   0.0000
   184 H101      7.5070   -0.1080   -3.9611   H         1 RES1   0.0000
   185 H102      8.7647   -2.2103   -3.8672   H         1 RES1   0.0000
   186 H103      7.5221   -2.1486   -2.6306   H         1 RES1   0.0000
   187 H104      7.2313   -3.6407   -5.2914   H         1 RES1   0.0000
   188 H105      7.6506   -4.3738   -3.7518   H         1 RES1   0.0000
   189 H106      6.0663   -3.6487   -3.9694   H         1 RES1   0.0000
   190 H107      3.3109    2.8541   -1.0539   H         1 RES1   0.0000
   191 H108      1.6421    3.3419   -1.4707   H         1 RES1   0.0000
   192 H109      3.2390    3.0116    1.0468   H         1 RES1   0.0000
   193 H110      1.5350    3.4651    1.3339   H         1 RES1   0.0000
   194 H111      4.4526    3.0947    3.9880   H         1 RES1   0.0000
   195 H112      3.2015    3.9244    3.0518   H         1 RES1   0.0000
   196 H113      2.8142    3.0831    5.9531   H         1 RES1   0.0000
   197 H114      4.6909    4.9754    4.9736   H         1 RES1   0.0000
   198 H115      3.2967    5.9235    5.4160   H         1 RES1   0.0000
   199 H116      4.9399    4.1030    7.2148   H         1 RES1   0.0000
   200 H117      4.6872    5.8374    7.3519   H         1 RES1   0.0000
   201 H118      3.3746    4.7213    7.7201   H         1 RES1   0.0000
   202 H119      1.4186    4.9631    4.0485   H         1 RES1   0.0000
   203 H120      0.7256    3.5467    4.8232   H         1 RES1   0.0000
   204 H121      0.1134    4.7559    6.6612   H         1 RES1   0.0000
   205 H122      1.6841    5.4935    6.8250   H         1 RES1   0.0000
   206 H123     -0.1996    6.5103    4.6990   H         1 RES1   0.0000
   207 H124     -0.4103    6.9710    6.3780   H         1 RES1   0.0000
   208 H125      2.1852    7.4936    4.8435   H         1 RES1   0.0000
   209 H126      0.8992    8.6570    5.1315   H         1 RES1   0.0000
   210 H127      1.7863    7.9849    6.4912   H         1 RES1   0.0000
   211 H128      2.4695    0.9546    5.2791   H         1 RES1   0.0000
   212 H129      2.7534   -0.0920    3.8814   H         1 RES1   0.0000
   213 H130      4.4277   -0.5360    5.2681   H         1 RES1   0.0000
   214 H131      6.0352    1.0045    6.3061   H         1 RES1   0.0000
   215 H132      4.9685    2.3559    5.9515   H         1 RES1   0.0000
   216 H133      4.1765   -0.1163    7.5465   H         1 RES1   0.0000
   217 H134      4.6388    1.4334    8.2314   H         1 RES1   0.0000
   218 H135      3.1592    1.3022    7.3006   H         1 RES1   0.0000
   219 H136      6.4433   -0.1777    4.2545   H         1 RES1   0.0000
   220 H137      5.1905   -0.2944    3.0385   H         1 RES1   0.0000
   221 H138      6.8904    1.1345    2.3230   H         1 RES1   0.0000
   222 H139      5.4402    2.0954    2.5035   H         1 RES1   0.0000
   223 H140      6.4559    2.9918    4.6980   H         1 RES1   0.0000
   224 H141      7.8764    2.0318    4.3336   H         1 RES1   0.0000
   225 H142      6.7210    4.2468    2.5673   H         1 RES1   0.0000
   226 H143      8.1445    4.3832    3.5926   H         1 RES1   0.0000
   227 H144      8.1683    3.3136    2.1980   H         1 RES1   0.0000
   228 C73       6.0508    1.0870   -0.6172   C.3       1 RES1   0.0000
   229 C74       4.9379    0.2047   -0.0566   C.3       1 RES1   0.0000
   230 C75       5.4555   -1.1595    0.4299   C.3       1 RES1   0.0000
   231 C76       5.0744   -2.3431   -0.4618   C.3       1 RES1   0.0000
   232 C77       3.5550   -2.5937   -0.5287   C.3       1 RES1   0.0000
   233 C78       3.0407   -3.4568    0.6429   C.3       1 RES1   0.0000
   234 C79       2.6847   -2.6803    1.9060   C.3       1 RES1   0.0000
   235 C80       3.2126   -3.2873   -1.8561   C.3       1 RES1   0.0000
   236 N5        1.8247   -3.2341   -2.3557   N.am      1 RES1   0.0000
   237 C81       1.6480   -4.0306   -3.5730   C.3       1 RES1   0.0000
   238 C82       1.9958   -3.3710   -4.9270   C.3       1 RES1   0.0000
   239 C83       1.1000   -2.1704   -5.2376   C.3       1 RES1   0.0000
   240 C84       1.4648   -1.4890   -6.5564   C.3       1 RES1   0.0000
   241 C85       1.9326   -4.4742   -6.0118   C.3       1 RES1   0.0000
   242 C86       0.5474   -4.8793   -6.5478   C.3       1 RES1   0.0000
   243 C87       0.0941   -4.1403   -7.8109   C.3       1 RES1   0.0000
   244 C88      -0.9775   -4.9355   -8.5464   C.3       1 RES1   0.0000
   245 C89       0.8526   -2.5576   -1.7661   C.2       1 RES1   0.0000
   246 O7        0.9530   -1.9580   -0.6741   O.2       1 RES1   0.0000
   247 C90      -0.5520   -2.4783   -2.3909   C.3       1 RES1   0.0000
   248 O8       -1.4504   -2.0929   -1.3658   O.3       1 RES1   0.0000
   249 C91      -1.8881   -3.1969   -0.5751   C.3       1 RES1   0.0000
   250 C92      -2.0675   -2.7767    0.8945   C.2       1 RES1   0.0000
   251 O9       -1.5122   -1.7300    1.2903   O.2       1 RES1   0.0000
   252 N6       -2.7410   -3.6046    1.6887   N.am      1 RES1   0.0000
   253 C93      -3.3189   -4.8818    1.2738   C.3       1 RES1   0.0000
   254 C94      -4.8171   -4.9652    0.8745   C.3       1 RES1   0.0000
   255 C95      -5.0776   -4.4841   -0.5622   C.3       1 RES1   0.0000
   256 C96      -6.5236   -4.6575   -1.0227   C.3       1 RES1   0.0000
   257 C97      -5.8224   -4.4109    1.9017   C.3       1 RES1   0.0000
   258 C98      -5.9992   -2.8895    1.9533   C.3       1 RES1   0.0000
   259 C99      -7.4196   -2.4917    2.3624   C.3       1 RES1   0.0000
   260 C100     -7.7665   -2.8915    3.7896   C.3       1 RES1   0.0000
   261 C101     -2.8572   -3.3624    3.1327   C.3       1 RES1   0.0000
   262 C102     -1.6828   -3.8038    4.0372   C.3       1 RES1   0.0000
   263 C103     -1.1795   -5.2364    3.7962   C.3       1 RES1   0.0000
   264 C104     -0.2929   -5.7552    4.9296   C.3       1 RES1   0.0000
   265 C105     -0.5477   -2.7789    4.0341   C.3       1 RES1   0.0000
   266 C106     -0.9902   -1.4432    4.6367   C.3       1 RES1   0.0000
   267 C107      0.1828   -0.6472    5.1981   C.3       1 RES1   0.0000
   268 C108      0.8440   -1.2986    6.4084   C.3       1 RES1   0.0000
   269 H145      5.6535    1.9833   -1.0960   H         1 RES1   0.0000
   270 H146      6.6412    0.5423   -1.3498   H         1 RES1   0.0000
   271 H147      6.7145    1.4057    0.1813   H         1 RES1   0.0000
   272 H148      4.1734    0.0693   -0.8227   H         1 RES1   0.0000
   273 H149      4.4538    0.7197    0.7789   H         1 RES1   0.0000
   274 H150      5.0937   -1.3619    1.4346   H         1 RES1   0.0000
   275 H151      6.5444   -1.1149    0.4889   H         1 RES1   0.0000
   276 H152      5.5750   -3.2353   -0.0843   H         1 RES1   0.0000
   277 H153      5.4782   -2.1633   -1.4609   H         1 RES1   0.0000
   278 H154      3.0641   -1.6166   -0.4960   H         1 RES1   0.0000
   279 H155      2.1414   -3.9826    0.3120   H         1 RES1   0.0000
   280 H156      3.7869   -4.2147    0.8965   H         1 RES1   0.0000
   281 H157      3.5686   -2.2610    2.3771   H         1 RES1   0.0000
   282 H158      2.2345   -3.3573    2.6280   H         1 RES1   0.0000
   283 H159      1.9722   -1.8656    1.6912   H         1 RES1   0.0000
   284 H160      3.4738   -4.3455   -1.7525   H         1 RES1   0.0000
   285 H161      3.8287   -2.8680   -2.6542   H         1 RES1   0.0000
   286 H162      0.6249   -4.4000   -3.6356   H         1 RES1   0.0000
   287 H163      2.3045   -4.8972   -3.4629   H         1 RES1   0.0000
   288 H164      3.0320   -3.0203   -4.8856   H         1 RES1   0.0000
   289 H165      1.1889   -1.4434   -4.4228   H         1 RES1   0.0000
   290 H166      0.0599   -2.4969   -5.2755   H         1 RES1   0.0000
   291 H167      2.2771   -0.7874   -6.4203   H         1 RES1   0.0000
   292 H168      0.6154   -0.9440   -6.9563   H         1 RES1   0.0000
   293 H169      1.7755   -2.2110   -7.3022   H         1 RES1   0.0000
   294 H170      2.4112   -5.3632   -5.5950   H         1 RES1   0.0000
   295 H171      2.5444   -4.1840   -6.8671   H         1 RES1   0.0000
   296 H172     -0.2184   -4.7896   -5.7771   H         1 RES1   0.0000
   297 H173      0.6053   -5.9349   -6.8144   H         1 RES1   0.0000
   298 H174      0.9508   -4.0119   -8.4777   H         1 RES1   0.0000
   299 H175     -0.2987   -3.1536   -7.5687   H         1 RES1   0.0000
   300 H176     -0.6175   -5.9387   -8.7522   H         1 RES1   0.0000
   301 H177     -1.2199   -4.4653   -9.4952   H         1 RES1   0.0000
   302 H178     -1.8840   -5.0109   -7.9464   H         1 RES1   0.0000
   303 H179     -0.8809   -3.4060   -2.8666   H         1 RES1   0.0000
   304 H180     -0.5682   -1.6668   -3.1250   H         1 RES1   0.0000
   305 H181     -1.1238   -3.9826   -0.5727   H         1 RES1   0.0000
   306 H182     -2.8103   -3.5874   -1.0148   H         1 RES1   0.0000
   307 H183     -3.1969   -5.5392    2.1331   H         1 RES1   0.0000
   308 H184     -2.7275   -5.3027    0.4605   H         1 RES1   0.0000
   309 H185     -4.9946   -6.0479    0.8578   H         1 RES1   0.0000
   310 H186     -4.4450   -5.0792   -1.2291   H         1 RES1   0.0000
   311 H187     -4.8064   -3.4321   -0.6720   H         1 RES1   0.0000
   312 H188     -6.8262   -5.6986   -0.9589   H         1 RES1   0.0000
   313 H189     -6.6189   -4.3438   -2.0604   H         1 RES1   0.0000
   314 H190     -7.2036   -4.0560   -0.4277   H         1 RES1   0.0000
   315 H191     -5.5602   -4.7939    2.8875   H         1 RES1   0.0000
   316 H192     -6.7901   -4.8544    1.6616   H         1 RES1   0.0000
   317 H193     -5.7929   -2.4649    0.9708   H         1 RES1   0.0000
   318 H194     -5.2977   -2.4367    2.6533   H         1 RES1   0.0000
   319 H195     -8.1349   -2.9539    1.6791   H         1 RES1   0.0000
   320 H196     -7.5224   -1.4082    2.2639   H         1 RES1   0.0000
   321 H197     -7.7254   -3.9690    3.9184   H         1 RES1   0.0000
   322 H198     -8.7720   -2.5643    4.0341   H         1 RES1   0.0000
   323 H199     -7.0841   -2.4319    4.5002   H         1 RES1   0.0000
   324 H200     -3.7423   -3.9027    3.4630   H         1 RES1   0.0000
   325 H201     -3.0138   -2.2971    3.2893   H         1 RES1   0.0000
   326 H202     -2.1064   -3.7974    5.0491   H         1 RES1   0.0000
   327 H203     -0.6352   -5.2915    2.8495   H         1 RES1   0.0000
   328 H204     -2.0390   -5.9083    3.7467   H         1 RES1   0.0000
   329 H205      0.6636   -5.2407    4.9669   H         1 RES1   0.0000
   330 H206     -0.0981   -6.8160    4.7931   H         1 RES1   0.0000
   331 H207     -0.7954   -5.6295    5.8853   H         1 RES1   0.0000
   332 H208     -0.1700   -2.6218    3.0198   H         1 RES1   0.0000
   333 H209      0.2644   -3.1787    4.6374   H         1 RES1   0.0000
   334 H210     -1.7114   -1.6246    5.4366   H         1 RES1   0.0000
   335 H211     -1.4729   -0.8375    3.8624   H         1 RES1   0.0000
   336 H212      0.8950   -0.5192    4.3856   H         1 RES1   0.0000
   337 H213     -0.1763    0.3410    5.4923   H         1 RES1   0.0000
   338 H214      0.1064   -1.4931    7.1825   H         1 RES1   0.0000
   339 H215      1.6012   -0.6461    6.8332   H         1 RES1   0.0000
   340 H216      1.3274   -2.2375    6.1524   H         1 RES1   0.0000
@<TRIPOS>BOND
     1     1    20    1
     2     1    22    1
     3     1    25    1
     4     1   133    1
     5     1   135    1
     6     1   138    1
     7     1   246    1
     8     1   248    1
     9     1   251    1
    10     2     3    1
    11     2    43    1
    12     2    44    1
    13     2    45    1
    14     3     4    1
    15     3    46    1
    16     3    47    1
    17     4     5    1
    18     4    48    1
    19     4    49    1
    20     5     6    1
    21     5    50    1
    22     5    51    1
    23     6     7    1
    24     6     9    1
    25     6    52    1
    26     7     8    1
    27     7    53    1
    28     7    54    1
    29     8    55    1
    30     8    56    1
    31     8    57    1
    32     9    10    1
    33     9    58    1
    34     9    59    1
    35    10    11    1
    36    10    19    1
    37    11    12    1
    38    11    60    1
    39    11    61    1
    40    12    13    1
    41    12    15    1
    42    12    62    1
    43    13    14    1
    44    13    63    1
    45    13    64    1
    46    14    65    1
    47    14    66    1
    48    14    67    1
    49    15    16    1
    50    15    68    1
    51    15    69    1
    52    16    17    1
    53    16    70    1
    54    16    71    1
    55    17    18    1
    56    17    72    1
    57    17    73    1
    58    18    74    1
    59    18    75    1
    60    18    76    1
    61    19    20    2
    62    19    21    1
    63    21    22    1
    64    21    77    1
    65    21    78    1
    66    22    23    1
    67    23    24    1
    68    23    79    1
    69    23    80    1
    70    24    25    2
    71    24    26    1
    72    26    27    1
    73    26    35    1
    74    27    28    1
    75    27    81    1
    76    27    82    1
    77    28    29    1
    78    28    31    1
    79    28    83    1
    80    29    30    1
    81    29    84    1
    82    29    85    1
    83    30    86    1
    84    30    87    1
    85    30    88    1
    86    31    32    1
    87    31    89    1
    88    31    90    1
    89    32    33    1
    90    32    91    1
    91    32    92    1
    92    33    34    1
    93    33    93    1
    94    33    94    1
    95    34    95    1
    96    34    96    1
    97    34    97    1
    98    35    36    1
    99    35    98    1
   100    35    99    1
   101    36    37    1
   102    36    39    1
   103    36   100    1
   104    37    38    1
   105    37   101    1
   106    37   102    1
   107    38   103    1
   108    38   104    1
   109    38   105    1
   110    39    40    1
   111    39   106    1
   112    39   107    1
   113    40    41    1
   114    40   108    1
   115    40   109    1
   116    41    42    1
   117    41   110    1
   118    41   111    1
   119    42   112    1
   120    42   113    1
   121    42   114    1
   122   115   116    1
   123   115   156    1
   124   115   157    1
   125   115   158    1
   126   116   117    1
   127   116   159    1
   128   116   160    1
   129   117   118    1
   130   117   161    1
   131   117   162    1
   132   118   119    1
   133   118   163    1
   134   118   164    1
   135   119   120    1
   136   119   122    1
   137   119   165    1
   138   120   121    1
   139   120   166    1
   140   120   167    1
   141   121   168    1
   142   121   169    1
   143   121   170    1
   144   122   123    1
   145   122   171    1
   146   122   172    1
   147   123   124    1
   148   123   132    1
   149   124   125    1
   150   124   173    1
   151   124   174    1
   152   125   126    1
   153   125   128    1
   154   125   175    1
   155   126   127    1
   156   126   176    1
   157   126   177    1
   158   127   178    1
   159   127   179    1
   160   127   180    1
   161   128   129    1
   162   128   181    1
   163   128   182    1
   164   129   130    1
   165   129   183    1
   166   129   184    1
   167   130   131    1
   168   130   185    1
   169   130   186    1
   170   131   187    1
   171   131   188    1
   172   131   189    1
   173   132   133    2
   174   132   134    1
   175   134   135    1
   176   134   190    1
   177   134   191    1
   178   135   136    1
   179   136   137    1
   180   136   192    1
   181   136   193    1
   182   137   138    2
   183   137   139    1
   184   139   140    1
   185   139   148    1
   186   140   141    1
   187   140   194    1
   188   140   195    1
   189   141   142    1
   190   141   144    1
   191   141   196    1
   192   142   143    1
   193   142   197    1
   194   142   198    1
   195   143   199    1
   196   143   200    1
   197   143   201    1
   198   144   145    1
   199   144   202    1
   200   144   203    1
   201   145   146    1
   202   145   204    1
   203   145   205    1
   204   146   147    1
   205   146   206    1
   206   146   207    1
   207   147   208    1
   208   147   209    1
   209   147   210    1
   210   148   149    1
   211   148   211    1
   212   148   212    1
   213   149   150    1
   214   149   152    1
   215   149   213    1
   216   150   151    1
   217   150   214    1
   218   150   215    1
   219   151   216    1
   220   151   217    1
   221   151   218    1
   222   152   153    1
   223   152   219    1
   224   152   220    1
   225   153   154    1
   226   153   221    1
   227   153   222    1
   228   154   155    1
   229   154   223    1
   230   154   224    1
   231   155   225    1
   232   155   226    1
   233   155   227    1
   234   228   229    1
   235   228   269    1
   236   228   270    1
   237   228   271    1
   238   229   230    1
   239   229   272    1
   240   229   273    1
   241   230   231    1
   242   230   274    1
   243   230   275    1
   244   231   232    1
   245   231   276    1
   246   231   277    1
   247   232   233    1
   248   232   235    1
   249   232   278    1
   250   233   234    1
   251   233   279    1
   252   233   280    1
   253   234   281    1
   254   234   282    1
   255   234   283    1
   256   235   236    1
   257   235   284    1
   258   235   285    1
   259   236   237    1
   260   236   245    1
   261   237   238    1
   262   237   286    1
   263   237   287    1
   264   238   239    1
   265   238   241    1
   266   238   288    1
   267   239   240    1
   268   239   289    1
   269   239   290    1
   270   240   291    1
   271   240   292    1
   272   240   293    1
   273   241   242    1
   274   241   294    1
   275   241   295    1
   276   242   243    1
   277   242   296    1
   278   242   297    1
   279   243   244    1
   280   243   298    1
   281   243   299    1
   282   244   300    1
   283   244   301    1
   284   244   302    1
   285   245   246    2
   286   245   247    1
   287   247   248    1
   288   247   303    1
   289   247   304    1
   290   248   249    1
   291   249   250    1
   292   249   305    1
   293   249   306    1
   294   250   251    2
   295   250   252    1
   296   252   253    1
   297   252   261    1
   298   253   254    1
   299   253   307    1
   300   253   308    1
   301   254   255    1
   302   254   257    1
   303   254   309    1
   304   255   256    1
   305   255   310    1
   306   255   311    1
   307   256   312    1
   308   256   313    1
   309   256   314    1
   310   257   258    1
   311   257   315    1
   312   257   316    1
   313   258   259    1
   314   258   317    1
   315   258   318    1
   316   259   260    1
   317   259   319    1
   318   259   320    1
   319   260   321    1
   320   260   322    1
   321   260   323    1
   322   261   262    1
   323   261   324    1
   324   261   325    1
   325   262   263    1
   326   262   265    1
   327   262   326    1
   328   263   264    1
   329   263   327    1
   330   263   328    1
   331   264   329    1
   332   264   330    1
   333   264   331    1
   334   265   266    1
   335   265   332    1
   336   265   333    1
   337   266   267    1
   338   266   334    1
   339   266   335    1
   340   267   268    1
   341   267   336    1
   342   267   337    1
   343   268   338    1
   344   268   339    1
   345   268   340    1
@<TRIPOS>SUBSTRUCTURE
     1 RES1      340 GROUP             0 ****  ****    0  
