@<TRIPOS>MOLECULE
am_c3_9H2O_c0_0_nunpairedes_0_charge_3 Charge: 3 Unpaired_Electrons: 1 XTB_Unpaired_Electrons: 0 XTB_Charge: 3
   148   161     1     0     0
SMALL
NoCharges
****
Generated from Architector

@<TRIPOS>ATOM
     1 Ce1      -0.0118    0.0345    0.0126   Ce        1 RES1   0.0000
     2 C1        3.3693   -3.9713   -1.2988   C.3       1 RES1   0.0000
     3 C2        4.0069   -2.5918   -1.2333   C.3       1 RES1   0.0000
     4 N1        3.9705   -2.0419    0.1222   N.am      1 RES1   0.0000
     5 C3        2.8684   -1.3604    0.4540   C.2       1 RES1   0.0000
     6 O1        1.8881   -1.3273   -0.3232   O.2       1 RES1   0.0000
     7 C4        2.7659   -0.4736    1.6709   C.ar      1 RES1   0.0000
     8 C5        3.8274    0.0088    2.4326   C.ar      1 RES1   0.0000
     9 C6        3.5432    0.8908    3.4616   C.ar      1 RES1   0.0000
    10 C7        2.2477    1.3440    3.6407   C.ar      1 RES1   0.0000
    11 C8        1.2479    0.9060    2.7762   C.ar      1 RES1   0.0000
    12 C9       -0.1306    1.4675    2.8261   C.ar      1 RES1   0.0000
    13 C10      -0.5656    2.1676    3.9499   C.ar      1 RES1   0.0000
    14 C11      -1.8662    2.6261    3.9679   C.ar      1 RES1   0.0000
    15 C12      -2.7214    2.3611    2.9062   C.ar      1 RES1   0.0000
    16 C13      -2.2260    1.7010    1.7881   C.ar      1 RES1   0.0000
    17 C14      -2.9636    1.2327    0.5261   C.2       1 RES1   0.0000
    18 O2       -2.3329    0.3619   -0.1113   O.2       1 RES1   0.0000
    19 N2       -4.1580    1.6875    0.1021   N.am      1 RES1   0.0000
    20 C15      -4.8863    2.7466    0.8039   C.3       1 RES1   0.0000
    21 C16      -5.9203    2.1915    1.7875   C.3       1 RES1   0.0000
    22 C17      -4.8179    1.1835   -1.0842   C.ar      1 RES1   0.0000
    23 C18      -6.1393    1.5754   -1.3543   C.ar      1 RES1   0.0000
    24 C19      -6.7932    1.2021   -2.5205   C.ar      1 RES1   0.0000
    25 C20      -8.1812    1.6563   -2.8267   C.3       1 RES1   0.0000
    26 C21      -6.1371    0.3928   -3.4399   C.ar      1 RES1   0.0000
    27 C22      -4.8495   -0.0425   -3.1896   C.ar      1 RES1   0.0000
    28 C23      -4.1608   -0.9313   -4.1829   C.3       1 RES1   0.0000
    29 C24      -4.1982    0.3508   -2.0211   C.ar      1 RES1   0.0000
    30 N3       -0.9388    1.2950    1.7766   N.ar      1 RES1   0.0000
    31 N4        1.5160   -0.0288    1.8601   N.ar      1 RES1   0.0000
    32 C25       4.8936   -2.5642    1.0719   C.ar      1 RES1   0.0000
    33 C26       6.2275   -2.8096    0.7480   C.ar      1 RES1   0.0000
    34 C27       7.0775   -3.3742    1.6929   C.ar      1 RES1   0.0000
    35 C28       8.4959   -3.7140    1.3701   C.3       1 RES1   0.0000
    36 C29       6.5901   -3.6254    2.9758   C.ar      1 RES1   0.0000
    37 C30       5.2669   -3.3817    3.3127   C.ar      1 RES1   0.0000
    38 C31       4.7200   -3.6245    4.6834   C.3       1 RES1   0.0000
    39 C32       4.4086   -2.8942    2.3340   C.ar      1 RES1   0.0000
    40 H1        3.4315   -4.3460   -2.3153   H         1 RES1   0.0000
    41 H2        2.3250   -3.9201   -0.9979   H         1 RES1   0.0000
    42 H3        3.8963   -4.6597   -0.6439   H         1 RES1   0.0000
    43 H4        3.4781   -1.9005   -1.8961   H         1 RES1   0.0000
    44 H5        5.0523   -2.6465   -1.5250   H         1 RES1   0.0000
    45 H6        4.8446   -0.2753    2.2277   H         1 RES1   0.0000
    46 H7        4.3420    1.2372    4.0985   H         1 RES1   0.0000
    47 H8        2.0509    2.0638    4.4099   H         1 RES1   0.0000
    48 H9        0.0718    2.3048    4.8007   H         1 RES1   0.0000
    49 H10      -2.2264    3.1670    4.8246   H         1 RES1   0.0000
    50 H11      -3.7514    2.6435    2.9993   H         1 RES1   0.0000
    51 H12      -5.3776    3.3480    0.0365   H         1 RES1   0.0000
    52 H13      -4.1631    3.3921    1.3008   H         1 RES1   0.0000
    53 H14      -6.6716    1.5983    1.2744   H         1 RES1   0.0000
    54 H15      -6.4273    3.0108    2.2908   H         1 RES1   0.0000
    55 H16      -5.4653    1.5422    2.5323   H         1 RES1   0.0000
    56 H17      -6.7147    2.1926   -0.6861   H         1 RES1   0.0000
    57 H18      -8.6067    2.2895   -2.0535   H         1 RES1   0.0000
    58 H19      -8.8189    0.7854   -2.9596   H         1 RES1   0.0000
    59 H20      -8.1859    2.2012   -3.7694   H         1 RES1   0.0000
    60 H21      -6.6368    0.0946   -4.3490   H         1 RES1   0.0000
    61 H22      -4.8046   -1.1013   -5.0417   H         1 RES1   0.0000
    62 H23      -3.9341   -1.8960   -3.7313   H         1 RES1   0.0000
    63 H24      -3.2312   -0.4857   -4.5375   H         1 RES1   0.0000
    64 H25      -3.1963   -0.0240   -1.8787   H         1 RES1   0.0000
    65 H26       6.6230   -2.5672   -0.2297   H         1 RES1   0.0000
    66 H27       8.7570   -3.5062    0.3356   H         1 RES1   0.0000
    67 H28       8.6648   -4.7713    1.5650   H         1 RES1   0.0000
    68 H29       9.1648   -3.1549    2.0210   H         1 RES1   0.0000
    69 H30       7.2557   -4.0399    3.7175   H         1 RES1   0.0000
    70 H31       5.4732   -4.0156    5.3590   H         1 RES1   0.0000
    71 H32       3.8946   -4.3330    4.6337   H         1 RES1   0.0000
    72 H33       4.3400   -2.6865    5.0896   H         1 RES1   0.0000
    73 H34       3.3524   -2.7817    2.5506   H         1 RES1   0.0000
    74 C33       4.8230    3.6362   -2.3491   C.3       1 RES1   0.0000
    75 C34       3.3325    3.9868   -2.3808   C.3       1 RES1   0.0000
    76 N5        2.6447    3.4943   -1.1879   N.am      1 RES1   0.0000
    77 C35       2.0651    2.2845   -1.1500   C.2       1 RES1   0.0000
    78 O3        1.5185    1.8433   -0.1137   O.2       1 RES1   0.0000
    79 C36       1.9833    1.3126   -2.3330   C.ar      1 RES1   0.0000
    80 C37       2.7901    1.2248   -3.4653   C.ar      1 RES1   0.0000
    81 C38       2.5253    0.2342   -4.4013   C.ar      1 RES1   0.0000
    82 C39       1.5305   -0.6929   -4.1750   C.ar      1 RES1   0.0000
    83 C40       0.8014   -0.6052   -2.9914   C.ar      1 RES1   0.0000
    84 C41      -0.2131   -1.6436   -2.6483   C.ar      1 RES1   0.0000
    85 C42      -0.7057   -2.5266   -3.6070   C.ar      1 RES1   0.0000
    86 C43      -1.7234   -3.3882   -3.2399   C.ar      1 RES1   0.0000
    87 C44      -2.1846   -3.4201   -1.9317   C.ar      1 RES1   0.0000
    88 C45      -1.5333   -2.6368   -0.9786   C.ar      1 RES1   0.0000
    89 C46      -1.7229   -2.6042    0.5387   C.2       1 RES1   0.0000
    90 O4       -1.0663   -1.7304    1.1416   O.2       1 RES1   0.0000
    91 N6       -2.5476   -3.4496    1.1884   N.am      1 RES1   0.0000
    92 C47      -2.8575   -4.7925    0.6928   C.3       1 RES1   0.0000
    93 C48      -4.3449   -5.0350    0.4529   C.3       1 RES1   0.0000
    94 C49      -2.9852   -3.1748    2.5330   C.ar      1 RES1   0.0000
    95 C50      -3.3318   -4.2206    3.3946   C.ar      1 RES1   0.0000
    96 C51      -3.7990   -3.9785    4.6790   C.ar      1 RES1   0.0000
    97 C52      -4.1827   -5.0880    5.6006   C.3       1 RES1   0.0000
    98 C53      -3.9049   -2.6663    5.1209   C.ar      1 RES1   0.0000
    99 C54      -3.5831   -1.6087    4.2865   C.ar      1 RES1   0.0000
   100 C55      -3.7042   -0.2109    4.8217   C.3       1 RES1   0.0000
   101 C56      -3.1447   -1.8635    2.9873   C.ar      1 RES1   0.0000
   102 N7       -0.6155   -1.7431   -1.3809   N.ar      1 RES1   0.0000
   103 N8        1.0180    0.3968   -2.1358   N.ar      1 RES1   0.0000
   104 C57       2.6712    4.3987   -0.0617   C.ar      1 RES1   0.0000
   105 C58       3.5172    5.5175   -0.1082   C.ar      1 RES1   0.0000
   106 C59       3.5127    6.4806    0.8894   C.ar      1 RES1   0.0000
   107 C60       4.3570    7.7080    0.8134   C.3       1 RES1   0.0000
   108 C61       2.6840    6.3086    1.9894   C.ar      1 RES1   0.0000
   109 C62       1.8680    5.1977    2.0877   C.ar      1 RES1   0.0000
   110 C63       1.0087    5.0506    3.3087   C.3       1 RES1   0.0000
   111 C64       1.8546    4.2521    1.0627   C.ar      1 RES1   0.0000
   112 H35       5.3110    3.9951   -3.2515   H         1 RES1   0.0000
   113 H36       4.9872    2.5643   -2.2553   H         1 RES1   0.0000
   114 H37       5.3081    4.1010   -1.4956   H         1 RES1   0.0000
   115 H38       2.8399    3.5875   -3.2656   H         1 RES1   0.0000
   116 H39       3.1922    5.0682   -2.3983   H         1 RES1   0.0000
   117 H40       3.6311    1.8661   -3.6393   H         1 RES1   0.0000
   118 H41       3.1190    0.1942   -5.2984   H         1 RES1   0.0000
   119 H42       1.3567   -1.4837   -4.8778   H         1 RES1   0.0000
   120 H43      -0.3568   -2.5185   -4.6198   H         1 RES1   0.0000
   121 H44      -2.1590   -4.0374   -3.9808   H         1 RES1   0.0000
   122 H45      -3.0422   -4.0237   -1.6939   H         1 RES1   0.0000
   123 H46      -2.4964   -5.4902    1.4522   H         1 RES1   0.0000
   124 H47      -2.2696   -4.9849   -0.2016   H         1 RES1   0.0000
   125 H48      -4.9132   -4.9099    1.3708   H         1 RES1   0.0000
   126 H49      -4.4792   -6.0569    0.1073   H         1 RES1   0.0000
   127 H50      -4.7616   -4.3556   -0.2877   H         1 RES1   0.0000
   128 H51      -3.2478   -5.2558    3.1072   H         1 RES1   0.0000
   129 H52      -4.0803   -6.0699    5.1475   H         1 RES1   0.0000
   130 H53      -5.2153   -4.9534    5.9162   H         1 RES1   0.0000
   131 H54      -3.5640   -5.0477    6.4951   H         1 RES1   0.0000
   132 H55      -4.2460   -2.4670    6.1265   H         1 RES1   0.0000
   133 H56      -4.0695   -0.2277    5.8458   H         1 RES1   0.0000
   134 H57      -4.4052    0.3732    4.2282   H         1 RES1   0.0000
   135 H58      -2.7338    0.2845    4.8187   H         1 RES1   0.0000
   136 H59      -2.9164   -1.0287    2.3359   H         1 RES1   0.0000
   137 H60       4.1999    5.7008   -0.9200   H         1 RES1   0.0000
   138 H61       4.9587    7.7597   -0.0893   H         1 RES1   0.0000
   139 H62       5.0136    7.7447    1.6798   H         1 RES1   0.0000
   140 H63       3.7160    8.5870    0.8596   H         1 RES1   0.0000
   141 H64       2.6747    7.0476    2.7759   H         1 RES1   0.0000
   142 H65       1.1078    5.9318    3.9378   H         1 RES1   0.0000
   143 H66       1.3293    4.1887    3.8895   H         1 RES1   0.0000
   144 H67      -0.0423    4.9322    3.0498   H         1 RES1   0.0000
   145 H68       1.1786    3.4160    1.1580   H         1 RES1   0.0000
   146 O5       -1.0592    2.0725   -1.6629   O.3       1 RES1   0.0000
   147 H69      -1.7089    1.7976   -2.3251   H         1 RES1   0.0000
   148 H70      -1.3690    2.9279   -1.3411   H         1 RES1   0.0000
@<TRIPOS>BOND
     1     1     6    1
     2     1    18    1
     3     1    30    1
     4     1    31    1
     5     1    78    1
     6     1    90    1
     7     1   102    1
     8     1   103    1
     9     1   146    1
    10     2     3    1
    11     2    40    1
    12     2    41    1
    13     2    42    1
    14     3     4    1
    15     3    43    1
    16     3    44    1
    17     4     5    1
    18     4    32    1
    19     5     6    2
    20     5     7    1
    21     7     8    1
    22     7    31    2
    23     8     9    2
    24     8    45    1
    25     9    10    1
    26     9    46    1
    27    10    11    2
    28    10    47    1
    29    11    12    1
    30    11    31    1
    31    12    13    1
    32    12    30    2
    33    13    14    2
    34    13    48    1
    35    14    15    1
    36    14    49    1
    37    15    16    2
    38    15    50    1
    39    16    17    1
    40    16    30    1
    41    17    18    2
    42    17    19    1
    43    19    20    1
    44    19    22    1
    45    20    21    1
    46    20    51    1
    47    20    52    1
    48    21    53    1
    49    21    54    1
    50    21    55    1
    51    22    23    1
    52    22    29    2
    53    23    24    2
    54    23    56    1
    55    24    25    1
    56    24    26    1
    57    25    57    1
    58    25    58    1
    59    25    59    1
    60    26    27    2
    61    26    60    1
    62    27    28    1
    63    27    29    1
    64    28    61    1
    65    28    62    1
    66    28    63    1
    67    29    64    1
    68    32    33    1
    69    32    39    2
    70    33    34    2
    71    33    65    1
    72    34    35    1
    73    34    36    1
    74    35    66    1
    75    35    67    1
    76    35    68    1
    77    36    37    2
    78    36    69    1
    79    37    38    1
    80    37    39    1
    81    38    70    1
    82    38    71    1
    83    38    72    1
    84    39    73    1
    85    74    75    1
    86    74   112    1
    87    74   113    1
    88    74   114    1
    89    75    76    1
    90    75   115    1
    91    75   116    1
    92    76    77    1
    93    76   104    1
    94    77    78    2
    95    77    79    1
    96    79    80    1
    97    79   103    2
    98    80    81    2
    99    80   117    1
   100    81    82    1
   101    81   118    1
   102    82    83    2
   103    82   119    1
   104    83    84    1
   105    83   103    1
   106    84    85    1
   107    84   102    2
   108    85    86    2
   109    85   120    1
   110    86    87    1
   111    86   121    1
   112    87    88    2
   113    87   122    1
   114    88    89    1
   115    88   102    1
   116    89    90    2
   117    89    91    1
   118    91    92    1
   119    91    94    1
   120    92    93    1
   121    92   123    1
   122    92   124    1
   123    93   125    1
   124    93   126    1
   125    93   127    1
   126    94    95    1
   127    94   101    2
   128    95    96    2
   129    95   128    1
   130    96    97    1
   131    96    98    1
   132    97   129    1
   133    97   130    1
   134    97   131    1
   135    98    99    2
   136    98   132    1
   137    99   100    1
   138    99   101    1
   139   100   133    1
   140   100   134    1
   141   100   135    1
   142   101   136    1
   143   104   105    1
   144   104   111    2
   145   105   106    2
   146   105   137    1
   147   106   107    1
   148   106   108    1
   149   107   138    1
   150   107   139    1
   151   107   140    1
   152   108   109    2
   153   108   141    1
   154   109   110    1
   155   109   111    1
   156   110   142    1
   157   110   143    1
   158   110   144    1
   159   111   145    1
   160   146   147    1
   161   146   148    1
@<TRIPOS>SUBSTRUCTURE
     1 RES1      148 GROUP             0 ****  ****    0  
