@<TRIPOS>MOLECULE
cn9_YICLED_0_nunpairedes_0_charge_3 Charge: 3 Unpaired_Electrons: 1 XTB_Unpaired_Electrons: 0 XTB_Charge: 3
   358   363     1     0     0
SMALL
NoCharges
****
Generated from Architector

@<TRIPOS>ATOM
     1 Ce1       0.1012    0.0475    0.1213   Ce        1 RES1   0.0000
     2 C1        3.3704    3.2236   -5.6527   C.3       1 RES1   0.0000
     3 C2        2.9016    4.5531   -5.0799   C.3       1 RES1   0.0000
     4 C3        1.4925    4.4594   -4.4990   C.3       1 RES1   0.0000
     5 C4        1.0436    5.7222   -3.7582   C.3       1 RES1   0.0000
     6 C5        1.9840    6.2821   -2.6864   C.3       1 RES1   0.0000
     7 C6        2.2115    5.4150   -1.4454   C.3       1 RES1   0.0000
     8 C7        3.1043    4.1816   -1.6081   C.3       1 RES1   0.0000
     9 C8        3.3929    3.5939   -0.2279   C.3       1 RES1   0.0000
    10 N1        3.9015    2.2247   -0.2257   N.am      1 RES1   0.0000
    11 C9        5.3436    2.0283   -0.3050   C.3       1 RES1   0.0000
    12 C10       6.0965    2.2454    1.0109   C.3       1 RES1   0.0000
    13 C11       7.5646    1.8288    0.8758   C.3       1 RES1   0.0000
    14 C12       7.7578    0.3139    0.9704   C.3       1 RES1   0.0000
    15 C13       9.1336   -0.1350    0.4758   C.3       1 RES1   0.0000
    16 C14       9.2601   -0.0889   -1.0479   C.3       1 RES1   0.0000
    17 C15      10.5308   -0.7691   -1.5617   C.3       1 RES1   0.0000
    18 C16      10.4805   -2.2913   -1.4928   C.3       1 RES1   0.0000
    19 C17       2.9982    1.2504   -0.2107   C.2       1 RES1   0.0000
    20 O1        1.8062    1.4582   -0.5118   O.2       1 RES1   0.0000
    21 C18       3.3943   -0.1974    0.1218   C.3       1 RES1   0.0000
    22 C19       3.4885   -0.8925   -1.2407   C.3       1 RES1   0.0000
    23 O2        2.3146   -0.7235    0.9144   O.3       1 RES1   0.0000
    24 C20       2.6186   -1.6633    1.9702   C.3       1 RES1   0.0000
    25 C21       3.2519   -2.9482    1.4458   C.3       1 RES1   0.0000
    26 C22       1.2632   -1.8527    2.7150   C.2       1 RES1   0.0000
    27 O3        0.2668   -1.3000    2.2192   O.2       1 RES1   0.0000
    28 N2        1.1807   -2.4914    3.8920   N.am      1 RES1   0.0000
    29 C23       0.0944   -2.1608    4.8247   C.3       1 RES1   0.0000
    30 C24      -1.0045   -3.2129    5.0329   C.3       1 RES1   0.0000
    31 C25      -1.9484   -2.8067    6.1794   C.3       1 RES1   0.0000
    32 C26      -3.1617   -3.7487    6.3445   C.3       1 RES1   0.0000
    33 C27      -4.5117   -3.0754    6.0746   C.3       1 RES1   0.0000
    34 C28      -5.0001   -2.1526    7.2042   C.3       1 RES1   0.0000
    35 C29      -5.5262   -0.7957    6.7256   C.3       1 RES1   0.0000
    36 C30      -6.6743   -0.8896    5.7237   C.3       1 RES1   0.0000
    37 C31       2.1063   -3.4742    4.4369   C.3       1 RES1   0.0000
    38 C32       3.2890   -2.8847    5.2105   C.3       1 RES1   0.0000
    39 C33       4.3009   -3.9906    5.5558   C.3       1 RES1   0.0000
    40 C34       4.2035   -4.4952    6.9998   C.3       1 RES1   0.0000
    41 C35       5.1641   -3.7901    7.9591   C.3       1 RES1   0.0000
    42 C36       4.9079   -2.3079    8.2262   C.3       1 RES1   0.0000
    43 C37       3.6417   -2.0336    9.0351   C.3       1 RES1   0.0000
    44 C38       3.5751   -0.5700    9.4564   C.3       1 RES1   0.0000
    45 H1        4.3853    3.3114   -6.0292   H         1 RES1   0.0000
    46 H2        2.7294    2.9165   -6.4743   H         1 RES1   0.0000
    47 H3        3.3548    2.4486   -4.8863   H         1 RES1   0.0000
    48 H4        2.9140    5.3117   -5.8614   H         1 RES1   0.0000
    49 H5        3.6012    4.8632   -4.3066   H         1 RES1   0.0000
    50 H6        1.4154    3.5910   -3.8389   H         1 RES1   0.0000
    51 H7        0.7896    4.2849   -5.3166   H         1 RES1   0.0000
    52 H8        0.0687    5.5337   -3.2967   H         1 RES1   0.0000
    53 H9        0.8992    6.5149   -4.4932   H         1 RES1   0.0000
    54 H10       1.5340    7.2168   -2.3387   H         1 RES1   0.0000
    55 H11       2.9425    6.5461   -3.1286   H         1 RES1   0.0000
    56 H12       1.2424    5.0817   -1.0672   H         1 RES1   0.0000
    57 H13       2.6614    6.0559   -0.6832   H         1 RES1   0.0000
    58 H14       4.0324    4.4593   -2.1023   H         1 RES1   0.0000
    59 H15       2.6117    3.4175   -2.2058   H         1 RES1   0.0000
    60 H16       2.4584    3.5733    0.3381   H         1 RES1   0.0000
    61 H17       4.1108    4.2094    0.3119   H         1 RES1   0.0000
    62 H18       5.7208    2.7308   -1.0542   H         1 RES1   0.0000
    63 H19       5.5535    1.0238   -0.6726   H         1 RES1   0.0000
    64 H20       5.6344    1.6729    1.8135   H         1 RES1   0.0000
    65 H21       6.0524    3.2960    1.2896   H         1 RES1   0.0000
    66 H22       8.1472    2.3009    1.6688   H         1 RES1   0.0000
    67 H23       7.9507    2.1943   -0.0758   H         1 RES1   0.0000
    68 H24       6.9948   -0.2117    0.3871   H         1 RES1   0.0000
    69 H25       7.6327    0.0103    2.0123   H         1 RES1   0.0000
    70 H26       9.3092   -1.1559    0.8149   H         1 RES1   0.0000
    71 H27       9.9017    0.4973    0.9231   H         1 RES1   0.0000
    72 H28       9.2728    0.9506   -1.3796   H         1 RES1   0.0000
    73 H29       8.3907   -0.5714   -1.5058   H         1 RES1   0.0000
    74 H30      11.3856   -0.4090   -0.9892   H         1 RES1   0.0000
    75 H31      10.6845   -0.4748   -2.6014   H         1 RES1   0.0000
    76 H32      10.3882   -2.6453   -0.4681   H         1 RES1   0.0000
    77 H33      11.3928   -2.7090   -1.9096   H         1 RES1   0.0000
    78 H34       9.6395   -2.6735   -2.0692   H         1 RES1   0.0000
    79 H35       4.3359   -0.2346    0.6807   H         1 RES1   0.0000
    80 H36       2.5182   -0.8148   -1.7409   H         1 RES1   0.0000
    81 H37       3.7463   -1.9360   -1.1160   H         1 RES1   0.0000
    82 H38       4.2350   -0.4162   -1.8737   H         1 RES1   0.0000
    83 H39       3.3017   -1.1551    2.6661   H         1 RES1   0.0000
    84 H40       2.4992   -3.5775    0.9785   H         1 RES1   0.0000
    85 H41       3.7337   -3.5030    2.2410   H         1 RES1   0.0000
    86 H42       4.0324   -2.7136    0.7290   H         1 RES1   0.0000
    87 H43      -0.3531   -1.2326    4.4702   H         1 RES1   0.0000
    88 H44       0.5751   -1.9758    5.7907   H         1 RES1   0.0000
    89 H45      -0.5625   -4.1761    5.2880   H         1 RES1   0.0000
    90 H46      -1.5691   -3.3419    4.1095   H         1 RES1   0.0000
    91 H47      -2.3020   -1.7912    6.0072   H         1 RES1   0.0000
    92 H48      -1.3777   -2.7919    7.1070   H         1 RES1   0.0000
    93 H49      -3.1727   -4.1630    7.3525   H         1 RES1   0.0000
    94 H50      -3.0510   -4.5920    5.6641   H         1 RES1   0.0000
    95 H51      -5.2647   -3.8433    5.8961   H         1 RES1   0.0000
    96 H52      -4.4269   -2.5048    5.1499   H         1 RES1   0.0000
    97 H53      -4.1826   -1.9714    7.9047   H         1 RES1   0.0000
    98 H54      -5.7955   -2.6530    7.7567   H         1 RES1   0.0000
    99 H55      -4.7117   -0.2113    6.2867   H         1 RES1   0.0000
   100 H56      -5.8765   -0.2586    7.6060   H         1 RES1   0.0000
   101 H57      -6.3516   -1.3255    4.7781   H         1 RES1   0.0000
   102 H58      -7.0754    0.1015    5.5143   H         1 RES1   0.0000
   103 H59      -7.4764   -1.5084    6.1170   H         1 RES1   0.0000
   104 H60       2.4654   -4.1173    3.6378   H         1 RES1   0.0000
   105 H61       1.5377   -4.1204    5.1129   H         1 RES1   0.0000
   106 H62       2.9298   -2.4269    6.1305   H         1 RES1   0.0000
   107 H63       3.7621   -2.0955    4.6244   H         1 RES1   0.0000
   108 H64       5.3163   -3.6319    5.3833   H         1 RES1   0.0000
   109 H65       4.1321   -4.8339    4.8849   H         1 RES1   0.0000
   110 H66       4.4715   -5.5523    7.0158   H         1 RES1   0.0000
   111 H67       3.1786   -4.4240    7.3676   H         1 RES1   0.0000
   112 H68       6.1745   -3.8955    7.5592   H         1 RES1   0.0000
   113 H69       5.1370   -4.3134    8.9155   H         1 RES1   0.0000
   114 H70       4.8773   -1.7479    7.2887   H         1 RES1   0.0000
   115 H71       5.7584   -1.9313    8.7986   H         1 RES1   0.0000
   116 H72       3.6416   -2.6640    9.9249   H         1 RES1   0.0000
   117 H73       2.7499   -2.2919    8.4557   H         1 RES1   0.0000
   118 H74       4.4224   -0.3286   10.0934   H         1 RES1   0.0000
   119 H75       2.6628   -0.3596   10.0095   H         1 RES1   0.0000
   120 H76       3.6093    0.0817    8.5843   H         1 RES1   0.0000
   121 C39       2.4976   -0.4044   -6.9886   C.3       1 RES1   0.0000
   122 C40       3.5485   -1.3812   -6.4774   C.3       1 RES1   0.0000
   123 C41       3.9838   -1.0638   -5.0485   C.3       1 RES1   0.0000
   124 C42       5.1588   -1.9234   -4.5692   C.3       1 RES1   0.0000
   125 C43       4.9583   -3.4426   -4.5158   C.3       1 RES1   0.0000
   126 C44       4.2451   -3.9951   -3.2751   C.3       1 RES1   0.0000
   127 C45       2.7238   -3.8534   -3.3032   C.3       1 RES1   0.0000
   128 C46       2.0598   -4.4228   -2.0421   C.3       1 RES1   0.0000
   129 N3        0.6138   -4.1838   -2.0394   N.am      1 RES1   0.0000
   130 C47      -0.1525   -5.0068   -2.9714   C.3       1 RES1   0.0000
   131 C48      -0.2361   -6.5071   -2.6691   C.3       1 RES1   0.0000
   132 C49      -1.0125   -7.1931   -3.8048   C.3       1 RES1   0.0000
   133 C50      -2.5287   -7.0103   -3.7148   C.3       1 RES1   0.0000
   134 C51      -3.2781   -7.4998   -4.9576   C.3       1 RES1   0.0000
   135 C52      -3.1095   -6.5951   -6.1821   C.3       1 RES1   0.0000
   136 C53      -4.1753   -6.8534   -7.2533   C.3       1 RES1   0.0000
   137 C54      -5.5187   -6.2046   -6.9336   C.3       1 RES1   0.0000
   138 C55       0.1527   -3.0863   -1.4403   C.2       1 RES1   0.0000
   139 O4        0.8584   -2.3373   -0.7366   O.2       1 RES1   0.0000
   140 C56      -1.2623   -2.5664   -1.7358   C.3       1 RES1   0.0000
   141 C57      -1.0891   -1.9238   -3.1158   C.3       1 RES1   0.0000
   142 O5       -1.5338   -1.5808   -0.7332   O.3       1 RES1   0.0000
   143 C58      -2.8827   -1.3847   -0.2769   C.3       1 RES1   0.0000
   144 C59      -3.5687   -0.2582   -1.0408   C.3       1 RES1   0.0000
   145 C60      -2.7116   -0.7784    1.1191   C.2       1 RES1   0.0000
   146 O6       -1.8022    0.0616    1.2376   O.2       1 RES1   0.0000
   147 N4       -3.5399   -1.0379    2.1132   N.am      1 RES1   0.0000
   148 C61      -3.0849   -0.6438    3.4454   C.3       1 RES1   0.0000
   149 C62      -3.0415    0.8482    3.7740   C.3       1 RES1   0.0000
   150 C63      -2.3049    1.0081    5.1086   C.3       1 RES1   0.0000
   151 C64      -2.3345    2.4295    5.6850   C.3       1 RES1   0.0000
   152 C65      -0.9450    2.9568    6.0541   C.3       1 RES1   0.0000
   153 C66      -0.4049    2.5536    7.4308   C.3       1 RES1   0.0000
   154 C67      -0.0970    1.0793    7.6984   C.3       1 RES1   0.0000
   155 C68       1.1263    0.5858    6.9362   C.3       1 RES1   0.0000
   156 C69      -4.7098   -1.8880    2.0014   C.3       1 RES1   0.0000
   157 C70      -4.3948   -3.3731    2.2131   C.3       1 RES1   0.0000
   158 C71      -5.6872   -4.1903    2.2835   C.3       1 RES1   0.0000
   159 C72      -5.5784   -5.4837    3.0937   C.3       1 RES1   0.0000
   160 C73      -4.7651   -6.5960    2.4222   C.3       1 RES1   0.0000
   161 C74      -3.2944   -6.6746    2.8337   C.3       1 RES1   0.0000
   162 C75      -3.0889   -7.2084    4.2503   C.3       1 RES1   0.0000
   163 C76      -1.6059   -7.3606    4.5760   C.3       1 RES1   0.0000
   164 H77       2.1777   -0.6832   -7.9880   H         1 RES1   0.0000
   165 H78       2.9035    0.6022   -7.0347   H         1 RES1   0.0000
   166 H79       1.6245   -0.3987   -6.3370   H         1 RES1   0.0000
   167 H80       4.4211   -1.3352   -7.1283   H         1 RES1   0.0000
   168 H81       3.1477   -2.3938   -6.5265   H         1 RES1   0.0000
   169 H82       3.1281   -1.1498   -4.3738   H         1 RES1   0.0000
   170 H83       4.3037   -0.0186   -5.0144   H         1 RES1   0.0000
   171 H84       5.4730   -1.5800   -3.5801   H         1 RES1   0.0000
   172 H85       5.9885   -1.7368   -5.2530   H         1 RES1   0.0000
   173 H86       5.9524   -3.8928   -4.5367   H         1 RES1   0.0000
   174 H87       4.4546   -3.7784   -5.4203   H         1 RES1   0.0000
   175 H88       4.6480   -3.5155   -2.3809   H         1 RES1   0.0000
   176 H89       4.4834   -5.0566   -3.2048   H         1 RES1   0.0000
   177 H90       2.3575   -4.3861   -4.1810   H         1 RES1   0.0000
   178 H91       2.4471   -2.8035   -3.3989   H         1 RES1   0.0000
   179 H92       2.4707   -3.9324   -1.1619   H         1 RES1   0.0000
   180 H93       2.2436   -5.4943   -1.9639   H         1 RES1   0.0000
   181 H94       0.3027   -4.9023   -3.9609   H         1 RES1   0.0000
   182 H95      -1.1724   -4.6406   -3.0384   H         1 RES1   0.0000
   183 H96      -0.7331   -6.6811   -1.7145   H         1 RES1   0.0000
   184 H97       0.7582   -6.9470   -2.6142   H         1 RES1   0.0000
   185 H98      -0.7956   -8.2607   -3.7921   H         1 RES1   0.0000
   186 H99      -0.6503   -6.8010   -4.7561   H         1 RES1   0.0000
   187 H100     -2.7811   -5.9585   -3.5601   H         1 RES1   0.0000
   188 H101     -2.8923   -7.5659   -2.8488   H         1 RES1   0.0000
   189 H102     -4.3395   -7.5620   -4.7129   H         1 RES1   0.0000
   190 H103     -2.9487   -8.5082   -5.2096   H         1 RES1   0.0000
   191 H104     -2.1243   -6.7597   -6.6216   H         1 RES1   0.0000
   192 H105     -3.1637   -5.5436   -5.8824   H         1 RES1   0.0000
   193 H106     -4.3084   -7.9289   -7.3707   H         1 RES1   0.0000
   194 H107     -3.8213   -6.4611   -8.2086   H         1 RES1   0.0000
   195 H108     -5.9218   -6.5625   -5.9883   H         1 RES1   0.0000
   196 H109     -6.2415   -6.4363   -7.7110   H         1 RES1   0.0000
   197 H110     -5.4168   -5.1212   -6.8800   H         1 RES1   0.0000
   198 H111     -2.0328   -3.3380   -1.7073   H         1 RES1   0.0000
   199 H112     -0.3279   -1.1444   -3.0292   H         1 RES1   0.0000
   200 H113     -2.0119   -1.4928   -3.4742   H         1 RES1   0.0000
   201 H114     -0.7404   -2.6538   -3.8396   H         1 RES1   0.0000
   202 H115     -3.4334   -2.3306   -0.2909   H         1 RES1   0.0000
   203 H116     -3.0204    0.6627   -0.8336   H         1 RES1   0.0000
   204 H117     -4.6071   -0.1409   -0.7412   H         1 RES1   0.0000
   205 H118     -3.5279   -0.4503   -2.1025   H         1 RES1   0.0000
   206 H119     -2.0653   -1.0216    3.5323   H         1 RES1   0.0000
   207 H120     -3.7265   -1.1464    4.1644   H         1 RES1   0.0000
   208 H121     -4.0490    1.2568    3.8376   H         1 RES1   0.0000
   209 H122     -2.4869    1.3768    3.0005   H         1 RES1   0.0000
   210 H123     -1.2670    0.7093    4.9558   H         1 RES1   0.0000
   211 H124     -2.7285    0.3130    5.8322   H         1 RES1   0.0000
   212 H125     -2.9806    2.4710    6.5605   H         1 RES1   0.0000
   213 H126     -2.7631    3.1025    4.9410   H         1 RES1   0.0000
   214 H127     -0.9957    4.0497    6.0635   H         1 RES1   0.0000
   215 H128     -0.2498    2.6624    5.2696   H         1 RES1   0.0000
   216 H129     -1.1161    2.8992    8.1804   H         1 RES1   0.0000
   217 H130      0.5244    3.1089    7.5882   H         1 RES1   0.0000
   218 H131     -0.9624    0.4527    7.4867   H         1 RES1   0.0000
   219 H132      0.1101    0.9894    8.7656   H         1 RES1   0.0000
   220 H133      0.9396    0.5348    5.8652   H         1 RES1   0.0000
   221 H134      1.4246   -0.4005    7.2820   H         1 RES1   0.0000
   222 H135      1.9554    1.2674    7.1099   H         1 RES1   0.0000
   223 H136     -5.1821   -1.7275    1.0311   H         1 RES1   0.0000
   224 H137     -5.4219   -1.5533    2.7599   H         1 RES1   0.0000
   225 H138     -3.8423   -3.4919    3.1445   H         1 RES1   0.0000
   226 H139     -3.7567   -3.7352    1.4032   H         1 RES1   0.0000
   227 H140     -6.0166   -4.4237    1.2707   H         1 RES1   0.0000
   228 H141     -6.4588   -3.5755    2.7503   H         1 RES1   0.0000
   229 H142     -6.5954   -5.8448    3.2507   H         1 RES1   0.0000
   230 H143     -5.1653   -5.2619    4.0773   H         1 RES1   0.0000
   231 H144     -4.8232   -6.4685    1.3395   H         1 RES1   0.0000
   232 H145     -5.2250   -7.5552    2.6568   H         1 RES1   0.0000
   233 H146     -2.8270   -5.6902    2.7471   H         1 RES1   0.0000
   234 H147     -2.7811   -7.3431    2.1383   H         1 RES1   0.0000
   235 H148     -3.5813   -8.1767    4.3484   H         1 RES1   0.0000
   236 H149     -3.5534   -6.5382    4.9761   H         1 RES1   0.0000
   237 H150     -1.1781   -8.1880    4.0143   H         1 RES1   0.0000
   238 H151     -1.4638   -7.5623    5.6349   H         1 RES1   0.0000
   239 H152     -1.0612   -6.4511    4.3162   H         1 RES1   0.0000
   240 C77      -6.1701   -5.8211   -2.1539   C.3       1 RES1   0.0000
   241 C78      -5.3253   -4.5590   -2.2748   C.3       1 RES1   0.0000
   242 C79      -5.2614   -3.9789   -3.6949   C.3       1 RES1   0.0000
   243 C80      -4.2215   -2.8558   -3.6858   C.3       1 RES1   0.0000
   244 C81      -4.0081   -2.0209   -4.9669   C.3       1 RES1   0.0000
   245 C82      -4.0596   -0.4973   -4.6901   C.3       1 RES1   0.0000
   246 C83      -3.0528    0.4386   -5.3870   C.3       1 RES1   0.0000
   247 C84      -1.9455    1.1158   -4.5476   C.3       1 RES1   0.0000
   248 N5       -2.3180    2.0157   -3.4333   N.am      1 RES1   0.0000
   249 C85      -3.2765    3.0446   -3.8350   C.3       1 RES1   0.0000
   250 C86      -4.5837    3.0995   -3.0150   C.3       1 RES1   0.0000
   251 C87      -5.7083    2.1993   -3.5423   C.3       1 RES1   0.0000
   252 C88      -7.0713    2.4260   -2.8750   C.3       1 RES1   0.0000
   253 C89      -7.2632    1.7177   -1.5306   C.3       1 RES1   0.0000
   254 C90      -7.2603    0.1828   -1.5337   C.3       1 RES1   0.0000
   255 C91      -8.5176   -0.4860   -2.1060   C.3       1 RES1   0.0000
   256 C92      -8.3846   -0.8636   -3.5772   C.3       1 RES1   0.0000
   257 C93      -1.5390    2.0112   -2.3404   C.2       1 RES1   0.0000
   258 O7       -0.8217    1.0216   -2.0659   O.2       1 RES1   0.0000
   259 C94      -1.3005    3.2153   -1.3781   C.3       1 RES1   0.0000
   260 C95      -2.2646    4.3919   -1.2659   C.3       1 RES1   0.0000
   261 O8       -1.0241    2.5956   -0.0997   O.3       1 RES1   0.0000
   262 C96      -0.7150    3.4798    0.9859   C.3       1 RES1   0.0000
   263 C97      -1.9929    3.8423    1.7666   C.3       1 RES1   0.0000
   264 C98       0.2816    2.7527    1.9126   C.2       1 RES1   0.0000
   265 O9        0.5154    1.5432    1.7555   O.2       1 RES1   0.0000
   266 N6        0.8937    3.4231    2.8905   N.am      1 RES1   0.0000
   267 C99       0.7033    4.8198    3.2445   C.3       1 RES1   0.0000
   268 C100      1.9543    5.6761    3.0427   C.3       1 RES1   0.0000
   269 C101      1.7006    7.0841    3.5834   C.3       1 RES1   0.0000
   270 C102      2.8850    8.0465    3.4842   C.3       1 RES1   0.0000
   271 C103      3.2264    8.4492    2.0439   C.3       1 RES1   0.0000
   272 C104      4.3843    7.6555    1.4408   C.3       1 RES1   0.0000
   273 C105      4.7294    8.1560    0.0397   C.3       1 RES1   0.0000
   274 C106      5.7754    7.2825   -0.6384   C.3       1 RES1   0.0000
   275 C107      1.7658    2.6398    3.7671   C.3       1 RES1   0.0000
   276 C108      3.1388    2.3365    3.1675   C.3       1 RES1   0.0000
   277 C109      3.9724    1.4026    4.0633   C.3       1 RES1   0.0000
   278 C110      5.2457    2.0275    4.6620   C.3       1 RES1   0.0000
   279 C111      5.1870    2.3916    6.1497   C.3       1 RES1   0.0000
   280 C112      4.3964    3.6595    6.4688   C.3       1 RES1   0.0000
   281 C113      4.5082    4.0318    7.9485   C.3       1 RES1   0.0000
   282 C114      3.9463    5.4186    8.2264   C.3       1 RES1   0.0000
   283 H153     -6.1045   -6.2238   -1.1432   H         1 RES1   0.0000
   284 H154     -5.8147   -6.5822   -2.8448   H         1 RES1   0.0000
   285 H155     -7.2154   -5.6150   -2.3699   H         1 RES1   0.0000
   286 H156     -4.3060   -4.7929   -1.9419   H         1 RES1   0.0000
   287 H157     -5.7218   -3.7976   -1.5946   H         1 RES1   0.0000
   288 H158     -6.2410   -3.6004   -3.9916   H         1 RES1   0.0000
   289 H159     -4.9772   -4.7567   -4.4021   H         1 RES1   0.0000
   290 H160     -3.2773   -3.3252   -3.4057   H         1 RES1   0.0000
   291 H161     -4.5179   -2.1995   -2.8651   H         1 RES1   0.0000
   292 H162     -4.7919   -2.2669   -5.6809   H         1 RES1   0.0000
   293 H163     -3.0622   -2.2945   -5.4359   H         1 RES1   0.0000
   294 H164     -3.9437   -0.3327   -3.6262   H         1 RES1   0.0000
   295 H165     -5.0620   -0.1670   -4.9492   H         1 RES1   0.0000
   296 H166     -3.6314    1.2154   -5.8871   H         1 RES1   0.0000
   297 H167     -2.5197   -0.0967   -6.1740   H         1 RES1   0.0000
   298 H168     -1.4013    1.7538   -5.2542   H         1 RES1   0.0000
   299 H169     -1.2360    0.3952   -4.1505   H         1 RES1   0.0000
   300 H170     -3.5434    2.8524   -4.8721   H         1 RES1   0.0000
   301 H171     -2.7912    4.0198   -3.8445   H         1 RES1   0.0000
   302 H172     -4.9339    4.1338   -3.0329   H         1 RES1   0.0000
   303 H173     -4.3806    2.8278   -1.9809   H         1 RES1   0.0000
   304 H174     -5.4265    1.1651   -3.3812   H         1 RES1   0.0000
   305 H175     -5.8252    2.3621   -4.6149   H         1 RES1   0.0000
   306 H176     -7.8516    2.0892   -3.5558   H         1 RES1   0.0000
   307 H177     -7.2292    3.4936   -2.7156   H         1 RES1   0.0000
   308 H178     -8.2235    2.0422   -1.1281   H         1 RES1   0.0000
   309 H179     -6.4917    2.0600   -0.8351   H         1 RES1   0.0000
   310 H180     -7.1561   -0.1309   -0.4902   H         1 RES1   0.0000
   311 H181     -6.3968   -0.2005   -2.0808   H         1 RES1   0.0000
   312 H182     -9.3785    0.1692   -1.9759   H         1 RES1   0.0000
   313 H183     -8.7173   -1.3964   -1.5363   H         1 RES1   0.0000
   314 H184     -8.3116    0.0202   -4.2044   H         1 RES1   0.0000
   315 H185     -9.2525   -1.4363   -3.8940   H         1 RES1   0.0000
   316 H186     -7.4962   -1.4745   -3.7363   H         1 RES1   0.0000
   317 H187     -0.3459    3.6179   -1.7727   H         1 RES1   0.0000
   318 H188     -3.1961    4.1291   -0.7756   H         1 RES1   0.0000
   319 H189     -2.4965    4.7986   -2.2393   H         1 RES1   0.0000
   320 H190     -1.8024    5.2024   -0.7093   H         1 RES1   0.0000
   321 H191     -0.2143    4.3700    0.5906   H         1 RES1   0.0000
   322 H192     -2.8020    3.2040    1.4203   H         1 RES1   0.0000
   323 H193     -2.2844    4.8792    1.6269   H         1 RES1   0.0000
   324 H194     -1.8690    3.6610    2.8299   H         1 RES1   0.0000
   325 H195      0.4160    4.8627    4.2986   H         1 RES1   0.0000
   326 H196     -0.1162    5.2417    2.6700   H         1 RES1   0.0000
   327 H197      2.1977    5.7107    1.9807   H         1 RES1   0.0000
   328 H198      2.7970    5.2419    3.5785   H         1 RES1   0.0000
   329 H199      1.4191    7.0032    4.6340   H         1 RES1   0.0000
   330 H200      0.8616    7.5269    3.0452   H         1 RES1   0.0000
   331 H201      3.7668    7.6182    3.9641   H         1 RES1   0.0000
   332 H202      2.6159    8.9433    4.0456   H         1 RES1   0.0000
   333 H203      3.4952    9.5061    2.0209   H         1 RES1   0.0000
   334 H204      2.3364    8.3289    1.4196   H         1 RES1   0.0000
   335 H205      4.1317    6.5904    1.4002   H         1 RES1   0.0000
   336 H206      5.2590    7.7592    2.0858   H         1 RES1   0.0000
   337 H207      5.1050    9.1768    0.1097   H         1 RES1   0.0000
   338 H208      3.8228    8.1828   -0.5701   H         1 RES1   0.0000
   339 H209      6.6784    7.2365   -0.0363   H         1 RES1   0.0000
   340 H210      6.0366    7.6875   -1.6107   H         1 RES1   0.0000
   341 H211      5.4031    6.2689   -0.7800   H         1 RES1   0.0000
   342 H212      1.2692    1.6807    3.9455   H         1 RES1   0.0000
   343 H213      1.8701    3.1875    4.7016   H         1 RES1   0.0000
   344 H214      3.6775    3.2662    2.9901   H         1 RES1   0.0000
   345 H215      2.9684    1.8525    2.2040   H         1 RES1   0.0000
   346 H216      4.2750    0.5409    3.4628   H         1 RES1   0.0000
   347 H217      3.3462    1.0148    4.8662   H         1 RES1   0.0000
   348 H218      5.5234    2.9190    4.0946   H         1 RES1   0.0000
   349 H219      6.0571    1.3048    4.5469   H         1 RES1   0.0000
   350 H220      6.2160    2.5515    6.4773   H         1 RES1   0.0000
   351 H221      4.7970    1.5494    6.7275   H         1 RES1   0.0000
   352 H222      3.3418    3.5277    6.2079   H         1 RES1   0.0000
   353 H223      4.7928    4.4811    5.8645   H         1 RES1   0.0000
   354 H224      5.5576    4.0086    8.2451   H         1 RES1   0.0000
   355 H225      3.9825    3.2888    8.5513   H         1 RES1   0.0000
   356 H226      4.4624    6.1630    7.6265   H         1 RES1   0.0000
   357 H227      4.0717    5.6776    9.2718   H         1 RES1   0.0000
   358 H228      2.8859    5.4653    7.9937   H         1 RES1   0.0000
@<TRIPOS>BOND
     1     1    20    1
     2     1    23    1
     3     1    27    1
     4     1   139    1
     5     1   142    1
     6     1   146    1
     7     1   258    1
     8     1   261    1
     9     1   265    1
    10     2     3    1
    11     2    45    1
    12     2    46    1
    13     2    47    1
    14     3     4    1
    15     3    48    1
    16     3    49    1
    17     4     5    1
    18     4    50    1
    19     4    51    1
    20     5     6    1
    21     5    52    1
    22     5    53    1
    23     6     7    1
    24     6    54    1
    25     6    55    1
    26     7     8    1
    27     7    56    1
    28     7    57    1
    29     8     9    1
    30     8    58    1
    31     8    59    1
    32     9    10    1
    33     9    60    1
    34     9    61    1
    35    10    11    1
    36    10    19    1
    37    11    12    1
    38    11    62    1
    39    11    63    1
    40    12    13    1
    41    12    64    1
    42    12    65    1
    43    13    14    1
    44    13    66    1
    45    13    67    1
    46    14    15    1
    47    14    68    1
    48    14    69    1
    49    15    16    1
    50    15    70    1
    51    15    71    1
    52    16    17    1
    53    16    72    1
    54    16    73    1
    55    17    18    1
    56    17    74    1
    57    17    75    1
    58    18    76    1
    59    18    77    1
    60    18    78    1
    61    19    20    2
    62    19    21    1
    63    21    22    1
    64    21    23    1
    65    21    79    1
    66    22    80    1
    67    22    81    1
    68    22    82    1
    69    23    24    1
    70    24    25    1
    71    24    26    1
    72    24    83    1
    73    25    84    1
    74    25    85    1
    75    25    86    1
    76    26    27    2
    77    26    28    1
    78    28    29    1
    79    28    37    1
    80    29    30    1
    81    29    87    1
    82    29    88    1
    83    30    31    1
    84    30    89    1
    85    30    90    1
    86    31    32    1
    87    31    91    1
    88    31    92    1
    89    32    33    1
    90    32    93    1
    91    32    94    1
    92    33    34    1
    93    33    95    1
    94    33    96    1
    95    34    35    1
    96    34    97    1
    97    34    98    1
    98    35    36    1
    99    35    99    1
   100    35   100    1
   101    36   101    1
   102    36   102    1
   103    36   103    1
   104    37    38    1
   105    37   104    1
   106    37   105    1
   107    38    39    1
   108    38   106    1
   109    38   107    1
   110    39    40    1
   111    39   108    1
   112    39   109    1
   113    40    41    1
   114    40   110    1
   115    40   111    1
   116    41    42    1
   117    41   112    1
   118    41   113    1
   119    42    43    1
   120    42   114    1
   121    42   115    1
   122    43    44    1
   123    43   116    1
   124    43   117    1
   125    44   118    1
   126    44   119    1
   127    44   120    1
   128   121   122    1
   129   121   164    1
   130   121   165    1
   131   121   166    1
   132   122   123    1
   133   122   167    1
   134   122   168    1
   135   123   124    1
   136   123   169    1
   137   123   170    1
   138   124   125    1
   139   124   171    1
   140   124   172    1
   141   125   126    1
   142   125   173    1
   143   125   174    1
   144   126   127    1
   145   126   175    1
   146   126   176    1
   147   127   128    1
   148   127   177    1
   149   127   178    1
   150   128   129    1
   151   128   179    1
   152   128   180    1
   153   129   130    1
   154   129   138    1
   155   130   131    1
   156   130   181    1
   157   130   182    1
   158   131   132    1
   159   131   183    1
   160   131   184    1
   161   132   133    1
   162   132   185    1
   163   132   186    1
   164   133   134    1
   165   133   187    1
   166   133   188    1
   167   134   135    1
   168   134   189    1
   169   134   190    1
   170   135   136    1
   171   135   191    1
   172   135   192    1
   173   136   137    1
   174   136   193    1
   175   136   194    1
   176   137   195    1
   177   137   196    1
   178   137   197    1
   179   138   139    2
   180   138   140    1
   181   140   141    1
   182   140   142    1
   183   140   198    1
   184   141   199    1
   185   141   200    1
   186   141   201    1
   187   142   143    1
   188   143   144    1
   189   143   145    1
   190   143   202    1
   191   144   203    1
   192   144   204    1
   193   144   205    1
   194   145   146    2
   195   145   147    1
   196   147   148    1
   197   147   156    1
   198   148   149    1
   199   148   206    1
   200   148   207    1
   201   149   150    1
   202   149   208    1
   203   149   209    1
   204   150   151    1
   205   150   210    1
   206   150   211    1
   207   151   152    1
   208   151   212    1
   209   151   213    1
   210   152   153    1
   211   152   214    1
   212   152   215    1
   213   153   154    1
   214   153   216    1
   215   153   217    1
   216   154   155    1
   217   154   218    1
   218   154   219    1
   219   155   220    1
   220   155   221    1
   221   155   222    1
   222   156   157    1
   223   156   223    1
   224   156   224    1
   225   157   158    1
   226   157   225    1
   227   157   226    1
   228   158   159    1
   229   158   227    1
   230   158   228    1
   231   159   160    1
   232   159   229    1
   233   159   230    1
   234   160   161    1
   235   160   231    1
   236   160   232    1
   237   161   162    1
   238   161   233    1
   239   161   234    1
   240   162   163    1
   241   162   235    1
   242   162   236    1
   243   163   237    1
   244   163   238    1
   245   163   239    1
   246   240   241    1
   247   240   283    1
   248   240   284    1
   249   240   285    1
   250   241   242    1
   251   241   286    1
   252   241   287    1
   253   242   243    1
   254   242   288    1
   255   242   289    1
   256   243   244    1
   257   243   290    1
   258   243   291    1
   259   244   245    1
   260   244   292    1
   261   244   293    1
   262   245   246    1
   263   245   294    1
   264   245   295    1
   265   246   247    1
   266   246   296    1
   267   246   297    1
   268   247   248    1
   269   247   298    1
   270   247   299    1
   271   248   249    1
   272   248   257    1
   273   249   250    1
   274   249   300    1
   275   249   301    1
   276   250   251    1
   277   250   302    1
   278   250   303    1
   279   251   252    1
   280   251   304    1
   281   251   305    1
   282   252   253    1
   283   252   306    1
   284   252   307    1
   285   253   254    1
   286   253   308    1
   287   253   309    1
   288   254   255    1
   289   254   310    1
   290   254   311    1
   291   255   256    1
   292   255   312    1
   293   255   313    1
   294   256   314    1
   295   256   315    1
   296   256   316    1
   297   257   258    2
   298   257   259    1
   299   259   260    1
   300   259   261    1
   301   259   317    1
   302   260   318    1
   303   260   319    1
   304   260   320    1
   305   261   262    1
   306   262   263    1
   307   262   264    1
   308   262   321    1
   309   263   322    1
   310   263   323    1
   311   263   324    1
   312   264   265    2
   313   264   266    1
   314   266   267    1
   315   266   275    1
   316   267   268    1
   317   267   325    1
   318   267   326    1
   319   268   269    1
   320   268   327    1
   321   268   328    1
   322   269   270    1
   323   269   329    1
   324   269   330    1
   325   270   271    1
   326   270   331    1
   327   270   332    1
   328   271   272    1
   329   271   333    1
   330   271   334    1
   331   272   273    1
   332   272   335    1
   333   272   336    1
   334   273   274    1
   335   273   337    1
   336   273   338    1
   337   274   339    1
   338   274   340    1
   339   274   341    1
   340   275   276    1
   341   275   342    1
   342   275   343    1
   343   276   277    1
   344   276   344    1
   345   276   345    1
   346   277   278    1
   347   277   346    1
   348   277   347    1
   349   278   279    1
   350   278   348    1
   351   278   349    1
   352   279   280    1
   353   279   350    1
   354   279   351    1
   355   280   281    1
   356   280   352    1
   357   280   353    1
   358   281   282    1
   359   281   354    1
   360   281   355    1
   361   282   356    1
   362   282   357    1
   363   282   358    1
@<TRIPOS>SUBSTRUCTURE
     1 RES1      358 GROUP             0 ****  ****    0  
