@<TRIPOS>MOLECULE
am_c3_9H2O_c0_0_nunpairedes_0_charge_3 Charge: 3 Unpaired_Electrons: 1 XTB_Unpaired_Electrons: 0 XTB_Charge: 3
   214   219     1     0     0
SMALL
NoCharges
****
Generated from Architector

@<TRIPOS>ATOM
     1 Ce1      -0.0728   -0.0978    0.3176   Ce        1 RES1   0.0000
     2 C1       -1.2083   -1.0152   -7.4742   C.3       1 RES1   0.0000
     3 C2       -1.9732   -1.2009   -6.1686   C.3       1 RES1   0.0000
     4 C3       -1.4725   -2.4241   -5.4029   C.3       1 RES1   0.0000
     5 C4       -2.1924   -2.6834   -4.0768   C.3       1 RES1   0.0000
     6 C5       -3.6408   -3.1380   -4.2546   C.3       1 RES1   0.0000
     7 C6       -4.2798   -3.6505   -2.9562   C.3       1 RES1   0.0000
     8 C7       -5.2729   -2.7159   -2.2573   C.3       1 RES1   0.0000
     9 C8       -4.7325   -1.5616   -1.4060   C.3       1 RES1   0.0000
    10 N1       -4.0051   -0.5023   -2.1029   N.am      1 RES1   0.0000
    11 C9       -4.5983    0.0636   -3.3016   C.3       1 RES1   0.0000
    12 C10      -2.9170   -0.0037   -1.5312   C.2       1 RES1   0.0000
    13 O1       -2.4964   -0.3421   -0.4072   O.2       1 RES1   0.0000
    14 C11      -2.0503    0.9969   -2.3162   C.3       1 RES1   0.0000
    15 O2       -1.2049    1.6928   -1.4106   O.3       1 RES1   0.0000
    16 C12      -1.7997    2.8734   -0.8693   C.3       1 RES1   0.0000
    17 C13      -1.3246    3.0451    0.5851   C.2       1 RES1   0.0000
    18 O3       -0.7876    2.0745    1.1525   O.2       1 RES1   0.0000
    19 N2       -1.5209    4.2167    1.1698   N.am      1 RES1   0.0000
    20 C14      -2.2564    5.3204    0.5887   C.3       1 RES1   0.0000
    21 C15      -0.9669    4.4787    2.4991   C.3       1 RES1   0.0000
    22 C16      -1.9932    4.8768    3.5651   C.3       1 RES1   0.0000
    23 C17      -2.7630    3.6828    4.1292   C.3       1 RES1   0.0000
    24 C18      -3.7915    3.0530    3.1861   C.3       1 RES1   0.0000
    25 C19      -4.0797    1.5854    3.5126   C.3       1 RES1   0.0000
    26 C20      -2.8762    0.6601    3.2843   C.3       1 RES1   0.0000
    27 C21      -2.0000    0.4596    4.5286   C.3       1 RES1   0.0000
    28 C22      -0.5139    0.4464    4.1933   C.3       1 RES1   0.0000
    29 H1       -1.5809   -0.1515   -8.0175   H         1 RES1   0.0000
    30 H2       -1.3270   -1.8899   -8.1077   H         1 RES1   0.0000
    31 H3       -0.1461   -0.8725   -7.2874   H         1 RES1   0.0000
    32 H4       -3.0323   -1.3188   -6.3975   H         1 RES1   0.0000
    33 H5       -1.8587   -0.3060   -5.5456   H         1 RES1   0.0000
    34 H6       -0.4032   -2.2975   -5.2051   H         1 RES1   0.0000
    35 H7       -1.5807   -3.3054   -6.0378   H         1 RES1   0.0000
    36 H8       -2.1342   -1.7958   -3.4394   H         1 RES1   0.0000
    37 H9       -1.6593   -3.4909   -3.5670   H         1 RES1   0.0000
    38 H10      -3.6282   -3.9514   -4.9804   H         1 RES1   0.0000
    39 H11      -4.2565   -2.3491   -4.6803   H         1 RES1   0.0000
    40 H12      -3.4922   -3.9555   -2.2660   H         1 RES1   0.0000
    41 H13      -4.8427   -4.5528   -3.1926   H         1 RES1   0.0000
    42 H14      -5.8493   -3.3225   -1.5545   H         1 RES1   0.0000
    43 H15      -5.9858   -2.3601   -3.0001   H         1 RES1   0.0000
    44 H16      -4.0438   -1.9511   -0.6547   H         1 RES1   0.0000
    45 H17      -5.5761   -1.1041   -0.8776   H         1 RES1   0.0000
    46 H18      -5.5440   -0.4352   -3.4955   H         1 RES1   0.0000
    47 H19      -3.9490   -0.0593   -4.1691   H         1 RES1   0.0000
    48 H20      -4.8208    1.1225   -3.1662   H         1 RES1   0.0000
    49 H21      -2.6107    1.6995   -2.9405   H         1 RES1   0.0000
    50 H22      -1.3724    0.4178   -2.9585   H         1 RES1   0.0000
    51 H23      -2.8965    2.8009   -0.8835   H         1 RES1   0.0000
    52 H24      -1.4784    3.7221   -1.4900   H         1 RES1   0.0000
    53 H25      -2.6572    5.0755   -0.3854   H         1 RES1   0.0000
    54 H26      -1.6125    6.1966    0.5052   H         1 RES1   0.0000
    55 H27      -3.1047    5.5772    1.2239   H         1 RES1   0.0000
    56 H28      -0.2305    5.2819    2.3875   H         1 RES1   0.0000
    57 H29      -0.4616    3.5624    2.8085   H         1 RES1   0.0000
    58 H30      -2.6646    5.6412    3.1767   H         1 RES1   0.0000
    59 H31      -1.4421    5.3385    4.3877   H         1 RES1   0.0000
    60 H32      -3.2806    4.0008    5.0337   H         1 RES1   0.0000
    61 H33      -2.0278    2.9385    4.4183   H         1 RES1   0.0000
    62 H34      -3.4515    3.1066    2.1505   H         1 RES1   0.0000
    63 H35      -4.7227    3.6161    3.2593   H         1 RES1   0.0000
    64 H36      -4.9099    1.2603    2.8824   H         1 RES1   0.0000
    65 H37      -4.4157    1.4951    4.5457   H         1 RES1   0.0000
    66 H38      -2.2560    1.0546    2.4678   H         1 RES1   0.0000
    67 H39      -3.2455   -0.3117    2.9565   H         1 RES1   0.0000
    68 H40      -2.2579   -0.4854    4.9981   H         1 RES1   0.0000
    69 H41      -2.2018    1.2280    5.2745   H         1 RES1   0.0000
    70 H42      -0.2830   -0.3628    3.4893   H         1 RES1   0.0000
    71 H43       0.0627    0.2930    5.1028   H         1 RES1   0.0000
    72 H44      -0.2078    1.3975    3.7532   H         1 RES1   0.0000
    73 C23       4.3949    6.4726   -2.0208   C.3       1 RES1   0.0000
    74 C24       4.9589    5.0622   -2.1423   C.3       1 RES1   0.0000
    75 C25       5.3800    4.5003   -0.7839   C.3       1 RES1   0.0000
    76 C26       5.9144    3.0682   -0.8883   C.3       1 RES1   0.0000
    77 C27       6.6343    2.5467    0.3631   C.3       1 RES1   0.0000
    78 C28       5.7372    1.9581    1.4547   C.3       1 RES1   0.0000
    79 C29       5.0098    3.0192    2.2755   C.3       1 RES1   0.0000
    80 C30       4.0477    2.4250    3.3117   C.3       1 RES1   0.0000
    81 N3        3.2551    1.2776    2.8759   N.am      1 RES1   0.0000
    82 C31       3.2361    0.0793    3.7116   C.3       1 RES1   0.0000
    83 C32       2.3923    1.2694    1.8665   C.2       1 RES1   0.0000
    84 O4        1.5929    0.3265    1.7262   O.2       1 RES1   0.0000
    85 C33       2.4061    2.3865    0.8116   C.3       1 RES1   0.0000
    86 O5        1.4453    2.0745   -0.1970   O.3       1 RES1   0.0000
    87 C34       1.8085    2.4387   -1.5269   C.3       1 RES1   0.0000
    88 C35       1.8068    1.1530   -2.3731   C.2       1 RES1   0.0000
    89 O6        1.2120    0.1524   -1.9265   O.2       1 RES1   0.0000
    90 N4        2.5089    1.1361   -3.4996   N.am      1 RES1   0.0000
    91 C36       2.9841    2.3088   -4.2018   C.3       1 RES1   0.0000
    92 C37       2.9323   -0.1170   -4.1154   C.3       1 RES1   0.0000
    93 C38       2.2127   -0.4795   -5.4135   C.3       1 RES1   0.0000
    94 C39       2.7515   -1.7941   -5.9886   C.3       1 RES1   0.0000
    95 C40       4.1418   -1.6489   -6.6090   C.3       1 RES1   0.0000
    96 C41       4.7052   -2.9699   -7.1493   C.3       1 RES1   0.0000
    97 C42       5.6066   -3.7183   -6.1649   C.3       1 RES1   0.0000
    98 C43       4.8886   -4.2904   -4.9441   C.3       1 RES1   0.0000
    99 C44       5.8333   -5.1512   -4.1132   C.3       1 RES1   0.0000
   100 H45       4.0815    6.8398   -2.9941   H         1 RES1   0.0000
   101 H46       3.5371    6.4937   -1.3491   H         1 RES1   0.0000
   102 H47       5.1473    7.1519   -1.6309   H         1 RES1   0.0000
   103 H48       4.2016    4.4082   -2.5876   H         1 RES1   0.0000
   104 H49       5.8167    5.0725   -2.8162   H         1 RES1   0.0000
   105 H50       6.1664    5.1305   -0.3673   H         1 RES1   0.0000
   106 H51       4.5196    4.5665   -0.1114   H         1 RES1   0.0000
   107 H52       5.1106    2.3743   -1.1658   H         1 RES1   0.0000
   108 H53       6.6343    3.0606   -1.7101   H         1 RES1   0.0000
   109 H54       7.3315    1.7691    0.0482   H         1 RES1   0.0000
   110 H55       7.2339    3.3548    0.7781   H         1 RES1   0.0000
   111 H56       5.0284    1.2626    0.9969   H         1 RES1   0.0000
   112 H57       6.3603    1.3768    2.1338   H         1 RES1   0.0000
   113 H58       5.7579    3.6036    2.8116   H         1 RES1   0.0000
   114 H59       4.4864    3.7189    1.6304   H         1 RES1   0.0000
   115 H60       4.6281    2.0945    4.1727   H         1 RES1   0.0000
   116 H61       3.3670    3.2135    3.6527   H         1 RES1   0.0000
   117 H62       3.9244    0.1808    4.5433   H         1 RES1   0.0000
   118 H63       2.2294   -0.0963    4.0918   H         1 RES1   0.0000
   119 H64       3.5207   -0.7922    3.1188   H         1 RES1   0.0000
   120 H65       2.1641    3.3569    1.2724   H         1 RES1   0.0000
   121 H66       3.4029    2.4353    0.3625   H         1 RES1   0.0000
   122 H67       1.0773    3.1674   -1.9003   H         1 RES1   0.0000
   123 H68       2.8034    2.8973   -1.5542   H         1 RES1   0.0000
   124 H69       2.5907    3.2206   -3.7704   H         1 RES1   0.0000
   125 H70       4.0755    2.3422   -4.2037   H         1 RES1   0.0000
   126 H71       2.6470    2.2636   -5.2393   H         1 RES1   0.0000
   127 H72       4.0037   -0.0215   -4.3147   H         1 RES1   0.0000
   128 H73       2.7817   -0.9150   -3.3859   H         1 RES1   0.0000
   129 H74       1.1464   -0.5759   -5.1998   H         1 RES1   0.0000
   130 H75       2.3421    0.3054   -6.1603   H         1 RES1   0.0000
   131 H76       2.7563   -2.5529   -5.2052   H         1 RES1   0.0000
   132 H77       2.0773   -2.1389   -6.7747   H         1 RES1   0.0000
   133 H78       4.0571   -0.9375   -7.4310   H         1 RES1   0.0000
   134 H79       4.8556   -1.2379   -5.8936   H         1 RES1   0.0000
   135 H80       3.8846   -3.6174   -7.4626   H         1 RES1   0.0000
   136 H81       5.3024   -2.7564   -8.0369   H         1 RES1   0.0000
   137 H82       6.0778   -4.5455   -6.6991   H         1 RES1   0.0000
   138 H83       6.4048   -3.0499   -5.8331   H         1 RES1   0.0000
   139 H84       4.5036   -3.4766   -4.3218   H         1 RES1   0.0000
   140 H85       4.0421   -4.8944   -5.2803   H         1 RES1   0.0000
   141 H86       6.6606   -4.5534   -3.7368   H         1 RES1   0.0000
   142 H87       5.3160   -5.6009   -3.2678   H         1 RES1   0.0000
   143 H88       6.2433   -5.9552   -4.7182   H         1 RES1   0.0000
   144 C45      -3.5790   -7.3633   -2.6662   C.3       1 RES1   0.0000
   145 C46      -3.0055   -7.1795   -1.2666   C.3       1 RES1   0.0000
   146 C47      -1.4780   -7.1080   -1.2766   C.3       1 RES1   0.0000
   147 C48      -0.8989   -6.9727    0.1352   C.3       1 RES1   0.0000
   148 C49       0.6128   -7.1936    0.2603   C.3       1 RES1   0.0000
   149 C50       1.4969   -5.9909   -0.0806   C.3       1 RES1   0.0000
   150 C51       1.6261   -5.7520   -1.5811   C.3       1 RES1   0.0000
   151 C52       2.6338   -4.6491   -1.9408   C.3       1 RES1   0.0000
   152 N5        2.6519   -3.5108   -1.0307   N.am      1 RES1   0.0000
   153 C53       3.8390   -3.2785   -0.2251   C.3       1 RES1   0.0000
   154 C54       1.6370   -2.6800   -0.8302   C.2       1 RES1   0.0000
   155 O7        1.6607   -1.7945    0.0421   O.2       1 RES1   0.0000
   156 C55       0.3961   -2.7350   -1.7340   C.3       1 RES1   0.0000
   157 O8       -0.7196   -2.2013   -1.0239   O.3       1 RES1   0.0000
   158 C56      -1.4287   -3.1875   -0.2683   C.3       1 RES1   0.0000
   159 C57      -1.6378   -2.7240    1.1833   C.2       1 RES1   0.0000
   160 O9       -0.9237   -1.7982    1.6145   O.2       1 RES1   0.0000
   161 N6       -2.5372   -3.3573    1.9236   N.am      1 RES1   0.0000
   162 C58      -3.3736   -4.4526    1.4784   C.3       1 RES1   0.0000
   163 C59      -2.6658   -3.0541    3.3506   C.3       1 RES1   0.0000
   164 C60      -4.1154   -2.8676    3.8111   C.3       1 RES1   0.0000
   165 C61      -4.2151   -2.5303    5.3026   C.3       1 RES1   0.0000
   166 C62      -3.9142   -3.7233    6.2146   C.3       1 RES1   0.0000
   167 C63      -3.5334   -3.2943    7.6393   C.3       1 RES1   0.0000
   168 C64      -2.0232   -3.2267    7.8879   C.3       1 RES1   0.0000
   169 C65      -1.2968   -2.2035    7.0179   C.3       1 RES1   0.0000
   170 C66       0.2080   -2.1968    7.2624   C.3       1 RES1   0.0000
   171 H89      -4.6649   -7.3476   -2.6282   H         1 RES1   0.0000
   172 H90      -3.2406   -6.5709   -3.3323   H         1 RES1   0.0000
   173 H91      -3.2692   -8.3155   -3.0866   H         1 RES1   0.0000
   174 H92      -3.4146   -6.2615   -0.8335   H         1 RES1   0.0000
   175 H93      -3.3252   -8.0063   -0.6318   H         1 RES1   0.0000
   176 H94      -1.0863   -8.0222   -1.7248   H         1 RES1   0.0000
   177 H95      -1.1828   -6.2742   -1.9211   H         1 RES1   0.0000
   178 H96      -1.1518   -5.9987    0.5636   H         1 RES1   0.0000
   179 H97      -1.3941   -7.7262    0.7511   H         1 RES1   0.0000
   180 H98       0.8207   -7.4790    1.2921   H         1 RES1   0.0000
   181 H99       0.8953   -8.0413   -0.3608   H         1 RES1   0.0000
   182 H100      1.1034   -5.1007    0.4227   H         1 RES1   0.0000
   183 H101      2.4916   -6.1769    0.3238   H         1 RES1   0.0000
   184 H102      1.9668   -6.6701   -2.0602   H         1 RES1   0.0000
   185 H103      0.6439   -5.5444   -1.9990   H         1 RES1   0.0000
   186 H104      3.6320   -5.0844   -1.9122   H         1 RES1   0.0000
   187 H105      2.4529   -4.3059   -2.9632   H         1 RES1   0.0000
   188 H106      4.5898   -4.0315   -0.4309   H         1 RES1   0.0000
   189 H107      4.2498   -2.2938   -0.4481   H         1 RES1   0.0000
   190 H108      3.5873   -3.2989    0.8331   H         1 RES1   0.0000
   191 H109      0.5716   -2.0515   -2.5749   H         1 RES1   0.0000
   192 H110      0.1606   -3.7263   -2.1287   H         1 RES1   0.0000
   193 H111     -2.3876   -3.3521   -0.7735   H         1 RES1   0.0000
   194 H112     -0.8570   -4.1246   -0.2490   H         1 RES1   0.0000
   195 H113     -3.1953   -4.7128    0.4439   H         1 RES1   0.0000
   196 H114     -3.1756   -5.3340    2.0918   H         1 RES1   0.0000
   197 H115     -4.4267   -4.1868    1.5802   H         1 RES1   0.0000
   198 H116     -2.2144   -3.8825    3.9024   H         1 RES1   0.0000
   199 H117     -2.0872   -2.1512    3.5423   H         1 RES1   0.0000
   200 H118     -4.5657   -2.0609    3.2285   H         1 RES1   0.0000
   201 H119     -4.6868   -3.7812    3.6474   H         1 RES1   0.0000
   202 H120     -3.5513   -1.7042    5.5405   H         1 RES1   0.0000
   203 H121     -5.2281   -2.1850    5.5153   H         1 RES1   0.0000
   204 H122     -4.8049   -4.3507    6.2512   H         1 RES1   0.0000
   205 H123     -3.1064   -4.3319    5.8044   H         1 RES1   0.0000
   206 H124     -3.9805   -2.3234    7.8559   H         1 RES1   0.0000
   207 H125     -3.9546   -4.0010    8.3549   H         1 RES1   0.0000
   208 H126     -1.8584   -2.9747    8.9376   H         1 RES1   0.0000
   209 H127     -1.5892   -4.2142    7.7149   H         1 RES1   0.0000
   210 H128     -1.4701   -2.4361    5.9655   H         1 RES1   0.0000
   211 H129     -1.7029   -1.2107    7.2246   H         1 RES1   0.0000
   212 H130      0.6276   -3.1812    7.0661   H         1 RES1   0.0000
   213 H131      0.6978   -1.4782    6.6059   H         1 RES1   0.0000
   214 H132      0.4362   -1.9279    8.2901   H         1 RES1   0.0000
@<TRIPOS>BOND
     1     1    13    1
     2     1    15    1
     3     1    18    1
     4     1    84    1
     5     1    86    1
     6     1    89    1
     7     1   155    1
     8     1   157    1
     9     1   160    1
    10     2     3    1
    11     2    29    1
    12     2    30    1
    13     2    31    1
    14     3     4    1
    15     3    32    1
    16     3    33    1
    17     4     5    1
    18     4    34    1
    19     4    35    1
    20     5     6    1
    21     5    36    1
    22     5    37    1
    23     6     7    1
    24     6    38    1
    25     6    39    1
    26     7     8    1
    27     7    40    1
    28     7    41    1
    29     8     9    1
    30     8    42    1
    31     8    43    1
    32     9    10    1
    33     9    44    1
    34     9    45    1
    35    10    11    1
    36    10    12    1
    37    11    46    1
    38    11    47    1
    39    11    48    1
    40    12    13    2
    41    12    14    1
    42    14    15    1
    43    14    49    1
    44    14    50    1
    45    15    16    1
    46    16    17    1
    47    16    51    1
    48    16    52    1
    49    17    18    2
    50    17    19    1
    51    19    20    1
    52    19    21    1
    53    20    53    1
    54    20    54    1
    55    20    55    1
    56    21    22    1
    57    21    56    1
    58    21    57    1
    59    22    23    1
    60    22    58    1
    61    22    59    1
    62    23    24    1
    63    23    60    1
    64    23    61    1
    65    24    25    1
    66    24    62    1
    67    24    63    1
    68    25    26    1
    69    25    64    1
    70    25    65    1
    71    26    27    1
    72    26    66    1
    73    26    67    1
    74    27    28    1
    75    27    68    1
    76    27    69    1
    77    28    70    1
    78    28    71    1
    79    28    72    1
    80    73    74    1
    81    73   100    1
    82    73   101    1
    83    73   102    1
    84    74    75    1
    85    74   103    1
    86    74   104    1
    87    75    76    1
    88    75   105    1
    89    75   106    1
    90    76    77    1
    91    76   107    1
    92    76   108    1
    93    77    78    1
    94    77   109    1
    95    77   110    1
    96    78    79    1
    97    78   111    1
    98    78   112    1
    99    79    80    1
   100    79   113    1
   101    79   114    1
   102    80    81    1
   103    80   115    1
   104    80   116    1
   105    81    82    1
   106    81    83    1
   107    82   117    1
   108    82   118    1
   109    82   119    1
   110    83    84    2
   111    83    85    1
   112    85    86    1
   113    85   120    1
   114    85   121    1
   115    86    87    1
   116    87    88    1
   117    87   122    1
   118    87   123    1
   119    88    89    2
   120    88    90    1
   121    90    91    1
   122    90    92    1
   123    91   124    1
   124    91   125    1
   125    91   126    1
   126    92    93    1
   127    92   127    1
   128    92   128    1
   129    93    94    1
   130    93   129    1
   131    93   130    1
   132    94    95    1
   133    94   131    1
   134    94   132    1
   135    95    96    1
   136    95   133    1
   137    95   134    1
   138    96    97    1
   139    96   135    1
   140    96   136    1
   141    97    98    1
   142    97   137    1
   143    97   138    1
   144    98    99    1
   145    98   139    1
   146    98   140    1
   147    99   141    1
   148    99   142    1
   149    99   143    1
   150   144   145    1
   151   144   171    1
   152   144   172    1
   153   144   173    1
   154   145   146    1
   155   145   174    1
   156   145   175    1
   157   146   147    1
   158   146   176    1
   159   146   177    1
   160   147   148    1
   161   147   178    1
   162   147   179    1
   163   148   149    1
   164   148   180    1
   165   148   181    1
   166   149   150    1
   167   149   182    1
   168   149   183    1
   169   150   151    1
   170   150   184    1
   171   150   185    1
   172   151   152    1
   173   151   186    1
   174   151   187    1
   175   152   153    1
   176   152   154    1
   177   153   188    1
   178   153   189    1
   179   153   190    1
   180   154   155    2
   181   154   156    1
   182   156   157    1
   183   156   191    1
   184   156   192    1
   185   157   158    1
   186   158   159    1
   187   158   193    1
   188   158   194    1
   189   159   160    2
   190   159   161    1
   191   161   162    1
   192   161   163    1
   193   162   195    1
   194   162   196    1
   195   162   197    1
   196   163   164    1
   197   163   198    1
   198   163   199    1
   199   164   165    1
   200   164   200    1
   201   164   201    1
   202   165   166    1
   203   165   202    1
   204   165   203    1
   205   166   167    1
   206   166   204    1
   207   166   205    1
   208   167   168    1
   209   167   206    1
   210   167   207    1
   211   168   169    1
   212   168   208    1
   213   168   209    1
   214   169   170    1
   215   169   210    1
   216   169   211    1
   217   170   212    1
   218   170   213    1
   219   170   214    1
@<TRIPOS>SUBSTRUCTURE
     1 RES1      214 GROUP             0 ****  ****    0  
