@<TRIPOS>MOLECULE
am_c3_9H2O_c0_0_nunpairedes_0_charge_2 Charge: 2 Unpaired_Electrons: 1 XTB_Unpaired_Electrons: 0 XTB_Charge: 2
    60    69     1     0     0
SMALL
NoCharges
****
Generated from Architector

@<TRIPOS>ATOM
     1 Ce1       0.0319   -0.2206    0.2650   Ce        1 RES1   0.0000
     2 C1        4.0380    2.6453    1.5522   C.ar      1 RES1   0.0000
     3 C2        4.0925    1.9202    0.3704   C.ar      1 RES1   0.0000
     4 C3        2.9169    1.3695   -0.1356   C.ar      1 RES1   0.0000
     5 N1        1.7471    1.4887    0.5021   N.ar      1 RES1   0.0000
     6 C4        1.6985    2.1785    1.6532   C.ar      1 RES1   0.0000
     7 C5        2.8173    2.7936    2.2012   C.ar      1 RES1   0.0000
     8 C6        0.3421    2.1709    2.3434   C.3       1 RES1   0.0000
     9 O1       -0.7032    1.8829    1.4128   O.3       1 RES1   0.0000
    10 C7       -1.1673    2.9826    0.6683   C.ar      1 RES1   0.0000
    11 C8       -1.3436    4.2624    1.1811   C.ar      1 RES1   0.0000
    12 C9       -1.8815    5.2697    0.3984   C.ar      1 RES1   0.0000
    13 C10      -2.2479    5.0158   -0.9105   C.ar      1 RES1   0.0000
    14 C11      -2.0688    3.7486   -1.4357   C.ar      1 RES1   0.0000
    15 C12      -1.5410    2.7290   -0.6569   C.ar      1 RES1   0.0000
    16 O2       -1.3405    1.4368   -1.1794   O.3       1 RES1   0.0000
    17 C13      -2.5361    0.8484   -1.7232   C.3       1 RES1   0.0000
    18 C14      -3.2649    0.0959   -0.5993   C.3       1 RES1   0.0000
    19 O3       -2.3816   -0.8203    0.0560   O.3       1 RES1   0.0000
    20 C15      -2.4646   -2.1716   -0.3931   C.3       1 RES1   0.0000
    21 C16      -1.6904   -2.4023   -1.7124   C.3       1 RES1   0.0000
    22 O4       -0.5831   -1.4929   -1.7496   O.3       1 RES1   0.0000
    23 C17       0.3523   -1.6922   -2.7720   C.ar      1 RES1   0.0000
    24 C18       0.1860   -2.5821   -3.8212   C.ar      1 RES1   0.0000
    25 C19       1.1632   -2.7060   -4.7993   C.ar      1 RES1   0.0000
    26 C20       2.2974   -1.9250   -4.7405   C.ar      1 RES1   0.0000
    27 C21       2.4807   -1.0401   -3.6878   C.ar      1 RES1   0.0000
    28 C22       1.5236   -0.9178   -2.6951   C.ar      1 RES1   0.0000
    29 O5        1.6360   -0.0657   -1.5864   O.3       1 RES1   0.0000
    30 C23       2.9101    0.5608   -1.4167   C.3       1 RES1   0.0000
    31 H1        4.9323    3.0793    1.9743   H         1 RES1   0.0000
    32 H2        5.0248    1.7929   -0.1572   H         1 RES1   0.0000
    33 H3        2.7428    3.3601    3.1186   H         1 RES1   0.0000
    34 H4        0.1684    3.1174    2.8605   H         1 RES1   0.0000
    35 H5        0.3108    1.3659    3.0948   H         1 RES1   0.0000
    36 H6       -1.0891    4.5030    2.2002   H         1 RES1   0.0000
    37 H7       -2.0028    6.2509    0.8282   H         1 RES1   0.0000
    38 H8       -2.6723    5.7909   -1.5260   H         1 RES1   0.0000
    39 H9       -2.3374    3.5647   -2.4633   H         1 RES1   0.0000
    40 H10      -2.2127    0.1921   -2.5384   H         1 RES1   0.0000
    41 H11      -3.2061    1.6073   -2.1360   H         1 RES1   0.0000
    42 H12      -4.1485   -0.4183   -0.9880   H         1 RES1   0.0000
    43 H13      -3.5779    0.8148    0.1713   H         1 RES1   0.0000
    44 H14      -3.5117   -2.4760   -0.5109   H         1 RES1   0.0000
    45 H15      -2.0373   -2.7858    0.4104   H         1 RES1   0.0000
    46 H16      -2.3329   -2.2314   -2.5869   H         1 RES1   0.0000
    47 H17      -1.3301   -3.4371   -1.7187   H         1 RES1   0.0000
    48 H18      -0.6833   -3.2111   -3.9019   H         1 RES1   0.0000
    49 H19       1.0245   -3.4242   -5.5901   H         1 RES1   0.0000
    50 H20       3.0594   -1.9907   -5.4977   H         1 RES1   0.0000
    51 H21       3.3922   -0.4712   -3.6542   H         1 RES1   0.0000
    52 H22       3.1259    1.2282   -2.2660   H         1 RES1   0.0000
    53 H23       3.6945   -0.2091   -1.3658   H         1 RES1   0.0000
    54 N2        0.2940   -2.3716    1.4053   N.3       1 RES1   0.0000
    55 O6        0.3302   -3.4388    1.9190   O.2       1 RES1   0.0000
    56 O7       -0.3387   -1.4235    1.9161   O.co2     1 RES1   0.0000
    57 O8        0.8742   -2.1438    0.3286   O.co2     1 RES1   0.0000
    58 O9        2.2119   -0.5965    2.1412   O.3       1 RES1   0.0000
    59 H24       3.0256   -1.0661    1.9118   H         1 RES1   0.0000
    60 H25       2.0995   -0.7410    3.0912   H         1 RES1   0.0000
@<TRIPOS>BOND
     1     1     5    1
     2     1     9    1
     3     1    16    1
     4     1    19    1
     5     1    22    1
     6     1    29    1
     7     1    56    1
     8     1    57    1
     9     1    58    1
    10     2     3    1
    11     2     7    2
    12     2    31    1
    13     3     4    2
    14     3    32    1
    15     4     5    1
    16     4    30    1
    17     5     6    2
    18     6     7    1
    19     6     8    1
    20     7    33    1
    21     8     9    1
    22     8    34    1
    23     8    35    1
    24     9    10    1
    25    10    11    1
    26    10    15    2
    27    11    12    2
    28    11    36    1
    29    12    13    1
    30    12    37    1
    31    13    14    2
    32    13    38    1
    33    14    15    1
    34    14    39    1
    35    15    16    1
    36    16    17    1
    37    17    18    1
    38    17    40    1
    39    17    41    1
    40    18    19    1
    41    18    42    1
    42    18    43    1
    43    19    20    1
    44    20    21    1
    45    20    44    1
    46    20    45    1
    47    21    22    1
    48    21    46    1
    49    21    47    1
    50    22    23    1
    51    23    24    1
    52    23    28    2
    53    24    25    2
    54    24    48    1
    55    25    26    1
    56    25    49    1
    57    26    27    2
    58    26    50    1
    59    27    28    1
    60    27    51    1
    61    28    29    1
    62    29    30    1
    63    30    52    1
    64    30    53    1
    65    54    55    2
    66    54    56    1
    67    54    57    1
    68    58    59    1
    69    58    60    1
@<TRIPOS>SUBSTRUCTURE
     1 RES1       60 GROUP             0 ****  ****    0  
