@<TRIPOS>MOLECULE
am_c3_9H2O_c0_0_nunpairedes_0_charge_3 Charge: 3 Unpaired_Electrons: 1 XTB_Unpaired_Electrons: 0 XTB_Charge: 3
   172   186     1     0     0
SMALL
NoCharges
****
Generated from Architector

@<TRIPOS>ATOM
     1 Ce1      -0.1412   -0.0247    0.0196   Ce        1 RES1   0.0000
     2 C1       -0.8499    3.0025   -4.3858   C.3       1 RES1   0.0000
     3 C2       -1.6479    3.3324   -3.1304   C.3       1 RES1   0.0000
     4 N1       -2.6168    2.2984   -2.7547   N.am      1 RES1   0.0000
     5 C3       -2.2820    1.4329   -1.7946   C.2       1 RES1   0.0000
     6 O1       -1.1075    1.4150   -1.3891   O.2       1 RES1   0.0000
     7 C4       -3.2606    0.5328   -1.0689   C.ar      1 RES1   0.0000
     8 C5       -4.6267    0.3704   -1.2940   C.ar      1 RES1   0.0000
     9 C6       -5.3112   -0.5302   -0.4867   C.ar      1 RES1   0.0000
    10 C7       -4.6629   -1.2115    0.5393   C.ar      1 RES1   0.0000
    11 C8       -3.3091   -0.9385    0.7534   C.ar      1 RES1   0.0000
    12 C9       -2.3548   -1.5759    1.7596   C.2       1 RES1   0.0000
    13 O2       -1.1363   -1.4578    1.5165   O.2       1 RES1   0.0000
    14 N2       -2.7342   -2.2975    2.8276   N.am      1 RES1   0.0000
    15 C10      -4.0578   -2.2809    3.4353   C.3       1 RES1   0.0000
    16 C11      -4.7822   -3.6159    3.2657   C.3       1 RES1   0.0000
    17 C12      -1.8086   -3.2984    3.3085   C.ar      1 RES1   0.0000
    18 C13      -1.2014   -4.0904    2.3308   C.ar      1 RES1   0.0000
    19 C14      -0.3396   -5.1146    2.6600   C.ar      1 RES1   0.0000
    20 C15      -0.0938   -5.4078    3.9888   C.ar      1 RES1   0.0000
    21 C16      -0.6999   -4.6397    4.9560   C.ar      1 RES1   0.0000
    22 C17      -1.5297   -3.5597    4.6538   C.ar      1 RES1   0.0000
    23 C18      -2.0210   -2.7430    5.8089   C.3       1 RES1   0.0000
    24 N3       -2.6549   -0.1170   -0.0701   N.ar      1 RES1   0.0000
    25 C19      -3.8118    2.2761   -3.5288   C.ar      1 RES1   0.0000
    26 C20      -4.7658    3.2563   -3.2896   C.ar      1 RES1   0.0000
    27 C21      -5.9167    3.2999   -4.0542   C.ar      1 RES1   0.0000
    28 C22      -6.0911    2.3578   -5.0562   C.ar      1 RES1   0.0000
    29 C23      -5.1365    1.3832   -5.2953   C.ar      1 RES1   0.0000
    30 C24      -3.9696    1.3275   -4.5415   C.ar      1 RES1   0.0000
    31 C25      -2.9071    0.3118   -4.8225   C.3       1 RES1   0.0000
    32 H1       -0.1429    3.8035   -4.5834   H         1 RES1   0.0000
    33 H2       -1.5011    2.9293   -5.2522   H         1 RES1   0.0000
    34 H3       -0.3058    2.0700   -4.2528   H         1 RES1   0.0000
    35 H4       -2.2009    4.2628   -3.2904   H         1 RES1   0.0000
    36 H5       -0.9685    3.4492   -2.2824   H         1 RES1   0.0000
    37 H6       -5.1392    0.8919   -2.0854   H         1 RES1   0.0000
    38 H7       -6.3640   -0.7158   -0.6593   H         1 RES1   0.0000
    39 H8       -5.2194   -1.9463    1.1053   H         1 RES1   0.0000
    40 H9       -4.6152   -1.4352    3.0371   H         1 RES1   0.0000
    41 H10      -3.9365   -2.0687    4.4956   H         1 RES1   0.0000
    42 H11      -4.8452   -3.9106    2.2212   H         1 RES1   0.0000
    43 H12      -5.7904   -3.5579    3.6680   H         1 RES1   0.0000
    44 H13      -4.2539   -4.4099    3.7888   H         1 RES1   0.0000
    45 H14      -1.4178   -3.8894    1.2907   H         1 RES1   0.0000
    46 H15       0.1237   -5.7041    1.8885   H         1 RES1   0.0000
    47 H16       0.5577   -6.2199    4.2605   H         1 RES1   0.0000
    48 H17      -0.5175   -4.8568    5.9941   H         1 RES1   0.0000
    49 H18      -1.3461   -2.8628    6.6559   H         1 RES1   0.0000
    50 H19      -3.0043   -3.0857    6.1329   H         1 RES1   0.0000
    51 H20      -2.0686   -1.6897    5.5456   H         1 RES1   0.0000
    52 H21      -4.5862    3.9666   -2.4954   H         1 RES1   0.0000
    53 H22      -6.6618    4.0625   -3.8772   H         1 RES1   0.0000
    54 H23      -6.9812    2.3927   -5.6584   H         1 RES1   0.0000
    55 H24      -5.2915    0.6585   -6.0817   H         1 RES1   0.0000
    56 H25      -3.2599   -0.3905   -5.5691   H         1 RES1   0.0000
    57 H26      -2.6158   -0.2316   -3.9227   H         1 RES1   0.0000
    58 H27      -2.0171    0.7954   -5.2172   H         1 RES1   0.0000
    59 C26       2.9058    1.0261    4.4600   C.3       1 RES1   0.0000
    60 C27       3.5332    0.5239    3.1715   C.3       1 RES1   0.0000
    61 N4        3.0948   -0.8323    2.8313   N.am      1 RES1   0.0000
    62 C28       2.2624   -1.0044    1.8133   C.2       1 RES1   0.0000
    63 O3        1.6968   -0.0109    1.3083   O.2       1 RES1   0.0000
    64 C29       2.0237   -2.3372    1.1347   C.ar      1 RES1   0.0000
    65 C30       2.5938   -3.5828    1.4038   C.ar      1 RES1   0.0000
    66 C31       2.1962   -4.6612    0.6214   C.ar      1 RES1   0.0000
    67 C32       1.2740   -4.4945   -0.4051   C.ar      1 RES1   0.0000
    68 C33       0.8109   -3.2032   -0.6632   C.ar      1 RES1   0.0000
    69 C34      -0.2334   -2.7667   -1.6710   C.2       1 RES1   0.0000
    70 O4       -0.7745   -1.6636   -1.4525   O.2       1 RES1   0.0000
    71 N5       -0.6788   -3.5087   -2.6939   N.am      1 RES1   0.0000
    72 C35      -0.0333   -4.6617   -3.3059   C.3       1 RES1   0.0000
    73 C36      -0.9569   -5.8744   -3.2616   C.3       1 RES1   0.0000
    74 C37      -2.0299   -3.2197   -3.1118   C.ar      1 RES1   0.0000
    75 C38      -2.9925   -3.1704   -2.1033   C.ar      1 RES1   0.0000
    76 C39      -4.3212   -2.9592   -2.4046   C.ar      1 RES1   0.0000
    77 C40      -4.7157   -2.8189   -3.7233   C.ar      1 RES1   0.0000
    78 C41      -3.7675   -2.8690   -4.7219   C.ar      1 RES1   0.0000
    79 C42      -2.4147   -3.0441   -4.4409   C.ar      1 RES1   0.0000
    80 C43      -1.4204   -3.0242   -5.5543   C.3       1 RES1   0.0000
    81 N6        1.1764   -2.1820    0.1135   N.ar      1 RES1   0.0000
    82 C44       3.6004   -1.8484    3.6889   C.ar      1 RES1   0.0000
    83 C45       4.9462   -2.1675    3.5683   C.ar      1 RES1   0.0000
    84 C46       5.5377   -3.0241    4.4747   C.ar      1 RES1   0.0000
    85 C47       4.7625   -3.5774    5.4815   C.ar      1 RES1   0.0000
    86 C48       3.4092   -3.3018    5.5633   C.ar      1 RES1   0.0000
    87 C49       2.8009   -2.4127    4.6840   C.ar      1 RES1   0.0000
    88 C50       1.3622   -2.0394    4.8495   C.3       1 RES1   0.0000
    89 H28       3.2534    2.0299    4.6745   H         1 RES1   0.0000
    90 H29       3.1783    0.3828    5.2911   H         1 RES1   0.0000
    91 H30       1.8261    1.0576    4.3631   H         1 RES1   0.0000
    92 H31       4.6219    0.4986    3.2692   H         1 RES1   0.0000
    93 H32       3.2618    1.1700    2.3350   H         1 RES1   0.0000
    94 H33       3.3046   -3.7336    2.1995   H         1 RES1   0.0000
    95 H34       2.5826   -5.6537    0.8151   H         1 RES1   0.0000
    96 H35       0.9111   -5.3673   -0.9305   H         1 RES1   0.0000
    97 H36       0.9205   -4.8371   -2.8156   H         1 RES1   0.0000
    98 H37       0.2115   -4.4220   -4.3417   H         1 RES1   0.0000
    99 H38      -1.1928   -6.1448   -2.2362   H         1 RES1   0.0000
   100 H39      -0.4910   -6.7244   -3.7487   H         1 RES1   0.0000
   101 H40      -1.8953   -5.6623   -3.7699   H         1 RES1   0.0000
   102 H41      -2.6854   -3.2994   -1.0725   H         1 RES1   0.0000
   103 H42      -5.0549   -2.9276   -1.6168   H         1 RES1   0.0000
   104 H43      -5.7535   -2.6751   -3.9644   H         1 RES1   0.0000
   105 H44      -4.0655   -2.7572   -5.7508   H         1 RES1   0.0000
   106 H45      -1.8140   -2.4768   -6.4064   H         1 RES1   0.0000
   107 H46      -1.2179   -4.0431   -5.8847   H         1 RES1   0.0000
   108 H47      -0.4999   -2.5524   -5.2159   H         1 RES1   0.0000
   109 H48       5.5057   -1.7250    2.7569   H         1 RES1   0.0000
   110 H49       6.5902   -3.2472    4.3989   H         1 RES1   0.0000
   111 H50       5.2240   -4.2253    6.2051   H         1 RES1   0.0000
   112 H51       2.8135   -3.7713    6.3306   H         1 RES1   0.0000
   113 H52       0.8929   -2.7150    5.5560   H         1 RES1   0.0000
   114 H53       0.8239   -2.0810    3.9026   H         1 RES1   0.0000
   115 H54       1.2772   -1.0291    5.2451   H         1 RES1   0.0000
   116 C51      -1.6811    5.7646    2.9605   C.3       1 RES1   0.0000
   117 C52      -0.8301    4.5609    3.3637   C.3       1 RES1   0.0000
   118 N7       -1.2125    3.3354    2.6781   N.am      1 RES1   0.0000
   119 C53      -0.6179    2.6939    1.6741   C.2       1 RES1   0.0000
   120 O5       -1.0108    1.5439    1.3954   O.2       1 RES1   0.0000
   121 C54       0.4484    3.2688    0.7753   C.ar      1 RES1   0.0000
   122 C55       0.7561    4.6110    0.5538   C.ar      1 RES1   0.0000
   123 C56       1.6827    4.9052   -0.4397   C.ar      1 RES1   0.0000
   124 C57       2.2312    3.8931   -1.2202   C.ar      1 RES1   0.0000
   125 C58       1.8307    2.5791   -0.9708   C.ar      1 RES1   0.0000
   126 C59       2.0586    1.3359   -1.8087   C.2       1 RES1   0.0000
   127 O6        1.3478    0.3461   -1.5481   O.2       1 RES1   0.0000
   128 N8        2.8800    1.2373   -2.8531   N.am      1 RES1   0.0000
   129 C60       3.9474    2.1132   -3.2981   C.3       1 RES1   0.0000
   130 C61       3.5204    3.0732   -4.4087   C.3       1 RES1   0.0000
   131 C62       2.6699    0.0469   -3.6436   C.ar      1 RES1   0.0000
   132 C63       1.9587    0.1840   -4.8258   C.ar      1 RES1   0.0000
   133 C64       1.8000   -0.8969   -5.6702   C.ar      1 RES1   0.0000
   134 C65       2.2807   -2.1377   -5.2909   C.ar      1 RES1   0.0000
   135 C66       2.9017   -2.2880   -4.0665   C.ar      1 RES1   0.0000
   136 C67       3.1442   -1.1962   -3.2393   C.ar      1 RES1   0.0000
   137 C68       3.9334   -1.3698   -1.9817   C.3       1 RES1   0.0000
   138 N9        0.9842    2.3093    0.0217   N.ar      1 RES1   0.0000
   139 C69      -2.3852    2.6893    3.2176   C.ar      1 RES1   0.0000
   140 C70      -3.6255    3.2101    2.8782   C.ar      1 RES1   0.0000
   141 C71      -4.7614    2.7640    3.5260   C.ar      1 RES1   0.0000
   142 C72      -4.6588    1.7728    4.4849   C.ar      1 RES1   0.0000
   143 C73      -3.4389    1.1663    4.7146   C.ar      1 RES1   0.0000
   144 C74      -2.2805    1.6078    4.0857   C.ar      1 RES1   0.0000
   145 C75      -0.9638    0.9385    4.3215   C.3       1 RES1   0.0000
   146 H55      -1.2077    6.6776    3.3058   H         1 RES1   0.0000
   147 H56      -2.6706    5.7188    3.4054   H         1 RES1   0.0000
   148 H57      -1.8009    5.8221    1.8823   H         1 RES1   0.0000
   149 H58      -0.9656    4.3743    4.4323   H         1 RES1   0.0000
   150 H59       0.2336    4.7438    3.2053   H         1 RES1   0.0000
   151 H60       0.2707    5.4111    1.0871   H         1 RES1   0.0000
   152 H61       1.9506    5.9330   -0.6450   H         1 RES1   0.0000
   153 H62       2.9114    4.1540   -2.0151   H         1 RES1   0.0000
   154 H63       4.7343    1.4539   -3.6696   H         1 RES1   0.0000
   155 H64       4.3563    2.6388   -2.4339   H         1 RES1   0.0000
   156 H65       3.4138    2.5517   -5.3557   H         1 RES1   0.0000
   157 H66       4.2747    3.8444   -4.5267   H         1 RES1   0.0000
   158 H67       2.5726    3.5526   -4.1792   H         1 RES1   0.0000
   159 H68       1.5499    1.1464   -5.0860   H         1 RES1   0.0000
   160 H69       1.3123   -0.7635   -6.6212   H         1 RES1   0.0000
   161 H70       2.1882   -2.9737   -5.9634   H         1 RES1   0.0000
   162 H71       3.2394   -3.2600   -3.7467   H         1 RES1   0.0000
   163 H72       4.9072   -1.7911   -2.2268   H         1 RES1   0.0000
   164 H73       3.4175   -2.0538   -1.3105   H         1 RES1   0.0000
   165 H74       4.0778   -0.4249   -1.4637   H         1 RES1   0.0000
   166 H75      -3.6899    3.9709    2.1171   H         1 RES1   0.0000
   167 H76      -5.7155    3.2084    3.2997   H         1 RES1   0.0000
   168 H77      -5.5277    1.4840    5.0501   H         1 RES1   0.0000
   169 H78      -3.3692    0.3521    5.4151   H         1 RES1   0.0000
   170 H79      -0.7573    0.8614    5.3863   H         1 RES1   0.0000
   171 H80      -0.1584    1.4922    3.8448   H         1 RES1   0.0000
   172 H81      -0.9837   -0.0597    3.8802   H         1 RES1   0.0000
@<TRIPOS>BOND
     1     1     6    1
     2     1    13    1
     3     1    24    1
     4     1    63    1
     5     1    70    1
     6     1    81    1
     7     1   120    1
     8     1   127    1
     9     1   138    1
    10     2     3    1
    11     2    32    1
    12     2    33    1
    13     2    34    1
    14     3     4    1
    15     3    35    1
    16     3    36    1
    17     4     5    1
    18     4    25    1
    19     5     6    2
    20     5     7    1
    21     7     8    1
    22     7    24    2
    23     8     9    2
    24     8    37    1
    25     9    10    1
    26     9    38    1
    27    10    11    2
    28    10    39    1
    29    11    12    1
    30    11    24    1
    31    12    13    2
    32    12    14    1
    33    14    15    1
    34    14    17    1
    35    15    16    1
    36    15    40    1
    37    15    41    1
    38    16    42    1
    39    16    43    1
    40    16    44    1
    41    17    18    1
    42    17    22    2
    43    18    19    2
    44    18    45    1
    45    19    20    1
    46    19    46    1
    47    20    21    2
    48    20    47    1
    49    21    22    1
    50    21    48    1
    51    22    23    1
    52    23    49    1
    53    23    50    1
    54    23    51    1
    55    25    26    1
    56    25    30    2
    57    26    27    2
    58    26    52    1
    59    27    28    1
    60    27    53    1
    61    28    29    2
    62    28    54    1
    63    29    30    1
    64    29    55    1
    65    30    31    1
    66    31    56    1
    67    31    57    1
    68    31    58    1
    69    59    60    1
    70    59    89    1
    71    59    90    1
    72    59    91    1
    73    60    61    1
    74    60    92    1
    75    60    93    1
    76    61    62    1
    77    61    82    1
    78    62    63    2
    79    62    64    1
    80    64    65    1
    81    64    81    2
    82    65    66    2
    83    65    94    1
    84    66    67    1
    85    66    95    1
    86    67    68    2
    87    67    96    1
    88    68    69    1
    89    68    81    1
    90    69    70    2
    91    69    71    1
    92    71    72    1
    93    71    74    1
    94    72    73    1
    95    72    97    1
    96    72    98    1
    97    73    99    1
    98    73   100    1
    99    73   101    1
   100    74    75    1
   101    74    79    2
   102    75    76    2
   103    75   102    1
   104    76    77    1
   105    76   103    1
   106    77    78    2
   107    77   104    1
   108    78    79    1
   109    78   105    1
   110    79    80    1
   111    80   106    1
   112    80   107    1
   113    80   108    1
   114    82    83    1
   115    82    87    2
   116    83    84    2
   117    83   109    1
   118    84    85    1
   119    84   110    1
   120    85    86    2
   121    85   111    1
   122    86    87    1
   123    86   112    1
   124    87    88    1
   125    88   113    1
   126    88   114    1
   127    88   115    1
   128   116   117    1
   129   116   146    1
   130   116   147    1
   131   116   148    1
   132   117   118    1
   133   117   149    1
   134   117   150    1
   135   118   119    1
   136   118   139    1
   137   119   120    2
   138   119   121    1
   139   121   122    1
   140   121   138    2
   141   122   123    2
   142   122   151    1
   143   123   124    1
   144   123   152    1
   145   124   125    2
   146   124   153    1
   147   125   126    1
   148   125   138    1
   149   126   127    2
   150   126   128    1
   151   128   129    1
   152   128   131    1
   153   129   130    1
   154   129   154    1
   155   129   155    1
   156   130   156    1
   157   130   157    1
   158   130   158    1
   159   131   132    1
   160   131   136    2
   161   132   133    2
   162   132   159    1
   163   133   134    1
   164   133   160    1
   165   134   135    2
   166   134   161    1
   167   135   136    1
   168   135   162    1
   169   136   137    1
   170   137   163    1
   171   137   164    1
   172   137   165    1
   173   139   140    1
   174   139   144    2
   175   140   141    2
   176   140   166    1
   177   141   142    1
   178   141   167    1
   179   142   143    2
   180   142   168    1
   181   143   144    1
   182   143   169    1
   183   144   145    1
   184   145   170    1
   185   145   171    1
   186   145   172    1
@<TRIPOS>SUBSTRUCTURE
     1 RES1      172 GROUP             0 ****  ****    0  
