@<TRIPOS>MOLECULE
am_c3_9H2O_c0_0_nunpairedes_0_charge_3 Charge: 3 Unpaired_Electrons: 1 XTB_Unpaired_Electrons: 0 XTB_Charge: 3
   214   219     1     0     0
SMALL
NoCharges
****
Generated from Architector

@<TRIPOS>ATOM
     1 Ce1       0.1095   -0.0581   -0.1910   Ce        1 RES1   0.0000
     2 C1       -8.5822    2.6565    2.4825   C.3       1 RES1   0.0000
     3 C2       -7.3686    1.8466    2.9237   C.3       1 RES1   0.0000
     4 C3       -7.7485    0.4059    3.2588   C.3       1 RES1   0.0000
     5 C4       -6.5780   -0.5381    3.5651   C.3       1 RES1   0.0000
     6 C5       -6.0600   -0.5302    5.0069   C.3       1 RES1   0.0000
     7 C6       -5.2322    0.6654    5.4842   C.3       1 RES1   0.0000
     8 C7       -3.8615    0.8357    4.8027   C.3       1 RES1   0.0000
     9 C8       -3.8794    1.9564    3.7577   C.3       1 RES1   0.0000
    10 N1       -2.5931    2.1897    3.1061   N.am      1 RES1   0.0000
    11 C9       -1.8418    3.3110    3.6382   C.3       1 RES1   0.0000
    12 C10      -2.0988    1.4226    2.1429   C.2       1 RES1   0.0000
    13 O1       -0.9906    1.5886    1.5914   O.2       1 RES1   0.0000
    14 C11      -2.9497    0.2568    1.6234   C.3       1 RES1   0.0000
    15 O2       -2.7052    0.1222    0.2265   O.3       1 RES1   0.0000
    16 C12      -3.3456    1.1517   -0.5229   C.3       1 RES1   0.0000
    17 C13      -2.3433    1.8695   -1.4303   C.2       1 RES1   0.0000
    18 O3       -1.1369    1.5552   -1.4031   O.2       1 RES1   0.0000
    19 N2       -2.8362    2.8091   -2.2250   N.am      1 RES1   0.0000
    20 C14      -4.2531    3.0993   -2.2922   C.3       1 RES1   0.0000
    21 C15      -1.9936    3.4272   -3.2427   C.3       1 RES1   0.0000
    22 C16      -1.9756    4.9609   -3.2192   C.3       1 RES1   0.0000
    23 C17      -0.9042    5.6095   -2.3392   C.3       1 RES1   0.0000
    24 C18      -1.0944    5.3782   -0.8401   C.3       1 RES1   0.0000
    25 C19      -0.4495    6.4556    0.0456   C.3       1 RES1   0.0000
    26 C20       1.0389    6.3020    0.3829   C.3       1 RES1   0.0000
    27 C21       2.0443    6.8409   -0.6470   C.3       1 RES1   0.0000
    28 C22       2.6784    5.7809   -1.5408   C.3       1 RES1   0.0000
    29 H1       -8.2900    3.6796    2.2586   H         1 RES1   0.0000
    30 H2       -9.3308    2.6812    3.2695   H         1 RES1   0.0000
    31 H3       -9.0346    2.2207    1.5940   H         1 RES1   0.0000
    32 H4       -6.9163    2.3336    3.7879   H         1 RES1   0.0000
    33 H5       -6.6336    1.8400    2.1086   H         1 RES1   0.0000
    34 H6       -8.2916    0.0027    2.3992   H         1 RES1   0.0000
    35 H7       -8.4377    0.3951    4.1037   H         1 RES1   0.0000
    36 H8       -5.7577   -0.3664    2.8587   H         1 RES1   0.0000
    37 H9       -6.9427   -1.5523    3.3854   H         1 RES1   0.0000
    38 H10      -5.4576   -1.4310    5.1532   H         1 RES1   0.0000
    39 H11      -6.9268   -0.6199    5.6632   H         1 RES1   0.0000
    40 H12      -5.0668    0.5109    6.5503   H         1 RES1   0.0000
    41 H13      -5.8040    1.5851    5.3861   H         1 RES1   0.0000
    42 H14      -3.5481   -0.1176    4.3723   H         1 RES1   0.0000
    43 H15      -3.1236    1.1039    5.5570   H         1 RES1   0.0000
    44 H16      -4.1659    2.8816    4.2633   H         1 RES1   0.0000
    45 H17      -4.6359    1.7484    3.0052   H         1 RES1   0.0000
    46 H18      -1.7232    3.2072    4.7166   H         1 RES1   0.0000
    47 H19      -2.3607    4.2505    3.4381   H         1 RES1   0.0000
    48 H20      -0.8627    3.3570    3.1739   H         1 RES1   0.0000
    49 H21      -4.0218    0.3566    1.8208   H         1 RES1   0.0000
    50 H22      -2.5874   -0.6596    2.0947   H         1 RES1   0.0000
    51 H23      -3.8071    1.8789    0.1544   H         1 RES1   0.0000
    52 H24      -4.1337    0.6875   -1.1323   H         1 RES1   0.0000
    53 H25      -4.6220    3.5433   -1.3664   H         1 RES1   0.0000
    54 H26      -4.8314    2.1969   -2.4964   H         1 RES1   0.0000
    55 H27      -4.4362    3.8016   -3.1014   H         1 RES1   0.0000
    56 H28      -2.3779    3.0903   -4.2116   H         1 RES1   0.0000
    57 H29      -0.9890    3.0262   -3.1069   H         1 RES1   0.0000
    58 H30      -2.9554    5.3384   -2.9262   H         1 RES1   0.0000
    59 H31      -1.8024    5.3013   -4.2420   H         1 RES1   0.0000
    60 H32      -0.9481    6.6835   -2.5291   H         1 RES1   0.0000
    61 H33       0.0803    5.2704   -2.6628   H         1 RES1   0.0000
    62 H34      -0.7346    4.3854   -0.5448   H         1 RES1   0.0000
    63 H35      -2.1685    5.4056   -0.6420   H         1 RES1   0.0000
    64 H36      -0.9958    6.4663    0.9918   H         1 RES1   0.0000
    65 H37      -0.6042    7.4348   -0.4080   H         1 RES1   0.0000
    66 H38       1.2505    5.2503    0.5955   H         1 RES1   0.0000
    67 H39       1.2019    6.8451    1.3156   H         1 RES1   0.0000
    68 H40       2.8575    7.3243   -0.1062   H         1 RES1   0.0000
    69 H41       1.5664    7.6087   -1.2542   H         1 RES1   0.0000
    70 H42       3.0838    4.9749   -0.9293   H         1 RES1   0.0000
    71 H43       3.4934    6.2185   -2.1104   H         1 RES1   0.0000
    72 H44       1.9680    5.3665   -2.2512   H         1 RES1   0.0000
    73 C23      -3.8623   -0.2136   -5.9799   C.3       1 RES1   0.0000
    74 C24      -2.6622    0.6354   -6.3888   C.3       1 RES1   0.0000
    75 C25      -3.1056    1.9717   -6.9913   C.3       1 RES1   0.0000
    76 C26      -2.0371    2.7620   -7.7617   C.3       1 RES1   0.0000
    77 C27      -1.0636    3.5908   -6.9142   C.3       1 RES1   0.0000
    78 C28      -0.0419    2.7212   -6.1878   C.3       1 RES1   0.0000
    79 C29       0.9524    3.5111   -5.3456   C.3       1 RES1   0.0000
    80 C30       2.0187    2.6332   -4.6638   C.3       1 RES1   0.0000
    81 N3        1.5445    1.4371   -3.9791   N.am      1 RES1   0.0000
    82 C31       1.3296    0.2657   -4.8151   C.3       1 RES1   0.0000
    83 C32       1.5415    1.2395   -2.6671   C.2       1 RES1   0.0000
    84 O4        1.2716    0.1310   -2.1646   O.2       1 RES1   0.0000
    85 C33       1.8644    2.3862   -1.6914   C.3       1 RES1   0.0000
    86 O5        1.6200    1.8221   -0.4072   O.3       1 RES1   0.0000
    87 C34       2.2703    2.4323    0.6923   C.3       1 RES1   0.0000
    88 C35       2.2486    1.3888    1.8206   C.2       1 RES1   0.0000
    89 O6        1.5518    0.3611    1.6801   O.2       1 RES1   0.0000
    90 N4        2.9800    1.6113    2.9005   N.am      1 RES1   0.0000
    91 C36       3.7594    2.8054    3.1322   C.3       1 RES1   0.0000
    92 C37       3.1534    0.5389    3.8843   C.3       1 RES1   0.0000
    93 C38       3.8985   -0.6143    3.2118   C.3       1 RES1   0.0000
    94 C39       4.4506   -1.6938    4.1368   C.3       1 RES1   0.0000
    95 C40       4.9530   -2.9007    3.3308   C.3       1 RES1   0.0000
    96 C41       6.3750   -2.8119    2.7614   C.3       1 RES1   0.0000
    97 C42       6.7253   -1.7678    1.6923   C.3       1 RES1   0.0000
    98 C43       6.0762   -1.9209    0.3084   C.3       1 RES1   0.0000
    99 C44       4.7511   -1.1856    0.1148   C.3       1 RES1   0.0000
   100 H45      -3.5303   -1.1768   -5.5982   H         1 RES1   0.0000
   101 H46      -4.5155   -0.3932   -6.8295   H         1 RES1   0.0000
   102 H47      -4.4452    0.2893   -5.2079   H         1 RES1   0.0000
   103 H48      -2.0764    0.0925   -7.1315   H         1 RES1   0.0000
   104 H49      -2.0331    0.7747   -5.5051   H         1 RES1   0.0000
   105 H50      -3.5396    2.6077   -6.2139   H         1 RES1   0.0000
   106 H51      -3.9018    1.7444   -7.7029   H         1 RES1   0.0000
   107 H52      -2.5583    3.4504   -8.4315   H         1 RES1   0.0000
   108 H53      -1.4721    2.0728   -8.3921   H         1 RES1   0.0000
   109 H54      -1.6337    4.1900   -6.2005   H         1 RES1   0.0000
   110 H55      -0.5400    4.2871   -7.5705   H         1 RES1   0.0000
   111 H56       0.4941    2.1401   -6.9399   H         1 RES1   0.0000
   112 H57      -0.5854    2.0500   -5.5280   H         1 RES1   0.0000
   113 H58       0.4041    4.0964   -4.6074   H         1 RES1   0.0000
   114 H59       1.4902    4.2173   -5.9818   H         1 RES1   0.0000
   115 H60       2.5677    3.2543   -3.9566   H         1 RES1   0.0000
   116 H61       2.7119    2.2846   -5.4337   H         1 RES1   0.0000
   117 H62       2.2778   -0.0404   -5.2552   H         1 RES1   0.0000
   118 H63       0.6278    0.4725   -5.6125   H         1 RES1   0.0000
   119 H64       0.9414   -0.5422   -4.1990   H         1 RES1   0.0000
   120 H65       1.1970    3.2422   -1.8582   H         1 RES1   0.0000
   121 H66       2.9117    2.7104   -1.7834   H         1 RES1   0.0000
   122 H67       1.7170    3.3347    0.9950   H         1 RES1   0.0000
   123 H68       3.3039    2.6989    0.4340   H         1 RES1   0.0000
   124 H69       3.5594    3.5668    2.3875   H         1 RES1   0.0000
   125 H70       4.8268    2.5732    3.1167   H         1 RES1   0.0000
   126 H71       3.5052    3.2171    4.1106   H         1 RES1   0.0000
   127 H72       2.1724    0.2162    4.2410   H         1 RES1   0.0000
   128 H73       3.7271    0.9320    4.7241   H         1 RES1   0.0000
   129 H74       4.7218   -0.1853    2.6441   H         1 RES1   0.0000
   130 H75       3.2126   -1.0876    2.5050   H         1 RES1   0.0000
   131 H76       3.6552   -2.0244    4.8097   H         1 RES1   0.0000
   132 H77       5.2580   -1.3005    4.7552   H         1 RES1   0.0000
   133 H78       4.2392   -3.1054    2.5312   H         1 RES1   0.0000
   134 H79       4.9502   -3.7660    3.9970   H         1 RES1   0.0000
   135 H80       6.6180   -3.7937    2.3480   H         1 RES1   0.0000
   136 H81       7.0549   -2.6511    3.6000   H         1 RES1   0.0000
   137 H82       7.8039   -1.8599    1.5473   H         1 RES1   0.0000
   138 H83       6.5594   -0.7594    2.0700   H         1 RES1   0.0000
   139 H84       5.9570   -2.9821    0.0836   H         1 RES1   0.0000
   140 H85       6.7728   -1.5225   -0.4314   H         1 RES1   0.0000
   141 H86       4.4235   -1.2632   -0.9185   H         1 RES1   0.0000
   142 H87       3.9643   -1.5957    0.7383   H         1 RES1   0.0000
   143 H88       4.8680   -0.1269    0.3480   H         1 RES1   0.0000
   144 C45      -4.3855   -7.6867    1.9389   C.3       1 RES1   0.0000
   145 C46      -4.5629   -6.2514    1.4593   C.3       1 RES1   0.0000
   146 C47      -5.3567   -5.4207    2.4652   C.3       1 RES1   0.0000
   147 C48      -5.5080   -3.9305    2.1319   C.3       1 RES1   0.0000
   148 C49      -6.6441   -3.5785    1.1631   C.3       1 RES1   0.0000
   149 C50      -6.4661   -3.9053   -0.3222   C.3       1 RES1   0.0000
   150 C51      -5.4029   -3.0635   -1.0475   C.3       1 RES1   0.0000
   151 C52      -4.0545   -3.7925   -1.1535   C.3       1 RES1   0.0000
   152 N5       -2.9945   -2.9205   -1.6365   N.am      1 RES1   0.0000
   153 C53      -3.0971   -2.4950   -3.0236   C.3       1 RES1   0.0000
   154 C54      -2.0001   -2.4205   -0.9175   C.2       1 RES1   0.0000
   155 O7       -1.1837   -1.6028   -1.3874   O.2       1 RES1   0.0000
   156 C55      -1.8295   -2.8774    0.5452   C.3       1 RES1   0.0000
   157 O8       -0.9413   -1.9820    1.2329   O.3       1 RES1   0.0000
   158 C56       0.1255   -2.6535    1.9056   C.3       1 RES1   0.0000
   159 C57       1.2470   -2.9518    0.8923   C.2       1 RES1   0.0000
   160 O9        1.4460   -2.0807    0.0259   O.2       1 RES1   0.0000
   161 N6        1.9431   -4.0706    1.0157   N.am      1 RES1   0.0000
   162 C58       1.6190   -5.1027    1.9821   C.3       1 RES1   0.0000
   163 C59       3.1289   -4.3145    0.2049   C.3       1 RES1   0.0000
   164 C60       3.0275   -5.5686   -0.6769   C.3       1 RES1   0.0000
   165 C61       3.2434   -5.2170   -2.1468   C.3       1 RES1   0.0000
   166 C62       2.0740   -4.4197   -2.7215   C.3       1 RES1   0.0000
   167 C63       2.3940   -3.8233   -4.0940   C.3       1 RES1   0.0000
   168 C64       2.9933   -2.4174   -4.0217   C.3       1 RES1   0.0000
   169 C65       4.4711   -2.2992   -3.6563   C.3       1 RES1   0.0000
   170 C66       4.8989   -0.8342   -3.6984   C.3       1 RES1   0.0000
   171 H89      -3.8306   -8.2606    1.2012   H         1 RES1   0.0000
   172 H90      -5.3522   -8.1618    2.0820   H         1 RES1   0.0000
   173 H91      -3.8468   -7.7181    2.8835   H         1 RES1   0.0000
   174 H92      -5.0672   -6.2700    0.4938   H         1 RES1   0.0000
   175 H93      -3.5747   -5.7961    1.3186   H         1 RES1   0.0000
   176 H94      -4.8508   -5.5047    3.4310   H         1 RES1   0.0000
   177 H95      -6.3518   -5.8495    2.5889   H         1 RES1   0.0000
   178 H96      -4.5567   -3.5196    1.7746   H         1 RES1   0.0000
   179 H97      -5.7296   -3.4182    3.0731   H         1 RES1   0.0000
   180 H98      -6.8368   -2.5046    1.2399   H         1 RES1   0.0000
   181 H99      -7.5420   -4.0877    1.5181   H         1 RES1   0.0000
   182 H100     -7.4340   -3.7246   -0.7909   H         1 RES1   0.0000
   183 H101     -6.2498   -4.9615   -0.4585   H         1 RES1   0.0000
   184 H102     -5.2743   -2.1115   -0.5259   H         1 RES1   0.0000
   185 H103     -5.7610   -2.8428   -2.0522   H         1 RES1   0.0000
   186 H104     -4.1579   -4.6293   -1.8505   H         1 RES1   0.0000
   187 H105     -3.7939   -4.2045   -0.1847   H         1 RES1   0.0000
   188 H106     -3.9008   -3.0439   -3.5054   H         1 RES1   0.0000
   189 H107     -2.1606   -2.7002   -3.5411   H         1 RES1   0.0000
   190 H108     -3.2901   -1.4230   -3.0765   H         1 RES1   0.0000
   191 H109     -1.4372   -3.9036    0.5550   H         1 RES1   0.0000
   192 H110     -2.7911   -2.8558    1.0754   H         1 RES1   0.0000
   193 H111     -0.2447   -3.5227    2.4543   H         1 RES1   0.0000
   194 H112      0.5301   -1.9246    2.6198   H         1 RES1   0.0000
   195 H113      0.6213   -5.5065    1.8048   H         1 RES1   0.0000
   196 H114      1.6787   -4.7279    3.0034   H         1 RES1   0.0000
   197 H115      2.3271   -5.9203    1.8738   H         1 RES1   0.0000
   198 H116      3.9839   -4.4097    0.8792   H         1 RES1   0.0000
   199 H117      3.2704   -3.4352   -0.4181   H         1 RES1   0.0000
   200 H118      2.0476   -6.0335   -0.5622   H         1 RES1   0.0000
   201 H119      3.7832   -6.2928   -0.3752   H         1 RES1   0.0000
   202 H120      3.3497   -6.1312   -2.7321   H         1 RES1   0.0000
   203 H121      4.1758   -4.6615   -2.2428   H         1 RES1   0.0000
   204 H122      1.7790   -3.6027   -2.0535   H         1 RES1   0.0000
   205 H123      1.2193   -5.0958   -2.8090   H         1 RES1   0.0000
   206 H124      1.4668   -3.7544   -4.6712   H         1 RES1   0.0000
   207 H125      3.0629   -4.4877   -4.6415   H         1 RES1   0.0000
   208 H126      2.4111   -1.8360   -3.2973   H         1 RES1   0.0000
   209 H127      2.8736   -1.9745   -5.0121   H         1 RES1   0.0000
   210 H128      5.0718   -2.8783   -4.3574   H         1 RES1   0.0000
   211 H129      4.6554   -2.6898   -2.6553   H         1 RES1   0.0000
   212 H130      4.8082   -0.4321   -4.7056   H         1 RES1   0.0000
   213 H131      5.9337   -0.7272   -3.3862   H         1 RES1   0.0000
   214 H132      4.2704   -0.2382   -3.0336   H         1 RES1   0.0000
@<TRIPOS>BOND
     1     1    13    1
     2     1    15    1
     3     1    18    1
     4     1    84    1
     5     1    86    1
     6     1    89    1
     7     1   155    1
     8     1   157    1
     9     1   160    1
    10     2     3    1
    11     2    29    1
    12     2    30    1
    13     2    31    1
    14     3     4    1
    15     3    32    1
    16     3    33    1
    17     4     5    1
    18     4    34    1
    19     4    35    1
    20     5     6    1
    21     5    36    1
    22     5    37    1
    23     6     7    1
    24     6    38    1
    25     6    39    1
    26     7     8    1
    27     7    40    1
    28     7    41    1
    29     8     9    1
    30     8    42    1
    31     8    43    1
    32     9    10    1
    33     9    44    1
    34     9    45    1
    35    10    11    1
    36    10    12    1
    37    11    46    1
    38    11    47    1
    39    11    48    1
    40    12    13    2
    41    12    14    1
    42    14    15    1
    43    14    49    1
    44    14    50    1
    45    15    16    1
    46    16    17    1
    47    16    51    1
    48    16    52    1
    49    17    18    2
    50    17    19    1
    51    19    20    1
    52    19    21    1
    53    20    53    1
    54    20    54    1
    55    20    55    1
    56    21    22    1
    57    21    56    1
    58    21    57    1
    59    22    23    1
    60    22    58    1
    61    22    59    1
    62    23    24    1
    63    23    60    1
    64    23    61    1
    65    24    25    1
    66    24    62    1
    67    24    63    1
    68    25    26    1
    69    25    64    1
    70    25    65    1
    71    26    27    1
    72    26    66    1
    73    26    67    1
    74    27    28    1
    75    27    68    1
    76    27    69    1
    77    28    70    1
    78    28    71    1
    79    28    72    1
    80    73    74    1
    81    73   100    1
    82    73   101    1
    83    73   102    1
    84    74    75    1
    85    74   103    1
    86    74   104    1
    87    75    76    1
    88    75   105    1
    89    75   106    1
    90    76    77    1
    91    76   107    1
    92    76   108    1
    93    77    78    1
    94    77   109    1
    95    77   110    1
    96    78    79    1
    97    78   111    1
    98    78   112    1
    99    79    80    1
   100    79   113    1
   101    79   114    1
   102    80    81    1
   103    80   115    1
   104    80   116    1
   105    81    82    1
   106    81    83    1
   107    82   117    1
   108    82   118    1
   109    82   119    1
   110    83    84    2
   111    83    85    1
   112    85    86    1
   113    85   120    1
   114    85   121    1
   115    86    87    1
   116    87    88    1
   117    87   122    1
   118    87   123    1
   119    88    89    2
   120    88    90    1
   121    90    91    1
   122    90    92    1
   123    91   124    1
   124    91   125    1
   125    91   126    1
   126    92    93    1
   127    92   127    1
   128    92   128    1
   129    93    94    1
   130    93   129    1
   131    93   130    1
   132    94    95    1
   133    94   131    1
   134    94   132    1
   135    95    96    1
   136    95   133    1
   137    95   134    1
   138    96    97    1
   139    96   135    1
   140    96   136    1
   141    97    98    1
   142    97   137    1
   143    97   138    1
   144    98    99    1
   145    98   139    1
   146    98   140    1
   147    99   141    1
   148    99   142    1
   149    99   143    1
   150   144   145    1
   151   144   171    1
   152   144   172    1
   153   144   173    1
   154   145   146    1
   155   145   174    1
   156   145   175    1
   157   146   147    1
   158   146   176    1
   159   146   177    1
   160   147   148    1
   161   147   178    1
   162   147   179    1
   163   148   149    1
   164   148   180    1
   165   148   181    1
   166   149   150    1
   167   149   182    1
   168   149   183    1
   169   150   151    1
   170   150   184    1
   171   150   185    1
   172   151   152    1
   173   151   186    1
   174   151   187    1
   175   152   153    1
   176   152   154    1
   177   153   188    1
   178   153   189    1
   179   153   190    1
   180   154   155    2
   181   154   156    1
   182   156   157    1
   183   156   191    1
   184   156   192    1
   185   157   158    1
   186   158   159    1
   187   158   193    1
   188   158   194    1
   189   159   160    2
   190   159   161    1
   191   161   162    1
   192   161   163    1
   193   162   195    1
   194   162   196    1
   195   162   197    1
   196   163   164    1
   197   163   198    1
   198   163   199    1
   199   164   165    1
   200   164   200    1
   201   164   201    1
   202   165   166    1
   203   165   202    1
   204   165   203    1
   205   166   167    1
   206   166   204    1
   207   166   205    1
   208   167   168    1
   209   167   206    1
   210   167   207    1
   211   168   169    1
   212   168   208    1
   213   168   209    1
   214   169   170    1
   215   169   210    1
   216   169   211    1
   217   170   212    1
   218   170   213    1
   219   170   214    1
@<TRIPOS>SUBSTRUCTURE
     1 RES1      214 GROUP             0 ****  ****    0  
