@<TRIPOS>MOLECULE
capped_square_antiprismatic_0_nunpairedes_0_charge_3 Charge: 3 Unpaired_Electrons: 1 XTB_Unpaired_Electrons: 0 XTB_Charge: 3
    90    95     1     0     0
SMALL
NoCharges
****
Generated from Architector

@<TRIPOS>ATOM
     1 Ce1      -0.3235   -0.1826    0.0734   Ce        1 RES1   0.0000
     2 C1        1.4593    2.9932    2.1521   C.3       1 RES1   0.0000
     3 N1        1.7616    2.4399    0.8423   N.am      1 RES1   0.0000
     4 C2        2.9972    1.6858    0.6591   C.3       1 RES1   0.0000
     5 C3        0.8339    2.3320   -0.1140   C.2       1 RES1   0.0000
     6 O1        0.8913    1.3775   -0.9229   O.2       1 RES1   0.0000
     7 C4       -0.1155    3.5211   -0.3498   C.3       1 RES1   0.0000
     8 N2       -1.5199    3.2182   -0.3043   N.3       1 RES1   0.0000
     9 C5       -2.2940    3.1278   -1.5244   C.3       1 RES1   0.0000
    10 C6       -2.5212    1.6575   -1.9144   C.2       1 RES1   0.0000
    11 O2       -1.8066    0.7739   -1.3839   O.2       1 RES1   0.0000
    12 N3       -3.4824    1.3593   -2.7703   N.am      1 RES1   0.0000
    13 C7       -4.3488    2.3011   -3.4507   C.3       1 RES1   0.0000
    14 C8       -3.7630   -0.0330   -3.0690   C.3       1 RES1   0.0000
    15 C9       -2.2464    3.4905    0.9117   C.3       1 RES1   0.0000
    16 C10      -2.4822    2.1744    1.6621   C.2       1 RES1   0.0000
    17 O3       -1.8320    1.1541    1.3226   O.2       1 RES1   0.0000
    18 N4       -3.3938    2.1204    2.6190   N.am      1 RES1   0.0000
    19 C11      -3.8361    0.8309    3.1134   C.3       1 RES1   0.0000
    20 C12      -4.0354    3.2615    3.2380   C.3       1 RES1   0.0000
    21 H1        1.8952    3.9793    2.3201   H         1 RES1   0.0000
    22 H2        0.3767    3.0230    2.2807   H         1 RES1   0.0000
    23 H3        1.8640    2.3121    2.8986   H         1 RES1   0.0000
    24 H4        3.3139    1.8141   -0.3794   H         1 RES1   0.0000
    25 H5        3.7642    2.1029    1.3079   H         1 RES1   0.0000
    26 H6        2.8369    0.6219    0.8698   H         1 RES1   0.0000
    27 H7        0.1393    4.3433    0.3287   H         1 RES1   0.0000
    28 H8        0.1565    3.8290   -1.3660   H         1 RES1   0.0000
    29 H9       -3.2593    3.6197   -1.3622   H         1 RES1   0.0000
    30 H10      -1.7928    3.6591   -2.3446   H         1 RES1   0.0000
    31 H11      -4.0522    3.3319   -3.2899   H         1 RES1   0.0000
    32 H12      -4.3290    2.1012   -4.5225   H         1 RES1   0.0000
    33 H13      -5.3790    2.1674   -3.1138   H         1 RES1   0.0000
    34 H14      -3.0879   -0.6672   -2.4943   H         1 RES1   0.0000
    35 H15      -4.7956   -0.2568   -2.8049   H         1 RES1   0.0000
    36 H16      -3.6243   -0.2222   -4.1311   H         1 RES1   0.0000
    37 H17      -1.7228    4.2294    1.5361   H         1 RES1   0.0000
    38 H18      -3.2216    3.9200    0.6567   H         1 RES1   0.0000
    39 H19      -3.4321    0.0453    2.4748   H         1 RES1   0.0000
    40 H20      -3.5188    0.6845    4.1441   H         1 RES1   0.0000
    41 H21      -4.9233    0.7941    3.0751   H         1 RES1   0.0000
    42 H22      -3.5333    4.1916    2.9898   H         1 RES1   0.0000
    43 H23      -5.0831    3.3275    2.9409   H         1 RES1   0.0000
    44 H24      -4.0026    3.1257    4.3207   H         1 RES1   0.0000
    45 C13       3.3305   -1.2956   -2.0187   C.3       1 RES1   0.0000
    46 N5        1.9054   -1.2397   -2.2878   N.am      1 RES1   0.0000
    47 C14       1.4957   -0.3512   -3.3639   C.3       1 RES1   0.0000
    48 C15       1.0100   -1.9941   -1.6485   C.2       1 RES1   0.0000
    49 O4       -0.1964   -1.6728   -1.5571   O.2       1 RES1   0.0000
    50 C16       1.4350   -3.3930   -1.1901   C.3       1 RES1   0.0000
    51 N6        1.0039   -3.7879    0.1179   N.3       1 RES1   0.0000
    52 C17      -0.3372   -4.2316    0.4181   C.3       1 RES1   0.0000
    53 C18      -1.0355   -3.2890    1.3999   C.2       1 RES1   0.0000
    54 O5       -1.0039   -2.0425    1.2004   O.2       1 RES1   0.0000
    55 N7       -1.6195   -3.7745    2.4858   N.am      1 RES1   0.0000
    56 C19      -1.7671   -5.1877    2.7957   C.3       1 RES1   0.0000
    57 C20      -2.2641   -2.8722    3.4250   C.3       1 RES1   0.0000
    58 C21       1.9470   -3.7107    1.1942   C.3       1 RES1   0.0000
    59 C22       2.1539   -2.2823    1.7005   C.2       1 RES1   0.0000
    60 O6        1.6828   -1.3015    1.0666   O.2       1 RES1   0.0000
    61 N8        2.8701   -2.1522    2.8113   N.am      1 RES1   0.0000
    62 C23       3.4943   -3.2830    3.4750   C.3       1 RES1   0.0000
    63 C24       3.0910   -0.8270    3.3587   C.3       1 RES1   0.0000
    64 H25       3.8743   -1.9361   -2.7137   H         1 RES1   0.0000
    65 H26       3.7256   -0.2854   -2.1262   H         1 RES1   0.0000
    66 H27       3.5077   -1.6209   -0.9935   H         1 RES1   0.0000
    67 H28       1.7828   -0.8200   -4.3089   H         1 RES1   0.0000
    68 H29       0.4147   -0.2095   -3.3359   H         1 RES1   0.0000
    69 H30       2.0010    0.6085   -3.2851   H         1 RES1   0.0000
    70 H31       0.9585   -4.0330   -1.9431   H         1 RES1   0.0000
    71 H32       2.5115   -3.5504   -1.2635   H         1 RES1   0.0000
    72 H33      -0.9256   -4.2408   -0.5050   H         1 RES1   0.0000
    73 H34      -0.2903   -5.2577    0.8038   H         1 RES1   0.0000
    74 H35      -0.7991   -5.6740    2.9219   H         1 RES1   0.0000
    75 H36      -2.3121   -5.2793    3.7328   H         1 RES1   0.0000
    76 H37      -2.3325   -5.6997    2.0176   H         1 RES1   0.0000
    77 H38      -2.2025   -1.8515    3.0493   H         1 RES1   0.0000
    78 H39      -3.3145   -3.1405    3.5284   H         1 RES1   0.0000
    79 H40      -1.7811   -2.9503    4.4000   H         1 RES1   0.0000
    80 H41       1.5952   -4.3601    2.0028   H         1 RES1   0.0000
    81 H42       2.9303   -4.0983    0.8776   H         1 RES1   0.0000
    82 H43       4.1784   -3.8058    2.8044   H         1 RES1   0.0000
    83 H44       4.0709   -2.9234    4.3237   H         1 RES1   0.0000
    84 H45       2.7574   -3.9988    3.8473   H         1 RES1   0.0000
    85 H46       3.6687   -0.2273    2.6596   H         1 RES1   0.0000
    86 H47       2.1321   -0.3418    3.5402   H         1 RES1   0.0000
    87 H48       3.6461   -0.9024    4.2860   H         1 RES1   0.0000
    88 O7        0.0330    0.0087    2.8070   O.3       1 RES1   0.0000
    89 H49      -0.6574    0.4911    3.2828   H         1 RES1   0.0000
    90 H50      -0.1479   -0.9276    2.9703   H         1 RES1   0.0000
@<TRIPOS>BOND
     1     1     3    1
     2     1     6    1
     3     1    11    1
     4     1    17    1
     5     1    46    1
     6     1    49    1
     7     1    54    1
     8     1    60    1
     9     1    88    1
    10     2     3    1
    11     2    21    1
    12     2    22    1
    13     2    23    1
    14     3     4    1
    15     3     5    1
    16     4    24    1
    17     4    25    1
    18     4    26    1
    19     5     6    2
    20     5     7    1
    21     7     8    1
    22     7    27    1
    23     7    28    1
    24     8     9    1
    25     8    15    1
    26     9    10    1
    27     9    29    1
    28     9    30    1
    29    10    11    2
    30    10    12    1
    31    12    13    1
    32    12    14    1
    33    13    31    1
    34    13    32    1
    35    13    33    1
    36    14    34    1
    37    14    35    1
    38    14    36    1
    39    15    16    1
    40    15    37    1
    41    15    38    1
    42    16    17    2
    43    16    18    1
    44    18    19    1
    45    18    20    1
    46    19    39    1
    47    19    40    1
    48    19    41    1
    49    20    42    1
    50    20    43    1
    51    20    44    1
    52    45    46    1
    53    45    64    1
    54    45    65    1
    55    45    66    1
    56    46    47    1
    57    46    48    1
    58    47    67    1
    59    47    68    1
    60    47    69    1
    61    48    49    2
    62    48    50    1
    63    50    51    1
    64    50    70    1
    65    50    71    1
    66    51    52    1
    67    51    58    1
    68    52    53    1
    69    52    72    1
    70    52    73    1
    71    53    54    2
    72    53    55    1
    73    55    56    1
    74    55    57    1
    75    56    74    1
    76    56    75    1
    77    56    76    1
    78    57    77    1
    79    57    78    1
    80    57    79    1
    81    58    59    1
    82    58    80    1
    83    58    81    1
    84    59    60    2
    85    59    61    1
    86    61    62    1
    87    61    63    1
    88    62    82    1
    89    62    83    1
    90    62    84    1
    91    63    85    1
    92    63    86    1
    93    63    87    1
    94    88    89    1
    95    88    90    1
@<TRIPOS>SUBSTRUCTURE
     1 RES1       90 GROUP             0 ****  ****    0  
