@<TRIPOS>MOLECULE
am_c3_9H2O_c0_0_nunpairedes_0_charge_3 Charge: 3 Unpaired_Electrons: 1 XTB_Unpaired_Electrons: 0 XTB_Charge: 3
   244   249     1     0     0
SMALL
NoCharges
****
Generated from Architector

@<TRIPOS>ATOM
     1 Ce1      -0.3104   -0.0870    0.0807   Ce        1 RES1   0.0000
     2 C1        4.7478   -1.3832   -3.6187   C.3       1 RES1   0.0000
     3 C2        5.8881   -1.2052   -2.6216   C.3       1 RES1   0.0000
     4 C3        6.4656    0.2087   -2.5324   C.3       1 RES1   0.0000
     5 C4        5.4772    1.3166   -2.1350   C.3       1 RES1   0.0000
     6 C5        4.9693    2.1363   -3.3293   C.3       1 RES1   0.0000
     7 C6        4.1132    3.3399   -2.9143   C.3       1 RES1   0.0000
     8 C7        2.7097    2.9561   -2.4190   C.3       1 RES1   0.0000
     9 C8        2.1691    3.8432   -1.2859   C.3       1 RES1   0.0000
    10 N1        2.6202    3.4026    0.0427   N.am      1 RES1   0.0000
    11 C9        3.8311    4.0897    0.5040   C.3       1 RES1   0.0000
    12 C10       4.3859    3.9335    1.9192   C.3       1 RES1   0.0000
    13 C11       3.6893    4.7183    3.0307   C.3       1 RES1   0.0000
    14 C12       4.5468    4.7536    4.3015   C.3       1 RES1   0.0000
    15 C13       3.8355    5.5154    5.4226   C.3       1 RES1   0.0000
    16 C14       4.6941    5.8898    6.6408   C.3       1 RES1   0.0000
    17 C15       4.8231    4.8083    7.7221   C.3       1 RES1   0.0000
    18 C16       6.0214    3.8821    7.5319   C.3       1 RES1   0.0000
    19 C17       1.9801    2.3531    0.5227   C.2       1 RES1   0.0000
    20 O1        1.0339    1.8150   -0.1077   O.2       1 RES1   0.0000
    21 C18       2.2967    1.6989    1.8664   C.3       1 RES1   0.0000
    22 O2        1.3038    0.6921    2.0921   O.3       1 RES1   0.0000
    23 C19       0.6105    0.7517    3.3391   C.3       1 RES1   0.0000
    24 C20      -0.8044    1.3076    3.1548   C.3       1 RES1   0.0000
    25 O3       -1.5562    0.4637    2.2765   O.3       1 RES1   0.0000
    26 C21      -2.2492   -0.6179    2.9149   C.3       1 RES1   0.0000
    27 C22      -2.3646   -1.7600    1.8976   C.2       1 RES1   0.0000
    28 O4       -1.5607   -1.7583    0.9401   O.2       1 RES1   0.0000
    29 N2       -3.2490   -2.7320    2.0510   N.am      1 RES1   0.0000
    30 C23      -4.3292   -2.7691    3.0284   C.3       1 RES1   0.0000
    31 C24      -5.5809   -2.0206    2.5283   C.3       1 RES1   0.0000
    32 C25      -5.9678   -2.4974    1.1285   C.3       1 RES1   0.0000
    33 C26      -7.1332   -1.7872    0.4446   C.3       1 RES1   0.0000
    34 C27      -7.2671   -2.2878   -0.9989   C.3       1 RES1   0.0000
    35 C28      -6.1279   -1.8588   -1.9309   C.3       1 RES1   0.0000
    36 C29      -6.3433   -2.4259   -3.3358   C.3       1 RES1   0.0000
    37 C30      -5.1917   -2.1177   -4.2846   C.3       1 RES1   0.0000
    38 C31      -3.1344   -3.8739    1.1360   C.3       1 RES1   0.0000
    39 C32      -2.3363   -5.0194    1.7744   C.3       1 RES1   0.0000
    40 C33      -1.2513   -5.5820    0.8515   C.3       1 RES1   0.0000
    41 C34      -1.8066   -6.3285   -0.3742   C.3       1 RES1   0.0000
    42 C35      -1.8354   -5.5111   -1.6667   C.3       1 RES1   0.0000
    43 C36      -2.6955   -6.1696   -2.7460   C.3       1 RES1   0.0000
    44 C37      -4.1911   -6.0544   -2.4578   C.3       1 RES1   0.0000
    45 C38      -5.0086   -6.3714   -3.7005   C.3       1 RES1   0.0000
    46 H1        4.4519   -2.4274   -3.6623   H         1 RES1   0.0000
    47 H2        5.0590   -1.0964   -4.6166   H         1 RES1   0.0000
    48 H3        3.8730   -0.7959   -3.3422   H         1 RES1   0.0000
    49 H4        6.7074   -1.8704   -2.9101   H         1 RES1   0.0000
    50 H5        5.5512   -1.5186   -1.6280   H         1 RES1   0.0000
    51 H6        6.9146    0.4710   -3.4908   H         1 RES1   0.0000
    52 H7        7.2648    0.1702   -1.7928   H         1 RES1   0.0000
    53 H8        5.9842    2.0080   -1.4524   H         1 RES1   0.0000
    54 H9        4.6281    0.8899   -1.5855   H         1 RES1   0.0000
    55 H10       4.4113    1.4990   -4.0177   H         1 RES1   0.0000
    56 H11       5.8410    2.5165   -3.8655   H         1 RES1   0.0000
    57 H12       4.0165    4.0195   -3.7629   H         1 RES1   0.0000
    58 H13       4.6591    3.8896   -2.1485   H         1 RES1   0.0000
    59 H14       2.6950    1.9181   -2.0791   H         1 RES1   0.0000
    60 H15       2.0168    3.0250   -3.2583   H         1 RES1   0.0000
    61 H16       1.0768    3.7979   -1.2752   H         1 RES1   0.0000
    62 H17       2.4779    4.8761   -1.4353   H         1 RES1   0.0000
    63 H18       3.6492    5.1552    0.3340   H         1 RES1   0.0000
    64 H19       4.6211    3.7779   -0.1875   H         1 RES1   0.0000
    65 H20       5.4027    4.3303    1.8540   H         1 RES1   0.0000
    66 H21       4.4888    2.8838    2.1847   H         1 RES1   0.0000
    67 H22       2.7014    4.3073    3.2574   H         1 RES1   0.0000
    68 H23       3.5382    5.7455    2.6957   H         1 RES1   0.0000
    69 H24       5.4864    5.2565    4.0715   H         1 RES1   0.0000
    70 H25       4.7879    3.7378    4.6180   H         1 RES1   0.0000
    71 H26       2.9685    4.9407    5.7618   H         1 RES1   0.0000
    72 H27       3.4560    6.4451    4.9878   H         1 RES1   0.0000
    73 H28       4.2241    6.7602    7.0991   H         1 RES1   0.0000
    74 H29       5.6878    6.1999    6.3136   H         1 RES1   0.0000
    75 H30       3.8968    4.2281    7.7650   H         1 RES1   0.0000
    76 H31       4.9298    5.2952    8.6938   H         1 RES1   0.0000
    77 H32       6.0921    3.5272    6.5062   H         1 RES1   0.0000
    78 H33       5.9481    3.0224    8.1942   H         1 RES1   0.0000
    79 H34       6.9445    4.4053    7.7687   H         1 RES1   0.0000
    80 H35       2.3110    2.4291    2.6800   H         1 RES1   0.0000
    81 H36       3.2671    1.1850    1.8136   H         1 RES1   0.0000
    82 H37       1.1566    1.3553    4.0699   H         1 RES1   0.0000
    83 H38       0.5559   -0.2890    3.6923   H         1 RES1   0.0000
    84 H39      -0.7720    2.2959    2.6702   H         1 RES1   0.0000
    85 H40      -1.3024    1.4089    4.1245   H         1 RES1   0.0000
    86 H41      -3.2209   -0.2549    3.2600   H         1 RES1   0.0000
    87 H42      -1.6781   -1.0069    3.7699   H         1 RES1   0.0000
    88 H43      -3.9949   -2.3564    3.9826   H         1 RES1   0.0000
    89 H44      -4.5774   -3.8186    3.1912   H         1 RES1   0.0000
    90 H45      -5.3850   -0.9450    2.5065   H         1 RES1   0.0000
    91 H46      -6.3969   -2.1931    3.2316   H         1 RES1   0.0000
    92 H47      -6.2077   -3.5614    1.1724   H         1 RES1   0.0000
    93 H48      -5.0965   -2.3575    0.4922   H         1 RES1   0.0000
    94 H49      -6.9742   -0.7094    0.4408   H         1 RES1   0.0000
    95 H50      -8.0639   -1.9818    0.9777   H         1 RES1   0.0000
    96 H51      -8.2008   -1.9173   -1.4228   H         1 RES1   0.0000
    97 H52      -7.3138   -3.3792   -0.9885   H         1 RES1   0.0000
    98 H53      -5.1618   -2.2194   -1.5563   H         1 RES1   0.0000
    99 H54      -6.0832   -0.7644   -1.9806   H         1 RES1   0.0000
   100 H55      -7.2686   -2.0170   -3.7436   H         1 RES1   0.0000
   101 H56      -6.4638   -3.5075   -3.2664   H         1 RES1   0.0000
   102 H57      -5.0456   -1.0416   -4.3716   H         1 RES1   0.0000
   103 H58      -5.4129   -2.5087   -5.2721   H         1 RES1   0.0000
   104 H59      -4.2693   -2.5857   -3.9407   H         1 RES1   0.0000
   105 H60      -2.6165   -3.5048    0.2493   H         1 RES1   0.0000
   106 H61      -4.1192   -4.2233    0.8500   H         1 RES1   0.0000
   107 H62      -3.0032   -5.8272    2.0672   H         1 RES1   0.0000
   108 H63      -1.8747   -4.6417    2.6833   H         1 RES1   0.0000
   109 H64      -0.6544   -6.2834    1.4379   H         1 RES1   0.0000
   110 H65      -0.5883   -4.7694    0.5399   H         1 RES1   0.0000
   111 H66      -2.8148   -6.6665   -0.1500   H         1 RES1   0.0000
   112 H67      -1.2067   -7.2214   -0.5642   H         1 RES1   0.0000
   113 H68      -0.8132   -5.3867   -2.0366   H         1 RES1   0.0000
   114 H69      -2.2461   -4.5159   -1.4795   H         1 RES1   0.0000
   115 H70      -2.4254   -7.2211   -2.8449   H         1 RES1   0.0000
   116 H71      -2.4927   -5.6873   -3.7061   H         1 RES1   0.0000
   117 H72      -4.4199   -5.0384   -2.1250   H         1 RES1   0.0000
   118 H73      -4.4740   -6.7361   -1.6566   H         1 RES1   0.0000
   119 H74      -4.8222   -5.6306   -4.4746   H         1 RES1   0.0000
   120 H75      -6.0713   -6.3772   -3.4776   H         1 RES1   0.0000
   121 H76      -4.7393   -7.3476   -4.0926   H         1 RES1   0.0000
   122 C39      -5.1643    2.7967    1.9010   C.3       1 RES1   0.0000
   123 C40      -6.0945    1.8292    1.1783   C.3       1 RES1   0.0000
   124 C41      -6.7305    2.3497   -0.1097   C.3       1 RES1   0.0000
   125 C42      -5.7579    2.6449   -1.2546   C.3       1 RES1   0.0000
   126 C43      -5.2505    4.0881   -1.2740   C.3       1 RES1   0.0000
   127 C44      -4.2083    4.2999   -2.3752   C.3       1 RES1   0.0000
   128 C45      -2.8146    3.8026   -1.9722   C.3       1 RES1   0.0000
   129 C46      -1.9656    3.3047   -3.1500   C.3       1 RES1   0.0000
   130 N3       -2.2242    1.9075   -3.5122   N.am      1 RES1   0.0000
   131 C47      -3.0631    1.6691   -4.6784   C.3       1 RES1   0.0000
   132 C48      -2.4175    2.1269   -5.9883   C.3       1 RES1   0.0000
   133 C49      -1.1463    1.3516   -6.3248   C.3       1 RES1   0.0000
   134 C50      -1.4154   -0.0309   -6.9165   C.3       1 RES1   0.0000
   135 C51      -0.1059   -0.7484   -7.2523   C.3       1 RES1   0.0000
   136 C52      -0.2880   -2.1585   -7.8376   C.3       1 RES1   0.0000
   137 C53      -0.2050   -3.3070   -6.8271   C.3       1 RES1   0.0000
   138 C54      -1.4596   -3.5237   -5.9882   C.3       1 RES1   0.0000
   139 C55      -1.6190    0.9782   -2.7944   C.2       1 RES1   0.0000
   140 O5       -0.9066    1.2546   -1.8047   O.2       1 RES1   0.0000
   141 C56      -1.7681   -0.5142   -3.1287   C.3       1 RES1   0.0000
   142 O6       -1.2577   -1.2565   -2.0105   O.3       1 RES1   0.0000
   143 C57      -0.3162   -2.2844   -2.3206   C.3       1 RES1   0.0000
   144 C58       1.1066   -1.7350   -2.5089   C.3       1 RES1   0.0000
   145 O7        1.6186   -1.2022   -1.2833   O.3       1 RES1   0.0000
   146 C59       2.6332   -1.9720   -0.6256   C.3       1 RES1   0.0000
   147 C60       2.2198   -2.2040    0.8334   C.2       1 RES1   0.0000
   148 O8        1.0730   -1.8404    1.1649   O.2       1 RES1   0.0000
   149 N4        3.0563   -2.8071    1.6684   N.am      1 RES1   0.0000
   150 C61       4.4712   -3.0191    1.3971   C.3       1 RES1   0.0000
   151 C62       5.3193   -1.7851    1.7659   C.3       1 RES1   0.0000
   152 C63       5.1029   -1.3284    3.2090   C.3       1 RES1   0.0000
   153 C64       5.7801   -0.0137    3.5882   C.3       1 RES1   0.0000
   154 C65       5.3332    0.4358    4.9852   C.3       1 RES1   0.0000
   155 C66       3.8737    0.8965    5.0537   C.3       1 RES1   0.0000
   156 C67       3.4811    1.3478    6.4610   C.3       1 RES1   0.0000
   157 C68       2.0329    1.8195    6.5506   C.3       1 RES1   0.0000
   158 C69       2.5721   -3.1518    3.0037   C.3       1 RES1   0.0000
   159 C70       1.8549   -4.5088    3.0779   C.3       1 RES1   0.0000
   160 C71       0.4962   -4.4042    3.7801   C.3       1 RES1   0.0000
   161 C72       0.5562   -4.0371    5.2748   C.3       1 RES1   0.0000
   162 C73       0.1266   -2.5996    5.5682   C.3       1 RES1   0.0000
   163 C74       0.4644   -2.1341    6.9842   C.3       1 RES1   0.0000
   164 C75       1.9679   -2.0695    7.2369   C.3       1 RES1   0.0000
   165 C76       2.2774   -1.4852    8.6071   C.3       1 RES1   0.0000
   166 H77      -4.8921    2.3905    2.8745   H         1 RES1   0.0000
   167 H78      -5.6618    3.7481    2.0638   H         1 RES1   0.0000
   168 H79      -4.2463    2.9843    1.3437   H         1 RES1   0.0000
   169 H80      -6.9101    1.5729    1.8586   H         1 RES1   0.0000
   170 H81      -5.5520    0.9006    0.9640   H         1 RES1   0.0000
   171 H82      -7.3026    3.2501    0.1089   H         1 RES1   0.0000
   172 H83      -7.4449    1.5952   -0.4440   H         1 RES1   0.0000
   173 H84      -6.2689    2.4630   -2.2040   H         1 RES1   0.0000
   174 H85      -4.9093    1.9508   -1.2164   H         1 RES1   0.0000
   175 H86      -4.8276    4.3614   -0.3082   H         1 RES1   0.0000
   176 H87      -6.1023    4.7464   -1.4493   H         1 RES1   0.0000
   177 H88      -4.1517    5.3580   -2.6313   H         1 RES1   0.0000
   178 H89      -4.5507    3.7758   -3.2686   H         1 RES1   0.0000
   179 H90      -2.8928    2.9991   -1.2368   H         1 RES1   0.0000
   180 H91      -2.2804    4.6220   -1.4904   H         1 RES1   0.0000
   181 H92      -0.9065    3.3695   -2.8860   H         1 RES1   0.0000
   182 H93      -2.1490    3.9307   -4.0231   H         1 RES1   0.0000
   183 H94      -3.9976    2.2134   -4.5281   H         1 RES1   0.0000
   184 H95      -3.2971    0.6105   -4.7607   H         1 RES1   0.0000
   185 H96      -2.1919    3.1927   -5.9337   H         1 RES1   0.0000
   186 H97      -3.1524    2.0024   -6.7840   H         1 RES1   0.0000
   187 H98      -0.5318    1.2683   -5.4233   H         1 RES1   0.0000
   188 H99      -0.5713    1.9249   -7.0515   H         1 RES1   0.0000
   189 H100     -1.9863    0.0851   -7.8386   H         1 RES1   0.0000
   190 H101     -2.0170   -0.6355   -6.2370   H         1 RES1   0.0000
   191 H102      0.5323   -0.8030   -6.3614   H         1 RES1   0.0000
   192 H103      0.4260   -0.1381   -7.9866   H         1 RES1   0.0000
   193 H104      0.4991   -2.3242   -8.5752   H         1 RES1   0.0000
   194 H105     -1.2383   -2.2119   -8.3700   H         1 RES1   0.0000
   195 H106      0.6563   -3.1483   -6.1705   H         1 RES1   0.0000
   196 H107     -0.0165   -4.2273   -7.3818   H         1 RES1   0.0000
   197 H108     -1.6708   -2.6724   -5.3419   H         1 RES1   0.0000
   198 H109     -1.3376   -4.4108   -5.3673   H         1 RES1   0.0000
   199 H110     -2.3210   -3.6770   -6.6328   H         1 RES1   0.0000
   200 H111     -1.2158   -0.7482   -4.0458   H         1 RES1   0.0000
   201 H112     -2.8208   -0.7902   -3.2621   H         1 RES1   0.0000
   202 H113     -0.6284   -2.8317   -3.2183   H         1 RES1   0.0000
   203 H114     -0.3423   -2.9649   -1.4544   H         1 RES1   0.0000
   204 H115      1.1037   -0.9069   -3.2332   H         1 RES1   0.0000
   205 H116      1.7495   -2.5342   -2.8905   H         1 RES1   0.0000
   206 H117      3.5759   -1.4244   -0.6993   H         1 RES1   0.0000
   207 H118      2.7500   -2.9522   -1.1074   H         1 RES1   0.0000
   208 H119      4.6151   -3.2621    0.3438   H         1 RES1   0.0000
   209 H120      4.7791   -3.8855    1.9810   H         1 RES1   0.0000
   210 H121      5.0711   -0.9574    1.0954   H         1 RES1   0.0000
   211 H122      6.3666   -2.0390    1.5976   H         1 RES1   0.0000
   212 H123      5.4576   -2.1071    3.8866   H         1 RES1   0.0000
   213 H124      4.0376   -1.1849    3.3636   H         1 RES1   0.0000
   214 H125      5.5292    0.7606    2.8559   H         1 RES1   0.0000
   215 H126      6.8619   -0.1313    3.5839   H         1 RES1   0.0000
   216 H127      5.9682    1.2598    5.3117   H         1 RES1   0.0000
   217 H128      5.4767   -0.3848    5.6906   H         1 RES1   0.0000
   218 H129      3.2032    0.0903    4.7351   H         1 RES1   0.0000
   219 H130      3.7371    1.7404    4.3715   H         1 RES1   0.0000
   220 H131      4.1354    2.1639    6.7628   H         1 RES1   0.0000
   221 H132      3.6345    0.5283    7.1614   H         1 RES1   0.0000
   222 H133      1.8427    2.6248    5.8408   H         1 RES1   0.0000
   223 H134      1.8279    2.2020    7.5463   H         1 RES1   0.0000
   224 H135      1.3340    1.0048    6.3595   H         1 RES1   0.0000
   225 H136      1.8711   -2.3676    3.2894   H         1 RES1   0.0000
   226 H137      3.4154   -3.1559    3.6805   H         1 RES1   0.0000
   227 H138      2.4780   -5.2310    3.6040   H         1 RES1   0.0000
   228 H139      1.6950   -4.8959    2.0707   H         1 RES1   0.0000
   229 H140      0.0077   -5.3751    3.6769   H         1 RES1   0.0000
   230 H141     -0.1022   -3.6648    3.2357   H         1 RES1   0.0000
   231 H142      1.5667   -4.1945    5.6402   H         1 RES1   0.0000
   232 H143     -0.0939   -4.7046    5.8430   H         1 RES1   0.0000
   233 H144     -0.9531   -2.5059    5.4077   H         1 RES1   0.0000
   234 H145      0.6280   -1.9209    4.8712   H         1 RES1   0.0000
   235 H146      0.0040   -2.7971    7.7153   H         1 RES1   0.0000
   236 H147      0.0434   -1.1355    7.1351   H         1 RES1   0.0000
   237 H148      2.4401   -1.4609    6.4622   H         1 RES1   0.0000
   238 H149      2.3986   -3.0680    7.1783   H         1 RES1   0.0000
   239 H150      1.9029   -0.4677    8.6877   H         1 RES1   0.0000
   240 H151      3.3496   -1.4749    8.7878   H         1 RES1   0.0000
   241 H152      1.8070   -2.0832    9.3830   H         1 RES1   0.0000
   242 O9       -2.9570    0.3676   -0.1222   O.3       1 RES1   0.0000
   243 H153     -3.5741   -0.1348   -0.6679   H         1 RES1   0.0000
   244 H154     -3.4793    1.0695    0.2978   H         1 RES1   0.0000
@<TRIPOS>BOND
     1     1    20    1
     2     1    22    1
     3     1    25    1
     4     1    28    1
     5     1   140    1
     6     1   142    1
     7     1   145    1
     8     1   148    1
     9     1   242    1
    10     2     3    1
    11     2    46    1
    12     2    47    1
    13     2    48    1
    14     3     4    1
    15     3    49    1
    16     3    50    1
    17     4     5    1
    18     4    51    1
    19     4    52    1
    20     5     6    1
    21     5    53    1
    22     5    54    1
    23     6     7    1
    24     6    55    1
    25     6    56    1
    26     7     8    1
    27     7    57    1
    28     7    58    1
    29     8     9    1
    30     8    59    1
    31     8    60    1
    32     9    10    1
    33     9    61    1
    34     9    62    1
    35    10    11    1
    36    10    19    1
    37    11    12    1
    38    11    63    1
    39    11    64    1
    40    12    13    1
    41    12    65    1
    42    12    66    1
    43    13    14    1
    44    13    67    1
    45    13    68    1
    46    14    15    1
    47    14    69    1
    48    14    70    1
    49    15    16    1
    50    15    71    1
    51    15    72    1
    52    16    17    1
    53    16    73    1
    54    16    74    1
    55    17    18    1
    56    17    75    1
    57    17    76    1
    58    18    77    1
    59    18    78    1
    60    18    79    1
    61    19    20    2
    62    19    21    1
    63    21    22    1
    64    21    80    1
    65    21    81    1
    66    22    23    1
    67    23    24    1
    68    23    82    1
    69    23    83    1
    70    24    25    1
    71    24    84    1
    72    24    85    1
    73    25    26    1
    74    26    27    1
    75    26    86    1
    76    26    87    1
    77    27    28    2
    78    27    29    1
    79    29    30    1
    80    29    38    1
    81    30    31    1
    82    30    88    1
    83    30    89    1
    84    31    32    1
    85    31    90    1
    86    31    91    1
    87    32    33    1
    88    32    92    1
    89    32    93    1
    90    33    34    1
    91    33    94    1
    92    33    95    1
    93    34    35    1
    94    34    96    1
    95    34    97    1
    96    35    36    1
    97    35    98    1
    98    35    99    1
    99    36    37    1
   100    36   100    1
   101    36   101    1
   102    37   102    1
   103    37   103    1
   104    37   104    1
   105    38    39    1
   106    38   105    1
   107    38   106    1
   108    39    40    1
   109    39   107    1
   110    39   108    1
   111    40    41    1
   112    40   109    1
   113    40   110    1
   114    41    42    1
   115    41   111    1
   116    41   112    1
   117    42    43    1
   118    42   113    1
   119    42   114    1
   120    43    44    1
   121    43   115    1
   122    43   116    1
   123    44    45    1
   124    44   117    1
   125    44   118    1
   126    45   119    1
   127    45   120    1
   128    45   121    1
   129   122   123    1
   130   122   166    1
   131   122   167    1
   132   122   168    1
   133   123   124    1
   134   123   169    1
   135   123   170    1
   136   124   125    1
   137   124   171    1
   138   124   172    1
   139   125   126    1
   140   125   173    1
   141   125   174    1
   142   126   127    1
   143   126   175    1
   144   126   176    1
   145   127   128    1
   146   127   177    1
   147   127   178    1
   148   128   129    1
   149   128   179    1
   150   128   180    1
   151   129   130    1
   152   129   181    1
   153   129   182    1
   154   130   131    1
   155   130   139    1
   156   131   132    1
   157   131   183    1
   158   131   184    1
   159   132   133    1
   160   132   185    1
   161   132   186    1
   162   133   134    1
   163   133   187    1
   164   133   188    1
   165   134   135    1
   166   134   189    1
   167   134   190    1
   168   135   136    1
   169   135   191    1
   170   135   192    1
   171   136   137    1
   172   136   193    1
   173   136   194    1
   174   137   138    1
   175   137   195    1
   176   137   196    1
   177   138   197    1
   178   138   198    1
   179   138   199    1
   180   139   140    2
   181   139   141    1
   182   141   142    1
   183   141   200    1
   184   141   201    1
   185   142   143    1
   186   143   144    1
   187   143   202    1
   188   143   203    1
   189   144   145    1
   190   144   204    1
   191   144   205    1
   192   145   146    1
   193   146   147    1
   194   146   206    1
   195   146   207    1
   196   147   148    2
   197   147   149    1
   198   149   150    1
   199   149   158    1
   200   150   151    1
   201   150   208    1
   202   150   209    1
   203   151   152    1
   204   151   210    1
   205   151   211    1
   206   152   153    1
   207   152   212    1
   208   152   213    1
   209   153   154    1
   210   153   214    1
   211   153   215    1
   212   154   155    1
   213   154   216    1
   214   154   217    1
   215   155   156    1
   216   155   218    1
   217   155   219    1
   218   156   157    1
   219   156   220    1
   220   156   221    1
   221   157   222    1
   222   157   223    1
   223   157   224    1
   224   158   159    1
   225   158   225    1
   226   158   226    1
   227   159   160    1
   228   159   227    1
   229   159   228    1
   230   160   161    1
   231   160   229    1
   232   160   230    1
   233   161   162    1
   234   161   231    1
   235   161   232    1
   236   162   163    1
   237   162   233    1
   238   162   234    1
   239   163   164    1
   240   163   235    1
   241   163   236    1
   242   164   165    1
   243   164   237    1
   244   164   238    1
   245   165   239    1
   246   165   240    1
   247   165   241    1
   248   242   243    1
   249   242   244    1
@<TRIPOS>SUBSTRUCTURE
     1 RES1      244 GROUP             0 ****  ****    0  
