@<TRIPOS>MOLECULE
am_c3_9H2O_c0_0_nunpairedes_0_charge_3 Charge: 3 Unpaired_Electrons: 1 XTB_Unpaired_Electrons: 0 XTB_Charge: 3
   148   161     1     0     0
SMALL
NoCharges
****
Generated from Architector

@<TRIPOS>ATOM
     1 Ce1      -0.1081   -0.0489    0.0055   Ce        1 RES1   0.0000
     2 C1       -1.8987    2.8053    5.1470   C.3       1 RES1   0.0000
     3 C2       -0.4526    2.3161    5.2425   C.3       1 RES1   0.0000
     4 N1        0.1495    2.1283    3.9267   N.am      1 RES1   0.0000
     5 C3       -0.2747    1.3142    2.9580   C.2       1 RES1   0.0000
     6 O1        0.3026    1.3001    1.8439   O.2       1 RES1   0.0000
     7 C4       -1.4367    0.3419    3.1156   C.ar      1 RES1   0.0000
     8 C5       -2.0038   -0.1085    4.3085   C.ar      1 RES1   0.0000
     9 C6       -3.0586   -1.0097    4.2662   C.ar      1 RES1   0.0000
    10 C7       -3.4376   -1.5622    3.0585   C.ar      1 RES1   0.0000
    11 C8       -2.7461   -1.1547    1.9099   C.ar      1 RES1   0.0000
    12 C9       -3.0437   -1.7823    0.5965   C.ar      1 RES1   0.0000
    13 C10      -4.2832   -2.4012    0.3886   C.ar      1 RES1   0.0000
    14 C11      -4.6233   -2.8215   -0.8839   C.ar      1 RES1   0.0000
    15 C12      -3.7296   -2.6039   -1.9234   C.ar      1 RES1   0.0000
    16 C13      -2.4658   -2.1027   -1.6203   C.ar      1 RES1   0.0000
    17 C14      -1.4478   -1.7103   -2.6550   C.2       1 RES1   0.0000
    18 O2       -0.8168   -0.6644   -2.3592   O.2       1 RES1   0.0000
    19 N2       -1.2702   -2.3832   -3.7956   N.am      1 RES1   0.0000
    20 C15      -1.8651   -3.6981   -4.0257   C.3       1 RES1   0.0000
    21 C16      -2.8608   -3.7184   -5.1853   C.3       1 RES1   0.0000
    22 C17      -0.5423   -1.7762   -4.8778   C.ar      1 RES1   0.0000
    23 C18      -0.7642   -0.4180   -5.0908   C.ar      1 RES1   0.0000
    24 C19      -0.1348    0.2751   -6.1027   C.ar      1 RES1   0.0000
    25 C20       0.7215   -0.3870   -6.9730   C.ar      1 RES1   0.0000
    26 C21       1.4122    0.3110   -8.0938   C.3       1 RES1   0.0000
    27 C22       0.9234   -1.7439   -6.7723   C.ar      1 RES1   0.0000
    28 C23       0.3264   -2.4620   -5.7431   C.ar      1 RES1   0.0000
    29 C24       0.6781   -3.9190   -5.6856   C.3       1 RES1   0.0000
    30 N3       -2.1322   -1.6879   -0.3828   N.ar      1 RES1   0.0000
    31 N4       -1.8311   -0.1795    1.9413   N.ar      1 RES1   0.0000
    32 C25       1.2749    2.9865    3.6625   C.ar      1 RES1   0.0000
    33 C26       2.3980    2.8909    4.4762   C.ar      1 RES1   0.0000
    34 C27       3.4837    3.7187    4.2690   C.ar      1 RES1   0.0000
    35 C28       3.4851    4.6563    3.2413   C.ar      1 RES1   0.0000
    36 C29       4.6691    5.5234    2.9657   C.3       1 RES1   0.0000
    37 C30       2.3371    4.7709    2.4712   C.ar      1 RES1   0.0000
    38 C31       1.2269    3.9616    2.6694   C.ar      1 RES1   0.0000
    39 C32       0.0126    4.2078    1.8322   C.3       1 RES1   0.0000
    40 H1       -2.3910    2.6991    6.1102   H         1 RES1   0.0000
    41 H2       -2.4590    2.2323    4.4131   H         1 RES1   0.0000
    42 H3       -1.9478    3.8496    4.8510   H         1 RES1   0.0000
    43 H4       -0.3752    1.4021    5.8370   H         1 RES1   0.0000
    44 H5        0.1556    3.0524    5.7688   H         1 RES1   0.0000
    45 H6       -1.6547    0.1847    5.2795   H         1 RES1   0.0000
    46 H7       -3.5430   -1.3186    5.1806   H         1 RES1   0.0000
    47 H8       -4.2139   -2.3144    3.0442   H         1 RES1   0.0000
    48 H9       -5.0093   -2.4910    1.1828   H         1 RES1   0.0000
    49 H10      -5.5913   -3.2590   -1.0840   H         1 RES1   0.0000
    50 H11      -4.0449   -2.7899   -2.9380   H         1 RES1   0.0000
    51 H12      -2.3344   -4.0411   -3.1050   H         1 RES1   0.0000
    52 H13      -1.0795   -4.4195   -4.2396   H         1 RES1   0.0000
    53 H14      -3.6872   -3.0250   -5.0472   H         1 RES1   0.0000
    54 H15      -3.2717   -4.7214   -5.2729   H         1 RES1   0.0000
    55 H16      -2.3907   -3.4683   -6.1333   H         1 RES1   0.0000
    56 H17      -1.4611    0.0993   -4.4531   H         1 RES1   0.0000
    57 H18      -0.3358    1.3279   -6.2291   H         1 RES1   0.0000
    58 H19       1.1523    1.3636   -8.1206   H         1 RES1   0.0000
    59 H20       1.1334   -0.1407   -9.0435   H         1 RES1   0.0000
    60 H21       2.4931    0.2173   -8.0043   H         1 RES1   0.0000
    61 H22       1.5729   -2.2737   -7.4566   H         1 RES1   0.0000
    62 H23       1.5009   -4.1291   -6.3623   H         1 RES1   0.0000
    63 H24      -0.1435   -4.5460   -6.0233   H         1 RES1   0.0000
    64 H25       0.9807   -4.2363   -4.6919   H         1 RES1   0.0000
    65 H26       2.4233    2.1724    5.2806   H         1 RES1   0.0000
    66 H27       4.3383    3.6419    4.9207   H         1 RES1   0.0000
    67 H28       5.4856    5.3145    3.6482   H         1 RES1   0.0000
    68 H29       4.4106    6.5761    3.0532   H         1 RES1   0.0000
    69 H30       5.0255    5.3672    1.9492   H         1 RES1   0.0000
    70 H31       2.2910    5.5350    1.7075   H         1 RES1   0.0000
    71 H32      -0.2250    5.2685    1.8454   H         1 RES1   0.0000
    72 H33      -0.8576    3.6641    2.1862   H         1 RES1   0.0000
    73 H34       0.2125    3.9066    0.8052   H         1 RES1   0.0000
    74 C33       1.2805   -1.3519    4.8371   C.3       1 RES1   0.0000
    75 C34       0.4964   -2.5572    4.3259   C.3       1 RES1   0.0000
    76 N5        1.1159   -3.1647    3.1542   N.am      1 RES1   0.0000
    77 C35       0.9952   -2.5232    1.9991   C.2       1 RES1   0.0000
    78 O3        0.3198   -1.4737    1.9266   O.2       1 RES1   0.0000
    79 C36       1.5836   -2.9953    0.7116   C.ar      1 RES1   0.0000
    80 C37       1.9409   -4.3030    0.4063   C.ar      1 RES1   0.0000
    81 C38       2.4266   -4.5558   -0.8671   C.ar      1 RES1   0.0000
    82 C39       2.5395   -3.5199   -1.7805   C.ar      1 RES1   0.0000
    83 C40       2.1309   -2.2343   -1.4063   C.ar      1 RES1   0.0000
    84 C41       2.1983   -1.0732   -2.3284   C.ar      1 RES1   0.0000
    85 C42       2.7959   -1.1837   -3.5860   C.ar      1 RES1   0.0000
    86 C43       2.7780   -0.0893   -4.4294   C.ar      1 RES1   0.0000
    87 C44       2.1196    1.0650   -4.0330   C.ar      1 RES1   0.0000
    88 C45       1.5932    1.1241   -2.7442   C.ar      1 RES1   0.0000
    89 C46       0.7992    2.2644   -2.1692   C.2       1 RES1   0.0000
    90 O4        0.2089    2.0428   -1.0797   O.2       1 RES1   0.0000
    91 N6        0.6186    3.4288   -2.7873   N.am      1 RES1   0.0000
    92 C47      -0.3557    4.3637   -2.2296   C.3       1 RES1   0.0000
    93 C48       0.2590    5.6481   -1.6894   C.3       1 RES1   0.0000
    94 C49       1.2981    3.9011   -3.9422   C.ar      1 RES1   0.0000
    95 C50       0.5632    4.3067   -5.0510   C.ar      1 RES1   0.0000
    96 C51       1.2045    4.7365   -6.1946   C.ar      1 RES1   0.0000
    97 C52       2.5936    4.7688   -6.2607   C.ar      1 RES1   0.0000
    98 C53       3.3078    5.1331   -7.5151   C.3       1 RES1   0.0000
    99 C54       3.3129    4.4391   -5.1190   C.ar      1 RES1   0.0000
   100 C55       2.6902    4.0230   -3.9528   C.ar      1 RES1   0.0000
   101 C56       3.5350    3.7052   -2.7628   C.3       1 RES1   0.0000
   102 N7        1.6537    0.0757   -1.9087   N.ar      1 RES1   0.0000
   103 N8        1.6351   -1.9974   -0.1865   N.ar      1 RES1   0.0000
   104 C57       2.0895   -4.1539    3.4290   C.ar      1 RES1   0.0000
   105 C58       3.3968   -3.8548    3.0684   C.ar      1 RES1   0.0000
   106 C59       4.4221   -4.7063    3.3999   C.ar      1 RES1   0.0000
   107 C60       4.1614   -5.8628    4.1277   C.ar      1 RES1   0.0000
   108 C61       5.2669   -6.7643    4.5447   C.3       1 RES1   0.0000
   109 C62       2.8484   -6.1547    4.4722   C.ar      1 RES1   0.0000
   110 C63       1.7909   -5.3224    4.1324   C.ar      1 RES1   0.0000
   111 C64       0.4071   -5.7380    4.5309   C.3       1 RES1   0.0000
   112 H35       0.7829   -0.9746    5.7267   H         1 RES1   0.0000
   113 H36       1.3284   -0.5669    4.0845   H         1 RES1   0.0000
   114 H37       2.2948   -1.6310    5.1126   H         1 RES1   0.0000
   115 H38      -0.5132   -2.2504    4.0476   H         1 RES1   0.0000
   116 H39       0.4459   -3.3054    5.1143   H         1 RES1   0.0000
   117 H40       1.8286   -5.1040    1.1203   H         1 RES1   0.0000
   118 H41       2.7076   -5.5563   -1.1549   H         1 RES1   0.0000
   119 H42       2.9163   -3.7361   -2.7690   H         1 RES1   0.0000
   120 H43       3.2447   -2.1083   -3.9131   H         1 RES1   0.0000
   121 H44       3.2296   -0.1472   -5.4084   H         1 RES1   0.0000
   122 H45       2.0274    1.8821   -4.7264   H         1 RES1   0.0000
   123 H46      -0.8950    3.8455   -1.4364   H         1 RES1   0.0000
   124 H47      -1.0600    4.6270   -3.0185   H         1 RES1   0.0000
   125 H48       0.9847    5.4488   -0.9052   H         1 RES1   0.0000
   126 H49      -0.5465    6.2557   -1.2806   H         1 RES1   0.0000
   127 H50       0.7502    6.2120   -2.4785   H         1 RES1   0.0000
   128 H51      -0.5136    4.2768   -5.0373   H         1 RES1   0.0000
   129 H52       0.6241    5.0553   -7.0460   H         1 RES1   0.0000
   130 H53       2.6122    5.3728   -8.3121   H         1 RES1   0.0000
   131 H54       3.9362    4.3047   -7.8384   H         1 RES1   0.0000
   132 H55       3.9617    5.9859   -7.3498   H         1 RES1   0.0000
   133 H56       4.3914    4.5120   -5.1328   H         1 RES1   0.0000
   134 H57       4.1735    4.5548   -2.5401   H         1 RES1   0.0000
   135 H58       4.1795    2.8531   -2.9665   H         1 RES1   0.0000
   136 H59       2.9558    3.4804   -1.8734   H         1 RES1   0.0000
   137 H60       3.5827   -2.9247    2.5544   H         1 RES1   0.0000
   138 H61       5.4321   -4.4597    3.1200   H         1 RES1   0.0000
   139 H62       6.2242   -6.3904    4.1989   H         1 RES1   0.0000
   140 H63       5.1121   -7.7639    4.1462   H         1 RES1   0.0000
   141 H64       5.2941   -6.8450    5.6289   H         1 RES1   0.0000
   142 H65       2.6453   -7.0561    5.0334   H         1 RES1   0.0000
   143 H66       0.2086   -6.7488    4.1836   H         1 RES1   0.0000
   144 H67      -0.3691   -5.0949    4.1321   H         1 RES1   0.0000
   145 H68       0.3123   -5.7626    5.6153   H         1 RES1   0.0000
   146 O5       -2.3039    1.2203   -0.4457   O.3       1 RES1   0.0000
   147 H69      -2.1590    2.0930   -0.0478   H         1 RES1   0.0000
   148 H70      -2.3006    1.3483   -1.4057   H         1 RES1   0.0000
@<TRIPOS>BOND
     1     1     6    1
     2     1    18    1
     3     1    30    1
     4     1    31    1
     5     1    78    1
     6     1    90    1
     7     1   102    1
     8     1   103    1
     9     1   146    1
    10     2     3    1
    11     2    40    1
    12     2    41    1
    13     2    42    1
    14     3     4    1
    15     3    43    1
    16     3    44    1
    17     4     5    1
    18     4    32    1
    19     5     6    2
    20     5     7    1
    21     7     8    1
    22     7    31    2
    23     8     9    2
    24     8    45    1
    25     9    10    1
    26     9    46    1
    27    10    11    2
    28    10    47    1
    29    11    12    1
    30    11    31    1
    31    12    13    1
    32    12    30    2
    33    13    14    2
    34    13    48    1
    35    14    15    1
    36    14    49    1
    37    15    16    2
    38    15    50    1
    39    16    17    1
    40    16    30    1
    41    17    18    2
    42    17    19    1
    43    19    20    1
    44    19    22    1
    45    20    21    1
    46    20    51    1
    47    20    52    1
    48    21    53    1
    49    21    54    1
    50    21    55    1
    51    22    23    1
    52    22    28    2
    53    23    24    2
    54    23    56    1
    55    24    25    1
    56    24    57    1
    57    25    26    1
    58    25    27    2
    59    26    58    1
    60    26    59    1
    61    26    60    1
    62    27    28    1
    63    27    61    1
    64    28    29    1
    65    29    62    1
    66    29    63    1
    67    29    64    1
    68    32    33    1
    69    32    38    2
    70    33    34    2
    71    33    65    1
    72    34    35    1
    73    34    66    1
    74    35    36    1
    75    35    37    2
    76    36    67    1
    77    36    68    1
    78    36    69    1
    79    37    38    1
    80    37    70    1
    81    38    39    1
    82    39    71    1
    83    39    72    1
    84    39    73    1
    85    74    75    1
    86    74   112    1
    87    74   113    1
    88    74   114    1
    89    75    76    1
    90    75   115    1
    91    75   116    1
    92    76    77    1
    93    76   104    1
    94    77    78    2
    95    77    79    1
    96    79    80    1
    97    79   103    2
    98    80    81    2
    99    80   117    1
   100    81    82    1
   101    81   118    1
   102    82    83    2
   103    82   119    1
   104    83    84    1
   105    83   103    1
   106    84    85    1
   107    84   102    2
   108    85    86    2
   109    85   120    1
   110    86    87    1
   111    86   121    1
   112    87    88    2
   113    87   122    1
   114    88    89    1
   115    88   102    1
   116    89    90    2
   117    89    91    1
   118    91    92    1
   119    91    94    1
   120    92    93    1
   121    92   123    1
   122    92   124    1
   123    93   125    1
   124    93   126    1
   125    93   127    1
   126    94    95    1
   127    94   100    2
   128    95    96    2
   129    95   128    1
   130    96    97    1
   131    96   129    1
   132    97    98    1
   133    97    99    2
   134    98   130    1
   135    98   131    1
   136    98   132    1
   137    99   100    1
   138    99   133    1
   139   100   101    1
   140   101   134    1
   141   101   135    1
   142   101   136    1
   143   104   105    1
   144   104   110    2
   145   105   106    2
   146   105   137    1
   147   106   107    1
   148   106   138    1
   149   107   108    1
   150   107   109    2
   151   108   139    1
   152   108   140    1
   153   108   141    1
   154   109   110    1
   155   109   142    1
   156   110   111    1
   157   111   143    1
   158   111   144    1
   159   111   145    1
   160   146   147    1
   161   146   148    1
@<TRIPOS>SUBSTRUCTURE
     1 RES1      148 GROUP             0 ****  ****    0  
