@<TRIPOS>MOLECULE
am_c3_9H2O_c0_0_nunpairedes_0_charge_3 Charge: 3 Unpaired_Electrons: 1 XTB_Unpaired_Electrons: 0 XTB_Charge: 3
   277   282     1     0     0
SMALL
NoCharges
****
Generated from Architector

@<TRIPOS>ATOM
     1 Ce1      -0.1205    0.2959   -0.4724   Ce        1 RES1   0.0000
     2 C1       -4.7083   -3.5926    3.8066   C.3       1 RES1   0.0000
     3 C2       -3.3629   -4.2883    3.6103   C.3       1 RES1   0.0000
     4 C3       -2.5341   -4.3769    4.8938   C.3       1 RES1   0.0000
     5 C4       -1.6007   -3.1913    5.1502   C.3       1 RES1   0.0000
     6 C5       -2.1769   -1.8034    4.8655   C.3       1 RES1   0.0000
     7 C6       -1.1037   -0.7350    5.0955   C.3       1 RES1   0.0000
     8 C7       -1.6361    0.6823    5.3058   C.3       1 RES1   0.0000
     9 C8       -1.8819    1.4873    4.0374   C.3       1 RES1   0.0000
    10 N1       -2.8517    0.9988    3.0647   N.am      1 RES1   0.0000
    11 C9       -4.2287    1.0446    3.5057   C.3       1 RES1   0.0000
    12 C10      -2.4353    0.7811    1.8253   C.2       1 RES1   0.0000
    13 O1       -1.2388    0.5444    1.5577   O.2       1 RES1   0.0000
    14 C11      -3.4372    0.9360    0.6778   C.3       1 RES1   0.0000
    15 O2       -2.6544    0.8087   -0.4945   O.3       1 RES1   0.0000
    16 C12      -3.2284    1.2693   -1.7073   C.3       1 RES1   0.0000
    17 C13      -2.0494    1.5852   -2.6420   C.2       1 RES1   0.0000
    18 O3       -0.9098    1.6353   -2.1407   O.2       1 RES1   0.0000
    19 N2       -2.2882    1.9250   -3.8978   N.am      1 RES1   0.0000
    20 C14      -3.5177    1.6798   -4.6280   C.3       1 RES1   0.0000
    21 C15      -3.5250    0.3558   -5.4294   C.3       1 RES1   0.0000
    22 C16      -2.2023   -0.0681   -6.0905   C.3       1 RES1   0.0000
    23 C17      -1.3165   -0.9433   -5.2006   C.3       1 RES1   0.0000
    24 C18      -0.1610   -1.6058   -5.9540   C.3       1 RES1   0.0000
    25 C19       0.9299   -0.6458   -6.4196   C.3       1 RES1   0.0000
    26 C20       1.9246   -1.2947   -7.3892   C.3       1 RES1   0.0000
    27 C21       2.7344   -2.4481   -6.8033   C.3       1 RES1   0.0000
    28 C22      -1.2402    2.6861   -4.5792   C.3       1 RES1   0.0000
    29 C23      -1.0899    4.0632   -3.9278   C.3       1 RES1   0.0000
    30 C24      -2.4182    4.8186   -3.8478   C.3       1 RES1   0.0000
    31 C25      -2.2495    6.2605   -3.3639   C.3       1 RES1   0.0000
    32 C26      -1.7380    6.4304   -1.9253   C.3       1 RES1   0.0000
    33 C27      -2.8047    6.4533   -0.8221   C.3       1 RES1   0.0000
    34 C28      -3.4025    5.0840   -0.4485   C.3       1 RES1   0.0000
    35 C29      -4.8349    4.9200   -0.9509   C.3       1 RES1   0.0000
    36 H1       -5.3800   -3.8085    2.9794   H         1 RES1   0.0000
    37 H2       -5.1748   -3.9506    4.7196   H         1 RES1   0.0000
    38 H3       -4.6093   -2.5135    3.8897   H         1 RES1   0.0000
    39 H4       -3.5508   -5.3032    3.2650   H         1 RES1   0.0000
    40 H5       -2.7761   -3.7907    2.8324   H         1 RES1   0.0000
    41 H6       -3.2115   -4.5016    5.7380   H         1 RES1   0.0000
    42 H7       -1.9054   -5.2675    4.8486   H         1 RES1   0.0000
    43 H8       -1.2997   -3.2165    6.1984   H         1 RES1   0.0000
    44 H9       -0.6881   -3.3101    4.5576   H         1 RES1   0.0000
    45 H10      -2.5366   -1.7346    3.8342   H         1 RES1   0.0000
    46 H11      -3.0205   -1.6423    5.5391   H         1 RES1   0.0000
    47 H12      -0.5683   -1.0094    6.0060   H         1 RES1   0.0000
    48 H13      -0.3849   -0.7463    4.2646   H         1 RES1   0.0000
    49 H14      -2.5213    0.6604    5.9442   H         1 RES1   0.0000
    50 H15      -0.8765    1.2554    5.8421   H         1 RES1   0.0000
    51 H16      -2.2303    2.4792    4.3344   H         1 RES1   0.0000
    52 H17      -0.9393    1.6090    3.5044   H         1 RES1   0.0000
    53 H18      -4.6029    2.0687    3.5077   H         1 RES1   0.0000
    54 H19      -4.8856    0.4219    2.9054   H         1 RES1   0.0000
    55 H20      -4.2651    0.6699    4.5286   H         1 RES1   0.0000
    56 H21      -4.2298    0.1786    0.6949   H         1 RES1   0.0000
    57 H22      -3.9074    1.9289    0.7405   H         1 RES1   0.0000
    58 H23      -3.9229    0.5357   -2.1234   H         1 RES1   0.0000
    59 H24      -3.7475    2.2187   -1.5384   H         1 RES1   0.0000
    60 H25      -4.3768    1.7012   -3.9541   H         1 RES1   0.0000
    61 H26      -3.6428    2.5024   -5.3321   H         1 RES1   0.0000
    62 H27      -3.8742   -0.4678   -4.8042   H         1 RES1   0.0000
    63 H28      -4.2760    0.4889   -6.2105   H         1 RES1   0.0000
    64 H29      -2.4596   -0.6579   -6.9709   H         1 RES1   0.0000
    65 H30      -1.6528    0.8018   -6.4427   H         1 RES1   0.0000
    66 H31      -0.9193   -0.3788   -4.3501   H         1 RES1   0.0000
    67 H32      -1.9353   -1.7536   -4.8118   H         1 RES1   0.0000
    68 H33       0.2832   -2.3498   -5.2918   H         1 RES1   0.0000
    69 H34      -0.5584   -2.1318   -6.8224   H         1 RES1   0.0000
    70 H35       0.4775    0.2005   -6.9376   H         1 RES1   0.0000
    71 H36       1.4643   -0.2517   -5.5509   H         1 RES1   0.0000
    72 H37       1.3774   -1.6575   -8.2616   H         1 RES1   0.0000
    73 H38       2.6202   -0.5279   -7.7393   H         1 RES1   0.0000
    74 H39       2.0871   -3.2557   -6.4692   H         1 RES1   0.0000
    75 H40       3.4017   -2.8460   -7.5648   H         1 RES1   0.0000
    76 H41       3.3413   -2.1121   -5.9640   H         1 RES1   0.0000
    77 H42      -0.2948    2.1404   -4.5298   H         1 RES1   0.0000
    78 H43      -1.5298    2.8052   -5.6206   H         1 RES1   0.0000
    79 H44      -0.6636    3.9394   -2.9307   H         1 RES1   0.0000
    80 H45      -0.3894    4.6346   -4.5367   H         1 RES1   0.0000
    81 H46      -2.8617    4.8577   -4.8452   H         1 RES1   0.0000
    82 H47      -3.1172    4.2977   -3.1921   H         1 RES1   0.0000
    83 H48      -1.5463    6.7571   -4.0353   H         1 RES1   0.0000
    84 H49      -3.2061    6.7782   -3.4637   H         1 RES1   0.0000
    85 H50      -0.9954    5.6626   -1.6885   H         1 RES1   0.0000
    86 H51      -1.2280    7.3947   -1.8761   H         1 RES1   0.0000
    87 H52      -2.3334    6.8820    0.0675   H         1 RES1   0.0000
    88 H53      -3.6082    7.1339   -1.1132   H         1 RES1   0.0000
    89 H54      -2.7525    4.2847   -0.8242   H         1 RES1   0.0000
    90 H55      -3.4264    4.9915    0.6410   H         1 RES1   0.0000
    91 H56      -4.9113    5.0977   -2.0211   H         1 RES1   0.0000
    92 H57      -5.2191    3.9252   -0.7267   H         1 RES1   0.0000
    93 H58      -5.4732    5.6411   -0.4456   H         1 RES1   0.0000
    94 C30      -2.8401    4.0058    7.6000   C.3       1 RES1   0.0000
    95 C31      -4.1575    3.6044    6.9478   C.3       1 RES1   0.0000
    96 C32      -4.7762    4.7097    6.0901   C.3       1 RES1   0.0000
    97 C33      -4.0218    4.9834    4.7881   C.3       1 RES1   0.0000
    98 C34      -2.8103    5.9203    4.9357   C.3       1 RES1   0.0000
    99 C35      -1.5226    5.3616    4.3219   C.3       1 RES1   0.0000
   100 C36      -1.7037    5.0818    2.8290   C.3       1 RES1   0.0000
   101 C37      -0.4231    5.0894    1.9972   C.3       1 RES1   0.0000
   102 N3        0.4899    3.9713    2.2128   N.am      1 RES1   0.0000
   103 C38       1.4746    4.0929    3.2704   C.3       1 RES1   0.0000
   104 C39       0.5234    2.9836    1.3250   C.2       1 RES1   0.0000
   105 O4       -0.3453    2.7753    0.4664   O.2       1 RES1   0.0000
   106 C40       1.7572    2.0789    1.3334   C.3       1 RES1   0.0000
   107 O5        1.7511    1.4485    0.0617   O.3       1 RES1   0.0000
   108 C41       3.0040    0.9459   -0.3722   C.3       1 RES1   0.0000
   109 C42       2.7026    0.0191   -1.5568   C.2       1 RES1   0.0000
   110 O6        1.5335   -0.0007   -1.9906   O.2       1 RES1   0.0000
   111 N4        3.7224   -0.5443   -2.2117   N.am      1 RES1   0.0000
   112 C43       3.7302   -0.3316   -3.6619   C.3       1 RES1   0.0000
   113 C44       4.0665    1.1582   -3.8096   C.3       1 RES1   0.0000
   114 C45       3.9820    1.7684   -5.2051   C.3       1 RES1   0.0000
   115 C46       3.9286    3.2949   -5.0552   C.3       1 RES1   0.0000
   116 C47       2.5338    3.7785   -4.6288   C.3       1 RES1   0.0000
   117 C48       2.5538    5.0915   -3.8395   C.3       1 RES1   0.0000
   118 C49       2.7861    4.8867   -2.3398   C.3       1 RES1   0.0000
   119 C50       2.6377    6.2029   -1.5805   C.3       1 RES1   0.0000
   120 C51       4.8514   -1.1685   -1.5482   C.3       1 RES1   0.0000
   121 C52       4.4667   -2.6181   -1.1957   C.3       1 RES1   0.0000
   122 C53       4.4925   -3.5506   -2.4128   C.3       1 RES1   0.0000
   123 C54       3.5841   -4.7763   -2.2777   C.3       1 RES1   0.0000
   124 C55       2.1308   -4.4786   -2.6551   C.3       1 RES1   0.0000
   125 C56       1.2445   -5.7272   -2.5883   C.3       1 RES1   0.0000
   126 C57      -0.0603   -5.5960   -3.3829   C.3       1 RES1   0.0000
   127 C58      -1.0399   -4.5652   -2.8206   C.3       1 RES1   0.0000
   128 H59      -2.4812    3.2229    8.2635   H         1 RES1   0.0000
   129 H60      -2.9827    4.9089    8.1870   H         1 RES1   0.0000
   130 H61      -2.0743    4.1927    6.8534   H         1 RES1   0.0000
   131 H62      -4.8736    3.3505    7.7287   H         1 RES1   0.0000
   132 H63      -4.0116    2.7018    6.3443   H         1 RES1   0.0000
   133 H64      -4.8369    5.6242    6.6807   H         1 RES1   0.0000
   134 H65      -5.7944    4.4132    5.8320   H         1 RES1   0.0000
   135 H66      -4.7184    5.4179    4.0682   H         1 RES1   0.0000
   136 H67      -3.6972    4.0226    4.3773   H         1 RES1   0.0000
   137 H68      -2.6263    6.1434    5.9865   H         1 RES1   0.0000
   138 H69      -3.0327    6.8666    4.4413   H         1 RES1   0.0000
   139 H70      -1.2152    4.4578    4.8592   H         1 RES1   0.0000
   140 H71      -0.7446    6.1161    4.4549   H         1 RES1   0.0000
   141 H72      -2.3297    5.8785    2.4214   H         1 RES1   0.0000
   142 H73      -2.2348    4.1399    2.6758   H         1 RES1   0.0000
   143 H74       0.1306    6.0121    2.1917   H         1 RES1   0.0000
   144 H75      -0.7141    5.0493    0.9459   H         1 RES1   0.0000
   145 H76       2.4163    4.4960    2.8937   H         1 RES1   0.0000
   146 H77       1.6610    3.1361    3.7582   H         1 RES1   0.0000
   147 H78       1.0997    4.7779    4.0234   H         1 RES1   0.0000
   148 H79       1.6925    1.3218    2.1313   H         1 RES1   0.0000
   149 H80       2.6590    2.6903    1.4559   H         1 RES1   0.0000
   150 H81       3.5524    0.4835    0.4447   H         1 RES1   0.0000
   151 H82       3.6048    1.7674   -0.7951   H         1 RES1   0.0000
   152 H83       2.7410   -0.5613   -4.0634   H         1 RES1   0.0000
   153 H84       4.4795   -0.9593   -4.1418   H         1 RES1   0.0000
   154 H85       5.0701    1.3269   -3.4081   H         1 RES1   0.0000
   155 H86       3.3570    1.6949   -3.1717   H         1 RES1   0.0000
   156 H87       3.0840    1.4215   -5.7187   H         1 RES1   0.0000
   157 H88       4.8457    1.4722   -5.8006   H         1 RES1   0.0000
   158 H89       4.1976    3.7651   -6.0013   H         1 RES1   0.0000
   159 H90       4.6760    3.5967   -4.3168   H         1 RES1   0.0000
   160 H91       2.0394    3.0196   -4.0126   H         1 RES1   0.0000
   161 H92       1.9268    3.9058   -5.5264   H         1 RES1   0.0000
   162 H93       1.5980    5.6043   -3.9648   H         1 RES1   0.0000
   163 H94       3.3269    5.7461   -4.2444   H         1 RES1   0.0000
   164 H95       3.7873    4.4778   -2.1727   H         1 RES1   0.0000
   165 H96       2.0545    4.1628   -1.9527   H         1 RES1   0.0000
   166 H97       3.2932    6.9592   -2.0049   H         1 RES1   0.0000
   167 H98       2.8929    6.0858   -0.5283   H         1 RES1   0.0000
   168 H99       1.6132    6.5646   -1.6492   H         1 RES1   0.0000
   169 H100      5.1220   -0.6233   -0.6427   H         1 RES1   0.0000
   170 H101      5.7140   -1.1577   -2.2132   H         1 RES1   0.0000
   171 H102      3.4625   -2.5936   -0.7611   H         1 RES1   0.0000
   172 H103      5.1583   -2.9889   -0.4372   H         1 RES1   0.0000
   173 H104      5.5198   -3.8780   -2.5746   H         1 RES1   0.0000
   174 H105      4.1759   -3.0020   -3.2992   H         1 RES1   0.0000
   175 H106      3.6437   -5.1823   -1.2660   H         1 RES1   0.0000
   176 H107      3.9538   -5.5435   -2.9570   H         1 RES1   0.0000
   177 H108      2.1116   -4.1099   -3.6835   H         1 RES1   0.0000
   178 H109      1.7230   -3.6907   -2.0129   H         1 RES1   0.0000
   179 H110      1.0095   -5.9776   -1.5495   H         1 RES1   0.0000
   180 H111      1.7962   -6.5698   -3.0103   H         1 RES1   0.0000
   181 H112     -0.5592   -6.5695   -3.3936   H         1 RES1   0.0000
   182 H113      0.1712   -5.3327   -4.4188   H         1 RES1   0.0000
   183 H114     -1.3221   -4.8280   -1.7988   H         1 RES1   0.0000
   184 H115     -1.9397   -4.5607   -3.4357   H         1 RES1   0.0000
   185 H116     -0.6114   -3.5616   -2.8267   H         1 RES1   0.0000
   186 C59      -7.9218    3.1213   -2.8543   C.3       1 RES1   0.0000
   187 C60      -8.0049    3.0583   -1.3318   C.3       1 RES1   0.0000
   188 C61      -7.2436    1.8840   -0.6973   C.3       1 RES1   0.0000
   189 C62      -8.0204    0.5662   -0.7358   C.3       1 RES1   0.0000
   190 C63      -7.3718   -0.5608    0.0823   C.3       1 RES1   0.0000
   191 C64      -6.2266   -1.2683   -0.6527   C.3       1 RES1   0.0000
   192 C65      -5.5131   -2.2960    0.2344   C.3       1 RES1   0.0000
   193 C66      -4.4164   -3.1360   -0.4498   C.3       1 RES1   0.0000
   194 N5       -3.4177   -2.3763   -1.1868   N.am      1 RES1   0.0000
   195 C67      -3.7627   -2.1222   -2.5760   C.3       1 RES1   0.0000
   196 C68      -2.2020   -2.0395   -0.7746   C.2       1 RES1   0.0000
   197 O7       -1.4259   -1.3566   -1.4738   O.2       1 RES1   0.0000
   198 C69      -1.6791   -2.5475    0.5728   C.3       1 RES1   0.0000
   199 O8       -0.3583   -2.0497    0.7254   O.3       1 RES1   0.0000
   200 C70       0.3421   -2.7088    1.7800   C.3       1 RES1   0.0000
   201 C71       1.6844   -1.9789    1.9839   C.2       1 RES1   0.0000
   202 O9        1.8712   -0.9903    1.2562   O.2       1 RES1   0.0000
   203 N6        2.5294   -2.4631    2.8976   N.am      1 RES1   0.0000
   204 C72       2.1347   -3.5568    3.7890   C.3       1 RES1   0.0000
   205 C73       2.6125   -3.5012    5.2549   C.3       1 RES1   0.0000
   206 C74       2.4803   -2.1533    5.9689   C.3       1 RES1   0.0000
   207 C75       2.2769   -2.3010    7.4864   C.3       1 RES1   0.0000
   208 C76       0.8100   -2.5631    7.8258   C.3       1 RES1   0.0000
   209 C77       0.4479   -2.5150    9.3114   C.3       1 RES1   0.0000
   210 C78      -1.0296   -2.1605    9.5368   C.3       1 RES1   0.0000
   211 C79      -2.0183   -3.2303    9.0721   C.3       1 RES1   0.0000
   212 C80       3.9965   -2.3507    2.8849   C.3       1 RES1   0.0000
   213 C81       4.6452   -1.1508    2.2216   C.3       1 RES1   0.0000
   214 C82       4.5323    0.1049    3.0969   C.3       1 RES1   0.0000
   215 C83       5.8167    0.9325    3.2226   C.3       1 RES1   0.0000
   216 C84       6.3618    1.5263    1.9236   C.3       1 RES1   0.0000
   217 C85       5.5460    2.6950    1.3650   C.3       1 RES1   0.0000
   218 C86       5.9020    4.0759    1.9216   C.3       1 RES1   0.0000
   219 C87       5.4375    4.3273    3.3557   C.3       1 RES1   0.0000
   220 H117     -8.4896    3.9790   -3.2071   H         1 RES1   0.0000
   221 H118     -6.8897    3.2469   -3.1829   H         1 RES1   0.0000
   222 H119     -8.3344    2.2288   -3.3184   H         1 RES1   0.0000
   223 H120     -7.5979    3.9907   -0.9342   H         1 RES1   0.0000
   224 H121     -9.0532    3.0067   -1.0330   H         1 RES1   0.0000
   225 H122     -6.2748    1.7700   -1.1985   H         1 RES1   0.0000
   226 H123     -7.0553    2.1305    0.3527   H         1 RES1   0.0000
   227 H124     -9.0120    0.7530   -0.3218   H         1 RES1   0.0000
   228 H125     -8.1579    0.2410   -1.7678   H         1 RES1   0.0000
   229 H126     -7.0182   -0.1562    1.0367   H         1 RES1   0.0000
   230 H127     -8.1369   -1.3012    0.3088   H         1 RES1   0.0000
   231 H128     -6.6499   -1.7788   -1.5210   H         1 RES1   0.0000
   232 H129     -5.5266   -0.5049   -1.0017   H         1 RES1   0.0000
   233 H130     -5.1010   -1.8021    1.1204   H         1 RES1   0.0000
   234 H131     -6.2615   -3.0096    0.5878   H         1 RES1   0.0000
   235 H132     -3.9427   -3.7504    0.3145   H         1 RES1   0.0000
   236 H133     -4.8862   -3.8055   -1.1718   H         1 RES1   0.0000
   237 H134     -4.7454   -1.6668   -2.6460   H         1 RES1   0.0000
   238 H135     -3.0098   -1.4779   -3.0226   H         1 RES1   0.0000
   239 H136     -3.7808   -3.0701   -3.1146   H         1 RES1   0.0000
   240 H137     -2.2980   -2.2061    1.4145   H         1 RES1   0.0000
   241 H138     -1.6696   -3.6460    0.5588   H         1 RES1   0.0000
   242 H139     -0.2815   -2.6971    2.6773   H         1 RES1   0.0000
   243 H140      0.5556   -3.7492    1.4985   H         1 RES1   0.0000
   244 H141      1.0532   -3.5906    3.8199   H         1 RES1   0.0000
   245 H142      2.5064   -4.4958    3.3670   H         1 RES1   0.0000
   246 H143      1.9835   -4.2255    5.7757   H         1 RES1   0.0000
   247 H144      3.6377   -3.8571    5.3382   H         1 RES1   0.0000
   248 H145      3.3787   -1.5588    5.8032   H         1 RES1   0.0000
   249 H146      1.6374   -1.6051    5.5443   H         1 RES1   0.0000
   250 H147      2.9184   -3.0946    7.8719   H         1 RES1   0.0000
   251 H148      2.5857   -1.3742    7.9727   H         1 RES1   0.0000
   252 H149      0.2286   -1.7731    7.3457   H         1 RES1   0.0000
   253 H150      0.5041   -3.5220    7.4052   H         1 RES1   0.0000
   254 H151      0.6594   -3.4694    9.7920   H         1 RES1   0.0000
   255 H152      1.0595   -1.7565    9.8044   H         1 RES1   0.0000
   256 H153     -1.1753   -1.9895   10.6055   H         1 RES1   0.0000
   257 H154     -1.2585   -1.2249    9.0142   H         1 RES1   0.0000
   258 H155     -1.7283   -4.2122    9.4388   H         1 RES1   0.0000
   259 H156     -3.0143   -3.0069    9.4500   H         1 RES1   0.0000
   260 H157     -2.0805   -3.2681    7.9861   H         1 RES1   0.0000
   261 H158      4.3159   -2.3610    3.9239   H         1 RES1   0.0000
   262 H159      4.3642   -3.2697    2.4187   H         1 RES1   0.0000
   263 H160      5.6986   -1.3992    2.0815   H         1 RES1   0.0000
   264 H161      4.2099   -1.0207    1.2353   H         1 RES1   0.0000
   265 H162      3.7033    0.7257    2.7537   H         1 RES1   0.0000
   266 H163      4.2914   -0.2058    4.1149   H         1 RES1   0.0000
   267 H164      5.6104    1.7368    3.9288   H         1 RES1   0.0000
   268 H165      6.5909    0.3009    3.6649   H         1 RES1   0.0000
   269 H166      7.3768    1.8742    2.1130   H         1 RES1   0.0000
   270 H167      6.4233    0.7383    1.1672   H         1 RES1   0.0000
   271 H168      5.6967    2.7286    0.2841   H         1 RES1   0.0000
   272 H169      4.4860    2.5092    1.5427   H         1 RES1   0.0000
   273 H170      6.9818    4.2059    1.8695   H         1 RES1   0.0000
   274 H171      5.4502    4.8241    1.2639   H         1 RES1   0.0000
   275 H172      6.1330    3.9144    4.0800   H         1 RES1   0.0000
   276 H173      5.3687    5.3953    3.5461   H         1 RES1   0.0000
   277 H174      4.4578    3.8852    3.5353   H         1 RES1   0.0000
@<TRIPOS>BOND
     1     1    13    1
     2     1    15    1
     3     1    18    1
     4     1   105    1
     5     1   107    1
     6     1   110    1
     7     1   197    1
     8     1   199    1
     9     1   202    1
    10     2     3    1
    11     2    36    1
    12     2    37    1
    13     2    38    1
    14     3     4    1
    15     3    39    1
    16     3    40    1
    17     4     5    1
    18     4    41    1
    19     4    42    1
    20     5     6    1
    21     5    43    1
    22     5    44    1
    23     6     7    1
    24     6    45    1
    25     6    46    1
    26     7     8    1
    27     7    47    1
    28     7    48    1
    29     8     9    1
    30     8    49    1
    31     8    50    1
    32     9    10    1
    33     9    51    1
    34     9    52    1
    35    10    11    1
    36    10    12    1
    37    11    53    1
    38    11    54    1
    39    11    55    1
    40    12    13    2
    41    12    14    1
    42    14    15    1
    43    14    56    1
    44    14    57    1
    45    15    16    1
    46    16    17    1
    47    16    58    1
    48    16    59    1
    49    17    18    2
    50    17    19    1
    51    19    20    1
    52    19    28    1
    53    20    21    1
    54    20    60    1
    55    20    61    1
    56    21    22    1
    57    21    62    1
    58    21    63    1
    59    22    23    1
    60    22    64    1
    61    22    65    1
    62    23    24    1
    63    23    66    1
    64    23    67    1
    65    24    25    1
    66    24    68    1
    67    24    69    1
    68    25    26    1
    69    25    70    1
    70    25    71    1
    71    26    27    1
    72    26    72    1
    73    26    73    1
    74    27    74    1
    75    27    75    1
    76    27    76    1
    77    28    29    1
    78    28    77    1
    79    28    78    1
    80    29    30    1
    81    29    79    1
    82    29    80    1
    83    30    31    1
    84    30    81    1
    85    30    82    1
    86    31    32    1
    87    31    83    1
    88    31    84    1
    89    32    33    1
    90    32    85    1
    91    32    86    1
    92    33    34    1
    93    33    87    1
    94    33    88    1
    95    34    35    1
    96    34    89    1
    97    34    90    1
    98    35    91    1
    99    35    92    1
   100    35    93    1
   101    94    95    1
   102    94   128    1
   103    94   129    1
   104    94   130    1
   105    95    96    1
   106    95   131    1
   107    95   132    1
   108    96    97    1
   109    96   133    1
   110    96   134    1
   111    97    98    1
   112    97   135    1
   113    97   136    1
   114    98    99    1
   115    98   137    1
   116    98   138    1
   117    99   100    1
   118    99   139    1
   119    99   140    1
   120   100   101    1
   121   100   141    1
   122   100   142    1
   123   101   102    1
   124   101   143    1
   125   101   144    1
   126   102   103    1
   127   102   104    1
   128   103   145    1
   129   103   146    1
   130   103   147    1
   131   104   105    2
   132   104   106    1
   133   106   107    1
   134   106   148    1
   135   106   149    1
   136   107   108    1
   137   108   109    1
   138   108   150    1
   139   108   151    1
   140   109   110    2
   141   109   111    1
   142   111   112    1
   143   111   120    1
   144   112   113    1
   145   112   152    1
   146   112   153    1
   147   113   114    1
   148   113   154    1
   149   113   155    1
   150   114   115    1
   151   114   156    1
   152   114   157    1
   153   115   116    1
   154   115   158    1
   155   115   159    1
   156   116   117    1
   157   116   160    1
   158   116   161    1
   159   117   118    1
   160   117   162    1
   161   117   163    1
   162   118   119    1
   163   118   164    1
   164   118   165    1
   165   119   166    1
   166   119   167    1
   167   119   168    1
   168   120   121    1
   169   120   169    1
   170   120   170    1
   171   121   122    1
   172   121   171    1
   173   121   172    1
   174   122   123    1
   175   122   173    1
   176   122   174    1
   177   123   124    1
   178   123   175    1
   179   123   176    1
   180   124   125    1
   181   124   177    1
   182   124   178    1
   183   125   126    1
   184   125   179    1
   185   125   180    1
   186   126   127    1
   187   126   181    1
   188   126   182    1
   189   127   183    1
   190   127   184    1
   191   127   185    1
   192   186   187    1
   193   186   220    1
   194   186   221    1
   195   186   222    1
   196   187   188    1
   197   187   223    1
   198   187   224    1
   199   188   189    1
   200   188   225    1
   201   188   226    1
   202   189   190    1
   203   189   227    1
   204   189   228    1
   205   190   191    1
   206   190   229    1
   207   190   230    1
   208   191   192    1
   209   191   231    1
   210   191   232    1
   211   192   193    1
   212   192   233    1
   213   192   234    1
   214   193   194    1
   215   193   235    1
   216   193   236    1
   217   194   195    1
   218   194   196    1
   219   195   237    1
   220   195   238    1
   221   195   239    1
   222   196   197    2
   223   196   198    1
   224   198   199    1
   225   198   240    1
   226   198   241    1
   227   199   200    1
   228   200   201    1
   229   200   242    1
   230   200   243    1
   231   201   202    2
   232   201   203    1
   233   203   204    1
   234   203   212    1
   235   204   205    1
   236   204   244    1
   237   204   245    1
   238   205   206    1
   239   205   246    1
   240   205   247    1
   241   206   207    1
   242   206   248    1
   243   206   249    1
   244   207   208    1
   245   207   250    1
   246   207   251    1
   247   208   209    1
   248   208   252    1
   249   208   253    1
   250   209   210    1
   251   209   254    1
   252   209   255    1
   253   210   211    1
   254   210   256    1
   255   210   257    1
   256   211   258    1
   257   211   259    1
   258   211   260    1
   259   212   213    1
   260   212   261    1
   261   212   262    1
   262   213   214    1
   263   213   263    1
   264   213   264    1
   265   214   215    1
   266   214   265    1
   267   214   266    1
   268   215   216    1
   269   215   267    1
   270   215   268    1
   271   216   217    1
   272   216   269    1
   273   216   270    1
   274   217   218    1
   275   217   271    1
   276   217   272    1
   277   218   219    1
   278   218   273    1
   279   218   274    1
   280   219   275    1
   281   219   276    1
   282   219   277    1
@<TRIPOS>SUBSTRUCTURE
     1 RES1      277 GROUP             0 ****  ****    0  
