@<TRIPOS>MOLECULE
am_c3_9H2O_c0_0_nunpairedes_0_charge_2 Charge: 2 Unpaired_Electrons: 1 XTB_Unpaired_Electrons: 0 XTB_Charge: 2
    70    78     1     0     0
SMALL
NoCharges
****
Generated from Architector

@<TRIPOS>ATOM
     1 Ce1       0.1162   -0.3269    0.0703   Ce        1 RES1   0.0000
     2 C1        1.4034    5.0955    1.9985   C.3       1 RES1   0.0000
     3 C2        0.4154    4.7353    3.1145   C.3       1 RES1   0.0000
     4 C3       -0.0015    3.2594    3.0393   C.3       1 RES1   0.0000
     5 C4       -0.2086    2.8795    1.5713   C.3       1 RES1   0.0000
     6 O1       -0.7974    1.5657    1.3891   O.3       1 RES1   0.0000
     7 C5       -2.2089    1.5509    1.6415   C.3       1 RES1   0.0000
     8 C6       -2.6933    0.1059    1.7562   C.3       1 RES1   0.0000
     9 O2       -2.3157   -0.5829    0.5621   O.3       1 RES1   0.0000
    10 C7       -2.8374   -1.9218    0.4919   C.3       1 RES1   0.0000
    11 C8       -2.1692   -2.6669   -0.6966   C.3       1 RES1   0.0000
    12 O3       -1.2063   -1.8641   -1.3896   O.3       1 RES1   0.0000
    13 C9       -1.5599   -1.2457   -2.6602   C.3       1 RES1   0.0000
    14 C10      -2.5551   -1.9941   -3.5452   C.3       1 RES1   0.0000
    15 C11      -3.9780   -1.4833   -3.3351   C.3       1 RES1   0.0000
    16 C12      -4.1096   -0.0229   -3.7959   C.3       1 RES1   0.0000
    17 C13      -2.7953    0.7583   -3.6140   C.3       1 RES1   0.0000
    18 C14      -2.0191    0.2070   -2.4198   C.3       1 RES1   0.0000
    19 O4       -0.8783    1.0053   -2.0027   O.3       1 RES1   0.0000
    20 C15      -0.0092    1.3876   -3.0851   C.3       1 RES1   0.0000
    21 C16       1.4215    1.4909   -2.5643   C.3       1 RES1   0.0000
    22 O5        1.6558    0.3557   -1.7214   O.3       1 RES1   0.0000
    23 C17       2.9234    0.4075   -1.0636   C.3       1 RES1   0.0000
    24 C18       2.9333    1.5620   -0.0464   C.3       1 RES1   0.0000
    25 O6        1.6305    1.6186    0.5584   O.3       1 RES1   0.0000
    26 C19       1.1335    2.9531    0.7790   C.3       1 RES1   0.0000
    27 C20       2.1320    3.8463    1.5236   C.3       1 RES1   0.0000
    28 H1        2.1173    5.8354    2.3531   H         1 RES1   0.0000
    29 H2        0.8824    5.5444    1.1521   H         1 RES1   0.0000
    30 H3       -0.4660    5.3724    3.0395   H         1 RES1   0.0000
    31 H4        0.8666    4.9218    4.0873   H         1 RES1   0.0000
    32 H5       -0.9210    3.1272    3.6082   H         1 RES1   0.0000
    33 H6        0.7505    2.6181    3.4961   H         1 RES1   0.0000
    34 H7       -0.8918    3.6212    1.1348   H         1 RES1   0.0000
    35 H8       -2.7256    2.0648    0.8184   H         1 RES1   0.0000
    36 H9       -2.4295    2.0695    2.5797   H         1 RES1   0.0000
    37 H10      -3.7868    0.1237    1.8618   H         1 RES1   0.0000
    38 H11      -2.2535   -0.3823    2.6417   H         1 RES1   0.0000
    39 H12      -3.9240   -1.8782    0.3483   H         1 RES1   0.0000
    40 H13      -2.6120   -2.4621    1.4216   H         1 RES1   0.0000
    41 H14      -2.9249   -3.0389   -1.3874   H         1 RES1   0.0000
    42 H15      -1.6071   -3.5258   -0.3157   H         1 RES1   0.0000
    43 H16      -0.5847   -1.2327   -3.1651   H         1 RES1   0.0000
    44 H17      -2.4718   -3.0658   -3.3725   H         1 RES1   0.0000
    45 H18      -2.2791   -1.8296   -4.5874   H         1 RES1   0.0000
    46 H19      -4.2576   -1.5600   -2.2821   H         1 RES1   0.0000
    47 H20      -4.6685   -2.1074   -3.8995   H         1 RES1   0.0000
    48 H21      -4.9244    0.4501   -3.2429   H         1 RES1   0.0000
    49 H22      -4.3748    0.0096   -4.8529   H         1 RES1   0.0000
    50 H23      -3.0190    1.8124   -3.4557   H         1 RES1   0.0000
    51 H24      -2.1963    0.6782   -4.5194   H         1 RES1   0.0000
    52 H25      -2.6780    0.2395   -1.5425   H         1 RES1   0.0000
    53 H26      -0.3304    2.3560   -3.4814   H         1 RES1   0.0000
    54 H27      -0.0400    0.6420   -3.8840   H         1 RES1   0.0000
    55 H28       1.5415    2.4253   -2.0047   H         1 RES1   0.0000
    56 H29       2.1246    1.4967   -3.4061   H         1 RES1   0.0000
    57 H30       3.7402    0.5176   -1.7879   H         1 RES1   0.0000
    58 H31       3.0326   -0.5598   -0.5618   H         1 RES1   0.0000
    59 H32       3.1582    2.4985   -0.5621   H         1 RES1   0.0000
    60 H33       3.6942    1.3896    0.7244   H         1 RES1   0.0000
    61 H34       0.9159    3.4071   -0.2042   H         1 RES1   0.0000
    62 H35       2.9625    4.1292    0.8803   H         1 RES1   0.0000
    63 H36       2.5425    3.3199    2.3833   H         1 RES1   0.0000
    64 N1        0.8064   -2.6640    0.6551   N.3       1 RES1   0.0000
    65 O7        1.1526   -3.7719    0.8932   O.2       1 RES1   0.0000
    66 O8       -0.1713   -2.1464    1.2284   O.co2     1 RES1   0.0000
    67 O9        1.4189   -1.9477   -0.1647   O.co2     1 RES1   0.0000
    68 O10       1.2938   -0.4070    2.4395   O.3       1 RES1   0.0000
    69 H37       0.7294   -0.5147    3.2185   H         1 RES1   0.0000
    70 H38       2.1361   -0.8116    2.6790   H         1 RES1   0.0000
@<TRIPOS>BOND
     1     1     6    1
     2     1     9    1
     3     1    12    1
     4     1    19    1
     5     1    22    1
     6     1    25    1
     7     1    66    1
     8     1    67    1
     9     1    68    1
    10     2     3    1
    11     2    27    1
    12     2    28    1
    13     2    29    1
    14     3     4    1
    15     3    30    1
    16     3    31    1
    17     4     5    1
    18     4    32    1
    19     4    33    1
    20     5     6    1
    21     5    26    1
    22     5    34    1
    23     6     7    1
    24     7     8    1
    25     7    35    1
    26     7    36    1
    27     8     9    1
    28     8    37    1
    29     8    38    1
    30     9    10    1
    31    10    11    1
    32    10    39    1
    33    10    40    1
    34    11    12    1
    35    11    41    1
    36    11    42    1
    37    12    13    1
    38    13    14    1
    39    13    18    1
    40    13    43    1
    41    14    15    1
    42    14    44    1
    43    14    45    1
    44    15    16    1
    45    15    46    1
    46    15    47    1
    47    16    17    1
    48    16    48    1
    49    16    49    1
    50    17    18    1
    51    17    50    1
    52    17    51    1
    53    18    19    1
    54    18    52    1
    55    19    20    1
    56    20    21    1
    57    20    53    1
    58    20    54    1
    59    21    22    1
    60    21    55    1
    61    21    56    1
    62    22    23    1
    63    23    24    1
    64    23    57    1
    65    23    58    1
    66    24    25    1
    67    24    59    1
    68    24    60    1
    69    25    26    1
    70    26    27    1
    71    26    61    1
    72    27    62    1
    73    27    63    1
    74    64    65    2
    75    64    66    1
    76    64    67    1
    77    68    69    1
    78    68    70    1
@<TRIPOS>SUBSTRUCTURE
     1 RES1       70 GROUP             0 ****  ****    0  
