@<TRIPOS>MOLECULE
cn9_YICLED_0_nunpairedes_0_charge_3 Charge: 3 Unpaired_Electrons: 1 XTB_Unpaired_Electrons: 0 XTB_Charge: 3
   340   345     1     0     0
SMALL
NoCharges
****
Generated from Architector

@<TRIPOS>ATOM
     1 Ce1      -0.0748   -0.0750    0.3273   Ce        1 RES1   0.0000
     2 C1       -2.3134    6.6643    0.9945   C.3       1 RES1   0.0000
     3 C2       -1.0910    7.3030    0.3445   C.3       1 RES1   0.0000
     4 C3        0.2008    6.5475    0.6590   C.3       1 RES1   0.0000
     5 C4        1.4441    7.2123    0.0585   C.3       1 RES1   0.0000
     6 C5        2.7107    6.8988    0.8563   C.3       1 RES1   0.0000
     7 C6        3.0821    5.4094    0.8998   C.3       1 RES1   0.0000
     8 C7        3.8408    4.9277   -0.3491   C.3       1 RES1   0.0000
     9 C8        3.4051    3.5702   -0.9149   C.3       1 RES1   0.0000
    10 N1        3.9774    2.3282   -0.3659   N.am      1 RES1   0.0000
    11 C9        5.3924    2.0942   -0.6753   C.3       1 RES1   0.0000
    12 C10       6.3717    1.7879    0.4729   C.3       1 RES1   0.0000
    13 C11       6.8931    2.9929    1.2572   C.3       1 RES1   0.0000
    14 C12       5.9324    3.5057    2.3233   C.3       1 RES1   0.0000
    15 C13       6.5484    4.6432    3.1497   C.3       1 RES1   0.0000
    16 C14       7.1666    4.1243    4.4556   C.3       1 RES1   0.0000
    17 C15       8.2834    5.0012    5.0229   C.3       1 RES1   0.0000
    18 C16       7.8083    6.3850    5.4354   C.3       1 RES1   0.0000
    19 C17       3.1328    1.3396   -0.0691   C.2       1 RES1   0.0000
    20 O1        1.9081    1.5154    0.0937   O.2       1 RES1   0.0000
    21 C18       3.6456   -0.0973    0.0480   C.3       1 RES1   0.0000
    22 O2        2.5296   -0.8630    0.4574   O.3       1 RES1   0.0000
    23 C19       2.8211   -2.2273    0.7131   C.3       1 RES1   0.0000
    24 C20       1.5557   -2.8151    1.3510   C.2       1 RES1   0.0000
    25 O3        0.6015   -2.0442    1.5904   O.2       1 RES1   0.0000
    26 N2        1.5253   -4.1182    1.6178   N.am      1 RES1   0.0000
    27 C21       0.2746   -4.7155    2.0815   C.3       1 RES1   0.0000
    28 C22      -0.1144   -4.4515    3.5387   C.3       1 RES1   0.0000
    29 C23       0.4860   -5.3758    4.6031   C.3       1 RES1   0.0000
    30 C24       1.9311   -5.0725    5.0106   C.3       1 RES1   0.0000
    31 C25       2.2554   -5.4630    6.4611   C.3       1 RES1   0.0000
    32 C26       2.6899   -6.9135    6.6688   C.3       1 RES1   0.0000
    33 C27       1.6034   -7.9599    6.4491   C.3       1 RES1   0.0000
    34 C28       2.0522   -9.3286    6.9435   C.3       1 RES1   0.0000
    35 C29       2.6422   -5.0285    1.4100   C.3       1 RES1   0.0000
    36 C30       2.6103   -5.8446    0.1010   C.3       1 RES1   0.0000
    37 C31       1.6810   -7.0744    0.0994   C.3       1 RES1   0.0000
    38 C32       0.3658   -6.9018   -0.6727   C.3       1 RES1   0.0000
    39 C33      -0.6066   -8.0565   -0.3677   C.3       1 RES1   0.0000
    40 C34      -1.4178   -8.5633   -1.5655   C.3       1 RES1   0.0000
    41 C35      -2.7276   -7.8279   -1.8324   C.3       1 RES1   0.0000
    42 C36      -2.5345   -6.3566   -2.1666   C.3       1 RES1   0.0000
    43 H1       -3.1958    7.2611    0.7928   H         1 RES1   0.0000
    44 H2       -2.1885    6.6091    2.0722   H         1 RES1   0.0000
    45 H3       -2.4857    5.6549    0.6203   H         1 RES1   0.0000
    46 H4       -0.9997    8.3242    0.7178   H         1 RES1   0.0000
    47 H5       -1.2245    7.3549   -0.7391   H         1 RES1   0.0000
    48 H6        0.1109    5.5252    0.2839   H         1 RES1   0.0000
    49 H7        0.3204    6.4995    1.7447   H         1 RES1   0.0000
    50 H8        1.2972    8.2918    0.0690   H         1 RES1   0.0000
    51 H9        1.5606    6.9128   -0.9844   H         1 RES1   0.0000
    52 H10       2.5564    7.2481    1.8806   H         1 RES1   0.0000
    53 H11       3.5476    7.4650    0.4524   H         1 RES1   0.0000
    54 H12       2.1701    4.8279    1.0334   H         1 RES1   0.0000
    55 H13       3.6962    5.2628    1.7863   H         1 RES1   0.0000
    56 H14       4.9150    4.9411   -0.1606   H         1 RES1   0.0000
    57 H15       3.6545    5.6476   -1.1491   H         1 RES1   0.0000
    58 H16       3.6683    3.5623   -1.9771   H         1 RES1   0.0000
    59 H17       2.3180    3.4859   -0.8496   H         1 RES1   0.0000
    60 H18       5.7524    2.9930   -1.1776   H         1 RES1   0.0000
    61 H19       5.4466    1.2747   -1.4018   H         1 RES1   0.0000
    62 H20       7.2247    1.3022    0.0005   H         1 RES1   0.0000
    63 H21       5.9583    1.0701    1.1786   H         1 RES1   0.0000
    64 H22       7.1287    3.8022    0.5634   H         1 RES1   0.0000
    65 H23       7.8270    2.7046    1.7393   H         1 RES1   0.0000
    66 H24       5.6731    2.6959    3.0010   H         1 RES1   0.0000
    67 H25       5.0129    3.8257    1.8346   H         1 RES1   0.0000
    68 H26       5.7849    5.3865    3.3792   H         1 RES1   0.0000
    69 H27       7.3133    5.1361    2.5528   H         1 RES1   0.0000
    70 H28       7.5738    3.1279    4.2801   H         1 RES1   0.0000
    71 H29       6.3800    4.0282    5.2073   H         1 RES1   0.0000
    72 H30       9.0887    5.0918    4.2935   H         1 RES1   0.0000
    73 H31       8.6980    4.4993    5.8988   H         1 RES1   0.0000
    74 H32       7.3745    6.9170    4.5938   H         1 RES1   0.0000
    75 H33       8.6376    6.9743    5.8132   H         1 RES1   0.0000
    76 H34       7.0626    6.3107    6.2221   H         1 RES1   0.0000
    77 H35       4.4626   -0.1884    0.7696   H         1 RES1   0.0000
    78 H36       4.0133   -0.4268   -0.9351   H         1 RES1   0.0000
    79 H37       3.6720   -2.3054    1.4059   H         1 RES1   0.0000
    80 H38       3.0664   -2.7667   -0.2184   H         1 RES1   0.0000
    81 H39       0.3321   -5.7868    1.9154   H         1 RES1   0.0000
    82 H40      -0.5112   -4.3032    1.4465   H         1 RES1   0.0000
    83 H41      -1.1955   -4.5890    3.5865   H         1 RES1   0.0000
    84 H42       0.0995   -3.4122    3.7801   H         1 RES1   0.0000
    85 H43       0.3921   -6.4126    4.2789   H         1 RES1   0.0000
    86 H44      -0.1389   -5.2690    5.4925   H         1 RES1   0.0000
    87 H45       2.0971   -3.9962    4.9016   H         1 RES1   0.0000
    88 H46       2.6364   -5.5770    4.3475   H         1 RES1   0.0000
    89 H47       1.3933   -5.2481    7.0978   H         1 RES1   0.0000
    90 H48       3.0757   -4.8261    6.7992   H         1 RES1   0.0000
    91 H49       3.0386   -7.0002    7.6985   H         1 RES1   0.0000
    92 H50       3.5378   -7.1352    6.0162   H         1 RES1   0.0000
    93 H51       1.3672   -8.0344    5.3864   H         1 RES1   0.0000
    94 H52       0.6955   -7.6691    6.9811   H         1 RES1   0.0000
    95 H53       2.9654   -9.6393    6.4408   H         1 RES1   0.0000
    96 H54       1.2821  -10.0724    6.7564   H         1 RES1   0.0000
    97 H55       2.2482   -9.3092    8.0123   H         1 RES1   0.0000
    98 H56       2.6587   -5.7243    2.2509   H         1 RES1   0.0000
    99 H57       3.5761   -4.4644    1.4413   H         1 RES1   0.0000
   100 H58       3.6282   -6.2027   -0.0614   H         1 RES1   0.0000
   101 H59       2.3659   -5.1837   -0.7322   H         1 RES1   0.0000
   102 H60       1.4751   -7.3746    1.1273   H         1 RES1   0.0000
   103 H61       2.2105   -7.9148   -0.3545   H         1 RES1   0.0000
   104 H62       0.5942   -6.9012   -1.7401   H         1 RES1   0.0000
   105 H63      -0.0891   -5.9362   -0.4355   H         1 RES1   0.0000
   106 H64      -1.2904   -7.7725    0.4353   H         1 RES1   0.0000
   107 H65      -0.0092   -8.8911   -0.0004   H         1 RES1   0.0000
   108 H66      -1.6644   -9.6094   -1.3857   H         1 RES1   0.0000
   109 H67      -0.7949   -8.5288   -2.4600   H         1 RES1   0.0000
   110 H68      -3.3844   -7.9175   -0.9658   H         1 RES1   0.0000
   111 H69      -3.2257   -8.3160   -2.6697   H         1 RES1   0.0000
   112 H70      -1.7946   -6.2471   -2.9576   H         1 RES1   0.0000
   113 H71      -2.1970   -5.8131   -1.2871   H         1 RES1   0.0000
   114 H72      -3.4692   -5.9202   -2.5074   H         1 RES1   0.0000
   115 C37       2.0595    4.9388   -3.9935   C.3       1 RES1   0.0000
   116 C38       2.0652    3.7972   -5.0037   C.3       1 RES1   0.0000
   117 C39       2.5704    2.4816   -4.4066   C.3       1 RES1   0.0000
   118 C40       2.9238    1.4349   -5.4683   C.3       1 RES1   0.0000
   119 C41       1.7806    1.0520   -6.4055   C.3       1 RES1   0.0000
   120 C42       0.7041    0.1785   -5.7581   C.3       1 RES1   0.0000
   121 C43       1.1646   -1.2782   -5.5644   C.3       1 RES1   0.0000
   122 C44       1.3138   -1.7236   -4.1068   C.3       1 RES1   0.0000
   123 N3        0.1417   -2.3887   -3.5121   N.am      1 RES1   0.0000
   124 C45      -0.3328   -3.6127   -4.1657   C.3       1 RES1   0.0000
   125 C46      -1.7703   -3.6617   -4.7135   C.3       1 RES1   0.0000
   126 C47      -2.0350   -3.0402   -6.0928   C.3       1 RES1   0.0000
   127 C48      -2.5056   -1.5952   -5.9625   C.3       1 RES1   0.0000
   128 C49      -2.8544   -0.8982   -7.2797   C.3       1 RES1   0.0000
   129 C50      -4.3171   -1.0877   -7.7075   C.3       1 RES1   0.0000
   130 C51      -4.5589   -2.2412   -8.6822   C.3       1 RES1   0.0000
   131 C52      -4.1213   -1.8912  -10.0976   C.3       1 RES1   0.0000
   132 C53      -0.1055   -2.1205   -2.2303   C.2       1 RES1   0.0000
   133 O4        0.5704   -1.3079   -1.5717   O.2       1 RES1   0.0000
   134 C54      -1.2181   -2.8725   -1.4898   C.3       1 RES1   0.0000
   135 O5       -1.3666   -2.2347   -0.2333   O.3       1 RES1   0.0000
   136 C55      -2.6240   -2.3679    0.4208   C.3       1 RES1   0.0000
   137 C56      -2.9557   -0.9702    0.9687   C.2       1 RES1   0.0000
   138 O6       -2.3739   -0.0120    0.4239   O.2       1 RES1   0.0000
   139 N4       -3.8571   -0.7862    1.9224   N.am      1 RES1   0.0000
   140 C57      -4.0563    0.5875    2.3749   C.3       1 RES1   0.0000
   141 C58      -4.8546    1.4860    1.4155   C.3       1 RES1   0.0000
   142 C59      -6.3665    1.4933    1.6487   C.3       1 RES1   0.0000
   143 C60      -7.0756    0.2867    1.0382   C.3       1 RES1   0.0000
   144 C61      -8.5726    0.2407    1.3638   C.3       1 RES1   0.0000
   145 C62      -8.9311   -0.4862    2.6622   C.3       1 RES1   0.0000
   146 C63      -8.5333    0.2346    3.9477   C.3       1 RES1   0.0000
   147 C64      -9.2020   -0.3971    5.1611   C.3       1 RES1   0.0000
   148 C65      -4.4808   -1.8639    2.6678   C.3       1 RES1   0.0000
   149 C66      -3.5593   -2.4942    3.7247   C.3       1 RES1   0.0000
   150 C67      -3.1863   -1.5887    4.8967   C.3       1 RES1   0.0000
   151 C68      -2.3141   -2.3473    5.9050   C.3       1 RES1   0.0000
   152 C69      -1.7340   -1.4298    6.9929   C.3       1 RES1   0.0000
   153 C70      -0.2984   -1.7899    7.4094   C.3       1 RES1   0.0000
   154 C71       0.7610   -0.8985    6.7553   C.3       1 RES1   0.0000
   155 C72       0.9101   -1.1254    5.2540   C.3       1 RES1   0.0000
   156 H73       1.6224    5.8292   -4.4341   H         1 RES1   0.0000
   157 H74       1.4856    4.6774   -3.1050   H         1 RES1   0.0000
   158 H75       3.0733    5.1804   -3.6885   H         1 RES1   0.0000
   159 H76       1.0553    3.6593   -5.3942   H         1 RES1   0.0000
   160 H77       2.7093    4.0725   -5.8408   H         1 RES1   0.0000
   161 H78       3.4862    2.6868   -3.8432   H         1 RES1   0.0000
   162 H79       1.8317    2.0849   -3.6992   H         1 RES1   0.0000
   163 H80       3.7400    1.8406   -6.0683   H         1 RES1   0.0000
   164 H81       3.2996    0.5381   -4.9683   H         1 RES1   0.0000
   165 H82       1.3181    1.9567   -6.7971   H         1 RES1   0.0000
   166 H83       2.2000    0.5137   -7.2567   H         1 RES1   0.0000
   167 H84       0.4129    0.6129   -4.7988   H         1 RES1   0.0000
   168 H85      -0.1641    0.1984   -6.4140   H         1 RES1   0.0000
   169 H86       0.4822   -1.9455   -6.0840   H         1 RES1   0.0000
   170 H87       2.1401   -1.3960   -6.0392   H         1 RES1   0.0000
   171 H88       2.1496   -2.4286   -4.0358   H         1 RES1   0.0000
   172 H89       1.5448   -0.8622   -3.4757   H         1 RES1   0.0000
   173 H90       0.3601   -3.8218   -4.9813   H         1 RES1   0.0000
   174 H91      -0.2336   -4.4287   -3.4413   H         1 RES1   0.0000
   175 H92      -2.0221   -4.7202   -4.7629   H         1 RES1   0.0000
   176 H93      -2.4605   -3.2059   -4.0049   H         1 RES1   0.0000
   177 H94      -1.1511   -3.1065   -6.7278   H         1 RES1   0.0000
   178 H95      -2.8142   -3.6246   -6.5801   H         1 RES1   0.0000
   179 H96      -3.3980   -1.5951   -5.3410   H         1 RES1   0.0000
   180 H97      -1.7345   -1.0343   -5.4354   H         1 RES1   0.0000
   181 H98      -2.6722    0.1709   -7.1543   H         1 RES1   0.0000
   182 H99      -2.1916   -1.2474   -8.0678   H         1 RES1   0.0000
   183 H100     -4.9327   -1.2333   -6.8171   H         1 RES1   0.0000
   184 H101     -4.6703   -0.1744   -8.1900   H         1 RES1   0.0000
   185 H102     -4.0385   -3.1385   -8.3469   H         1 RES1   0.0000
   186 H103     -5.6248   -2.4728   -8.6976   H         1 RES1   0.0000
   187 H104     -3.0575   -1.6767  -10.1415   H         1 RES1   0.0000
   188 H105     -4.3282   -2.7105  -10.7796   H         1 RES1   0.0000
   189 H106     -4.6590   -1.0151  -10.4505   H         1 RES1   0.0000
   190 H107     -2.1597   -2.8806   -2.0468   H         1 RES1   0.0000
   191 H108     -0.8894   -3.9125   -1.3468   H         1 RES1   0.0000
   192 H109     -3.4134   -2.6576   -0.2790   H         1 RES1   0.0000
   193 H110     -2.5545   -3.1254    1.2083   H         1 RES1   0.0000
   194 H111     -4.5441    0.5537    3.3461   H         1 RES1   0.0000
   195 H112     -3.0586    1.0174    2.4955   H         1 RES1   0.0000
   196 H113     -4.4893    2.5035    1.5555   H         1 RES1   0.0000
   197 H114     -4.6441    1.2034    0.3843   H         1 RES1   0.0000
   198 H115     -6.5684    1.5594    2.7160   H         1 RES1   0.0000
   199 H116     -6.7813    2.3959    1.1911   H         1 RES1   0.0000
   200 H117     -6.9497    0.3423   -0.0472   H         1 RES1   0.0000
   201 H118     -6.6066   -0.6399    1.3737   H         1 RES1   0.0000
   202 H119     -8.9669    1.2572    1.4009   H         1 RES1   0.0000
   203 H120     -9.0859   -0.2730    0.5494   H         1 RES1   0.0000
   204 H121    -10.0145   -0.6221    2.6749   H         1 RES1   0.0000
   205 H122     -8.4805   -1.4821    2.6528   H         1 RES1   0.0000
   206 H123     -7.4487    0.1943    4.0801   H         1 RES1   0.0000
   207 H124     -8.8314    1.2815    3.8797   H         1 RES1   0.0000
   208 H125     -8.9300   -1.4465    5.2454   H         1 RES1   0.0000
   209 H126     -8.9035    0.1154    6.0718   H         1 RES1   0.0000
   210 H127    -10.2829   -0.3326    5.0741   H         1 RES1   0.0000
   211 H128     -5.3675   -1.4640    3.1634   H         1 RES1   0.0000
   212 H129     -4.8067   -2.6368    1.9658   H         1 RES1   0.0000
   213 H130     -4.0712   -3.3756    4.1143   H         1 RES1   0.0000
   214 H131     -2.6272   -2.8232    3.2647   H         1 RES1   0.0000
   215 H132     -2.6371   -0.7251    4.5145   H         1 RES1   0.0000
   216 H133     -4.0840   -1.2276    5.3926   H         1 RES1   0.0000
   217 H134     -2.9120   -3.1391    6.3572   H         1 RES1   0.0000
   218 H135     -1.4935   -2.8277    5.3727   H         1 RES1   0.0000
   219 H136     -1.7365   -0.4006    6.6315   H         1 RES1   0.0000
   220 H137     -2.3823   -1.4610    7.8648   H         1 RES1   0.0000
   221 H138     -0.2003   -1.6766    8.4894   H         1 RES1   0.0000
   222 H139     -0.0927   -2.8336    7.1720   H         1 RES1   0.0000
   223 H140      1.7264   -1.0754    7.2325   H         1 RES1   0.0000
   224 H141      0.4957    0.1395    6.9545   H         1 RES1   0.0000
   225 H142     -0.0573   -1.1925    4.7631   H         1 RES1   0.0000
   226 H143      1.4703   -0.3187    4.7906   H         1 RES1   0.0000
   227 H144      1.4546   -2.0491    5.0767   H         1 RES1   0.0000
   228 C73      -5.7036   -4.7944   -0.3889   C.3       1 RES1   0.0000
   229 C74      -6.1633   -4.0196   -1.6184   C.3       1 RES1   0.0000
   230 C75      -5.5085   -2.6425   -1.7397   C.3       1 RES1   0.0000
   231 C76      -6.0007   -1.8661   -2.9576   C.3       1 RES1   0.0000
   232 C77      -5.5686   -0.3972   -2.9859   C.3       1 RES1   0.0000
   233 C78      -4.0482   -0.1480   -3.0113   C.3       1 RES1   0.0000
   234 C79      -3.7336    1.0887   -3.8599   C.3       1 RES1   0.0000
   235 C80      -2.2380    1.4216   -3.9598   C.3       1 RES1   0.0000
   236 N5       -1.8189    2.4624   -3.0204   N.am      1 RES1   0.0000
   237 C81      -1.7967    3.8359   -3.5273   C.3       1 RES1   0.0000
   238 C82      -2.6417    4.9281   -2.8594   C.3       1 RES1   0.0000
   239 C83      -4.1535    4.6926   -2.8722   C.3       1 RES1   0.0000
   240 C84      -4.6696    3.9403   -1.6468   C.3       1 RES1   0.0000
   241 C85      -6.1369    3.5238   -1.7819   C.3       1 RES1   0.0000
   242 C86      -7.1488    4.6475   -1.5217   C.3       1 RES1   0.0000
   243 C87      -7.6554    5.3719   -2.7704   C.3       1 RES1   0.0000
   244 C88      -8.5907    4.5069   -3.6051   C.3       1 RES1   0.0000
   245 C89      -1.2305    2.0685   -1.8988   C.2       1 RES1   0.0000
   246 O7       -0.9705    0.8738   -1.6647   O.2       1 RES1   0.0000
   247 C90      -0.8501    3.0990   -0.8333   C.3       1 RES1   0.0000
   248 O8       -0.5880    2.3387    0.3288   O.3       1 RES1   0.0000
   249 C91      -0.1766    3.0664    1.4667   C.3       1 RES1   0.0000
   250 C92      -0.3049    2.0820    2.6339   C.2       1 RES1   0.0000
   251 O9       -0.7733    0.9478    2.4111   O.2       1 RES1   0.0000
   252 N6        0.0073    2.5283    3.8553   N.am      1 RES1   0.0000
   253 C93      -0.6850    1.9289    4.9894   C.3       1 RES1   0.0000
   254 C94      -2.1074    2.4973    5.1410   C.3       1 RES1   0.0000
   255 C95      -2.1868    3.7532    6.0071   C.3       1 RES1   0.0000
   256 C96      -1.6066    5.0034    5.3473   C.3       1 RES1   0.0000
   257 C97      -1.5364    6.1825    6.3307   C.3       1 RES1   0.0000
   258 C98      -0.1470    6.4355    6.9166   C.3       1 RES1   0.0000
   259 C99       0.3961    5.2925    7.7684   C.3       1 RES1   0.0000
   260 C100      1.7081    5.6733    8.4431   C.3       1 RES1   0.0000
   261 C101      1.2422    3.2919    3.9946   C.3       1 RES1   0.0000
   262 C102      2.4202    2.5092    3.3735   C.3       1 RES1   0.0000
   263 C103      3.2836    1.7862    4.4118   C.3       1 RES1   0.0000
   264 C104      4.0446    0.6139    3.7880   C.3       1 RES1   0.0000
   265 C105      5.0581   -0.0012    4.7579   C.3       1 RES1   0.0000
   266 C106      6.1177   -0.8612    4.0643   C.3       1 RES1   0.0000
   267 C107      5.5967   -2.2085    3.5530   C.3       1 RES1   0.0000
   268 C108      6.3934   -2.6889    2.3430   C.3       1 RES1   0.0000
   269 H145     -6.2014   -5.7586   -0.3502   H         1 RES1   0.0000
   270 H146     -5.9515   -4.2563    0.5237   H         1 RES1   0.0000
   271 H147     -4.6297   -4.9676   -0.4090   H         1 RES1   0.0000
   272 H148     -7.2459   -3.8966   -1.5657   H         1 RES1   0.0000
   273 H149     -5.9404   -4.5989   -2.5180   H         1 RES1   0.0000
   274 H150     -4.4238   -2.7774   -1.8255   H         1 RES1   0.0000
   275 H151     -5.7162   -2.0597   -0.8371   H         1 RES1   0.0000
   276 H152     -7.0924   -1.8923   -2.9594   H         1 RES1   0.0000
   277 H153     -5.6618   -2.3685   -3.8659   H         1 RES1   0.0000
   278 H154     -6.0036    0.1221   -2.1301   H         1 RES1   0.0000
   279 H155     -6.0023    0.0400   -3.8879   H         1 RES1   0.0000
   280 H156     -3.5460   -1.0121   -3.4524   H         1 RES1   0.0000
   281 H157     -3.6481   -0.0180   -1.9996   H         1 RES1   0.0000
   282 H158     -4.2617    1.9415   -3.4424   H         1 RES1   0.0000
   283 H159     -4.1160    0.9312   -4.8704   H         1 RES1   0.0000
   284 H160     -1.9992    1.7695   -4.9653   H         1 RES1   0.0000
   285 H161     -1.6466    0.5264   -3.7533   H         1 RES1   0.0000
   286 H162     -2.1281    3.7736   -4.5653   H         1 RES1   0.0000
   287 H163     -0.7536    4.1708   -3.5356   H         1 RES1   0.0000
   288 H164     -2.4189    5.8257   -3.4397   H         1 RES1   0.0000
   289 H165     -2.3131    5.1318   -1.8427   H         1 RES1   0.0000
   290 H166     -4.4251    4.1548   -3.7813   H         1 RES1   0.0000
   291 H167     -4.6457    5.6614   -2.9146   H         1 RES1   0.0000
   292 H168     -4.5626    4.5759   -0.7664   H         1 RES1   0.0000
   293 H169     -4.0596    3.0473   -1.4787   H         1 RES1   0.0000
   294 H170     -6.3185    2.7229   -1.0664   H         1 RES1   0.0000
   295 H171     -6.3037    3.1127   -2.7758   H         1 RES1   0.0000
   296 H172     -6.7062    5.3750   -0.8395   H         1 RES1   0.0000
   297 H173     -8.0214    4.2260   -1.0195   H         1 RES1   0.0000
   298 H174     -6.8220    5.7095   -3.3863   H         1 RES1   0.0000
   299 H175     -8.2034    6.2602   -2.4542   H         1 RES1   0.0000
   300 H176     -8.0811    3.6312   -3.9975   H         1 RES1   0.0000
   301 H177     -8.9821    5.0699   -4.4469   H         1 RES1   0.0000
   302 H178     -9.4309    4.1684   -3.0051   H         1 RES1   0.0000
   303 H179     -1.6690    3.8005   -0.6426   H         1 RES1   0.0000
   304 H180      0.0371    3.6584   -1.1719   H         1 RES1   0.0000
   305 H181     -0.8475    3.9162    1.6692   H         1 RES1   0.0000
   306 H182      0.8464    3.4447    1.3391   H         1 RES1   0.0000
   307 H183     -0.1169    2.1174    5.8986   H         1 RES1   0.0000
   308 H184     -0.7443    0.8543    4.8165   H         1 RES1   0.0000
   309 H185     -2.7317    1.7298    5.6014   H         1 RES1   0.0000
   310 H186     -2.5211    2.7043    4.1506   H         1 RES1   0.0000
   311 H187     -1.6795    3.5607    6.9519   H         1 RES1   0.0000
   312 H188     -3.2363    3.9481    6.2380   H         1 RES1   0.0000
   313 H189     -2.2387    5.2670    4.4936   H         1 RES1   0.0000
   314 H190     -0.6059    4.8016    4.9644   H         1 RES1   0.0000
   315 H191     -2.2370    6.0066    7.1475   H         1 RES1   0.0000
   316 H192     -1.8563    7.0932    5.8238   H         1 RES1   0.0000
   317 H193     -0.2041    7.3307    7.5370   H         1 RES1   0.0000
   318 H194      0.5592    6.6427    6.1078   H         1 RES1   0.0000
   319 H195      0.5572    4.4104    7.1430   H         1 RES1   0.0000
   320 H196     -0.3340    5.0340    8.5357   H         1 RES1   0.0000
   321 H197      2.4495    5.9762    7.7062   H         1 RES1   0.0000
   322 H198      2.1069    4.8338    9.0091   H         1 RES1   0.0000
   323 H199      1.5537    6.5028    9.1285   H         1 RES1   0.0000
   324 H200      1.4343    3.4409    5.0562   H         1 RES1   0.0000
   325 H201      1.1477    4.2789    3.5361   H         1 RES1   0.0000
   326 H202      3.0478    3.1850    2.7941   H         1 RES1   0.0000
   327 H203      2.0207    1.7595    2.6772   H         1 RES1   0.0000
   328 H204      2.6595    1.4113    5.2224   H         1 RES1   0.0000
   329 H205      3.9897    2.4938    4.8496   H         1 RES1   0.0000
   330 H206      4.5640    0.9768    2.8992   H         1 RES1   0.0000
   331 H207      3.3226   -0.1368    3.4505   H         1 RES1   0.0000
   332 H208      4.5292   -0.5877    5.5109   H         1 RES1   0.0000
   333 H209      5.5662    0.8111    5.2801   H         1 RES1   0.0000
   334 H210      6.9388   -1.0359    4.7592   H         1 RES1   0.0000
   335 H211      6.5320   -0.2970    3.2242   H         1 RES1   0.0000
   336 H212      4.5371   -2.1178    3.2951   H         1 RES1   0.0000
   337 H213      5.6639   -2.9565    4.3438   H         1 RES1   0.0000
   338 H214      6.3483   -1.9657    1.5273   H         1 RES1   0.0000
   339 H215      6.0234   -3.6457    1.9816   H         1 RES1   0.0000
   340 H216      7.4380   -2.8175    2.6104   H         1 RES1   0.0000
@<TRIPOS>BOND
     1     1    20    1
     2     1    22    1
     3     1    25    1
     4     1   133    1
     5     1   135    1
     6     1   138    1
     7     1   246    1
     8     1   248    1
     9     1   251    1
    10     2     3    1
    11     2    43    1
    12     2    44    1
    13     2    45    1
    14     3     4    1
    15     3    46    1
    16     3    47    1
    17     4     5    1
    18     4    48    1
    19     4    49    1
    20     5     6    1
    21     5    50    1
    22     5    51    1
    23     6     7    1
    24     6    52    1
    25     6    53    1
    26     7     8    1
    27     7    54    1
    28     7    55    1
    29     8     9    1
    30     8    56    1
    31     8    57    1
    32     9    10    1
    33     9    58    1
    34     9    59    1
    35    10    11    1
    36    10    19    1
    37    11    12    1
    38    11    60    1
    39    11    61    1
    40    12    13    1
    41    12    62    1
    42    12    63    1
    43    13    14    1
    44    13    64    1
    45    13    65    1
    46    14    15    1
    47    14    66    1
    48    14    67    1
    49    15    16    1
    50    15    68    1
    51    15    69    1
    52    16    17    1
    53    16    70    1
    54    16    71    1
    55    17    18    1
    56    17    72    1
    57    17    73    1
    58    18    74    1
    59    18    75    1
    60    18    76    1
    61    19    20    2
    62    19    21    1
    63    21    22    1
    64    21    77    1
    65    21    78    1
    66    22    23    1
    67    23    24    1
    68    23    79    1
    69    23    80    1
    70    24    25    2
    71    24    26    1
    72    26    27    1
    73    26    35    1
    74    27    28    1
    75    27    81    1
    76    27    82    1
    77    28    29    1
    78    28    83    1
    79    28    84    1
    80    29    30    1
    81    29    85    1
    82    29    86    1
    83    30    31    1
    84    30    87    1
    85    30    88    1
    86    31    32    1
    87    31    89    1
    88    31    90    1
    89    32    33    1
    90    32    91    1
    91    32    92    1
    92    33    34    1
    93    33    93    1
    94    33    94    1
    95    34    95    1
    96    34    96    1
    97    34    97    1
    98    35    36    1
    99    35    98    1
   100    35    99    1
   101    36    37    1
   102    36   100    1
   103    36   101    1
   104    37    38    1
   105    37   102    1
   106    37   103    1
   107    38    39    1
   108    38   104    1
   109    38   105    1
   110    39    40    1
   111    39   106    1
   112    39   107    1
   113    40    41    1
   114    40   108    1
   115    40   109    1
   116    41    42    1
   117    41   110    1
   118    41   111    1
   119    42   112    1
   120    42   113    1
   121    42   114    1
   122   115   116    1
   123   115   156    1
   124   115   157    1
   125   115   158    1
   126   116   117    1
   127   116   159    1
   128   116   160    1
   129   117   118    1
   130   117   161    1
   131   117   162    1
   132   118   119    1
   133   118   163    1
   134   118   164    1
   135   119   120    1
   136   119   165    1
   137   119   166    1
   138   120   121    1
   139   120   167    1
   140   120   168    1
   141   121   122    1
   142   121   169    1
   143   121   170    1
   144   122   123    1
   145   122   171    1
   146   122   172    1
   147   123   124    1
   148   123   132    1
   149   124   125    1
   150   124   173    1
   151   124   174    1
   152   125   126    1
   153   125   175    1
   154   125   176    1
   155   126   127    1
   156   126   177    1
   157   126   178    1
   158   127   128    1
   159   127   179    1
   160   127   180    1
   161   128   129    1
   162   128   181    1
   163   128   182    1
   164   129   130    1
   165   129   183    1
   166   129   184    1
   167   130   131    1
   168   130   185    1
   169   130   186    1
   170   131   187    1
   171   131   188    1
   172   131   189    1
   173   132   133    2
   174   132   134    1
   175   134   135    1
   176   134   190    1
   177   134   191    1
   178   135   136    1
   179   136   137    1
   180   136   192    1
   181   136   193    1
   182   137   138    2
   183   137   139    1
   184   139   140    1
   185   139   148    1
   186   140   141    1
   187   140   194    1
   188   140   195    1
   189   141   142    1
   190   141   196    1
   191   141   197    1
   192   142   143    1
   193   142   198    1
   194   142   199    1
   195   143   144    1
   196   143   200    1
   197   143   201    1
   198   144   145    1
   199   144   202    1
   200   144   203    1
   201   145   146    1
   202   145   204    1
   203   145   205    1
   204   146   147    1
   205   146   206    1
   206   146   207    1
   207   147   208    1
   208   147   209    1
   209   147   210    1
   210   148   149    1
   211   148   211    1
   212   148   212    1
   213   149   150    1
   214   149   213    1
   215   149   214    1
   216   150   151    1
   217   150   215    1
   218   150   216    1
   219   151   152    1
   220   151   217    1
   221   151   218    1
   222   152   153    1
   223   152   219    1
   224   152   220    1
   225   153   154    1
   226   153   221    1
   227   153   222    1
   228   154   155    1
   229   154   223    1
   230   154   224    1
   231   155   225    1
   232   155   226    1
   233   155   227    1
   234   228   229    1
   235   228   269    1
   236   228   270    1
   237   228   271    1
   238   229   230    1
   239   229   272    1
   240   229   273    1
   241   230   231    1
   242   230   274    1
   243   230   275    1
   244   231   232    1
   245   231   276    1
   246   231   277    1
   247   232   233    1
   248   232   278    1
   249   232   279    1
   250   233   234    1
   251   233   280    1
   252   233   281    1
   253   234   235    1
   254   234   282    1
   255   234   283    1
   256   235   236    1
   257   235   284    1
   258   235   285    1
   259   236   237    1
   260   236   245    1
   261   237   238    1
   262   237   286    1
   263   237   287    1
   264   238   239    1
   265   238   288    1
   266   238   289    1
   267   239   240    1
   268   239   290    1
   269   239   291    1
   270   240   241    1
   271   240   292    1
   272   240   293    1
   273   241   242    1
   274   241   294    1
   275   241   295    1
   276   242   243    1
   277   242   296    1
   278   242   297    1
   279   243   244    1
   280   243   298    1
   281   243   299    1
   282   244   300    1
   283   244   301    1
   284   244   302    1
   285   245   246    2
   286   245   247    1
   287   247   248    1
   288   247   303    1
   289   247   304    1
   290   248   249    1
   291   249   250    1
   292   249   305    1
   293   249   306    1
   294   250   251    2
   295   250   252    1
   296   252   253    1
   297   252   261    1
   298   253   254    1
   299   253   307    1
   300   253   308    1
   301   254   255    1
   302   254   309    1
   303   254   310    1
   304   255   256    1
   305   255   311    1
   306   255   312    1
   307   256   257    1
   308   256   313    1
   309   256   314    1
   310   257   258    1
   311   257   315    1
   312   257   316    1
   313   258   259    1
   314   258   317    1
   315   258   318    1
   316   259   260    1
   317   259   319    1
   318   259   320    1
   319   260   321    1
   320   260   322    1
   321   260   323    1
   322   261   262    1
   323   261   324    1
   324   261   325    1
   325   262   263    1
   326   262   326    1
   327   262   327    1
   328   263   264    1
   329   263   328    1
   330   263   329    1
   331   264   265    1
   332   264   330    1
   333   264   331    1
   334   265   266    1
   335   265   332    1
   336   265   333    1
   337   266   267    1
   338   266   334    1
   339   266   335    1
   340   267   268    1
   341   267   336    1
   342   267   337    1
   343   268   338    1
   344   268   339    1
   345   268   340    1
@<TRIPOS>SUBSTRUCTURE
     1 RES1      340 GROUP             0 ****  ****    0  
