@<TRIPOS>MOLECULE
am_c3_9H2O_c0_0_nunpairedes_0_charge_2 Charge: 2 Unpaired_Electrons: 1 XTB_Unpaired_Electrons: 0 XTB_Charge: 2
    66    75     1     0     0
SMALL
NoCharges
****
Generated from Architector

@<TRIPOS>ATOM
     1 Ce1      -0.8309   -0.6425   -1.4801   Ce        1 RES1   0.0000
     2 C1       -1.4541   -2.6573   -3.8105   C.3       1 RES1   0.0000
     3 C2       -2.3559   -3.1847   -2.6771   C.3       1 RES1   0.0000
     4 C3       -3.7456   -2.5034   -2.7058   C.3       1 RES1   0.0000
     5 C4       -3.6871   -1.0889   -2.1977   C.ar      1 RES1   0.0000
     6 N1       -3.1788   -0.9772   -0.9730   N.ar      1 RES1   0.0000
     7 N2       -2.8992    0.2053   -0.4603   N.ar      1 RES1   0.0000
     8 C5       -3.2426    1.2941   -1.1549   C.ar      1 RES1   0.0000
     9 C6       -2.2660    2.4277   -0.9838   C.ar      1 RES1   0.0000
    10 C7       -2.2826    3.7553   -0.5916   C.ar      1 RES1   0.0000
    11 C8       -1.0884    4.4670   -0.7242   C.ar      1 RES1   0.0000
    12 C9        0.0723    3.8703   -1.2148   C.ar      1 RES1   0.0000
    13 C10      -0.0147    2.5485   -1.6310   C.ar      1 RES1   0.0000
    14 C11       0.9962    1.6274   -2.2206   C.ar      1 RES1   0.0000
    15 N3        0.3913    0.6657   -2.9456   N.ar      1 RES1   0.0000
    16 N4        1.0755   -0.4532   -3.1700   N.ar      1 RES1   0.0000
    17 C12       2.3431   -0.5809   -2.8044   C.ar      1 RES1   0.0000
    18 C13       2.8477   -1.9670   -3.0618   C.3       1 RES1   0.0000
    19 C14       2.0287   -3.0073   -2.2678   C.3       1 RES1   0.0000
    20 C15       2.0714   -4.3860   -2.9090   C.3       1 RES1   0.0000
    21 C16       3.0179    0.5478   -2.2147   C.ar      1 RES1   0.0000
    22 C17       4.4291    0.5325   -1.7883   C.3       1 RES1   0.0000
    23 C18       5.4646    0.8610   -2.8929   C.3       1 RES1   0.0000
    24 C19       5.4523    2.3425   -3.2287   C.3       1 RES1   0.0000
    25 N5        2.2779    1.6099   -1.9079   N.ar      1 RES1   0.0000
    26 N6       -1.1605    1.8622   -1.4853   N.ar      1 RES1   0.0000
    27 N7       -3.8898    1.2635   -2.3121   N.ar      1 RES1   0.0000
    28 C20      -4.0468    0.0934   -2.9179   C.ar      1 RES1   0.0000
    29 C21      -4.3193    0.1391   -4.3791   C.3       1 RES1   0.0000
    30 C22      -3.8329    1.4758   -4.9758   C.3       1 RES1   0.0000
    31 C23      -4.9536    2.5073   -4.9457   C.3       1 RES1   0.0000
    32 H1       -0.5221   -3.2216   -3.8443   H         1 RES1   0.0000
    33 H2       -1.2362   -1.5617   -3.7454   H         1 RES1   0.0000
    34 H3       -1.9418   -2.8304   -4.7694   H         1 RES1   0.0000
    35 H4       -1.8818   -3.0822   -1.6699   H         1 RES1   0.0000
    36 H5       -2.5188   -4.2567   -2.8300   H         1 RES1   0.0000
    37 H6       -4.4245   -3.0664   -2.0560   H         1 RES1   0.0000
    38 H7       -4.1530   -2.5381   -3.7174   H         1 RES1   0.0000
    39 H8       -3.1688    4.2211   -0.1921   H         1 RES1   0.0000
    40 H9       -1.0626    5.5100   -0.4406   H         1 RES1   0.0000
    41 H10       1.0096    4.4081   -1.2534   H         1 RES1   0.0000
    42 H11       3.9061   -2.0863   -2.8487   H         1 RES1   0.0000
    43 H12       2.6886   -2.1753   -4.1239   H         1 RES1   0.0000
    44 H13       0.9612   -2.6805   -2.2051   H         1 RES1   0.0000
    45 H14       2.4198   -3.0877   -1.2523   H         1 RES1   0.0000
    46 H15       1.6912   -4.3778   -3.9288   H         1 RES1   0.0000
    47 H16       1.4728   -5.0841   -2.3289   H         1 RES1   0.0000
    48 H17       3.0947   -4.7459   -2.9228   H         1 RES1   0.0000
    49 H18       4.6474   -0.4659   -1.4054   H         1 RES1   0.0000
    50 H19       4.5534    1.2738   -0.9970   H         1 RES1   0.0000
    51 H20       5.2761    0.2518   -3.7791   H         1 RES1   0.0000
    52 H21       6.4469    0.5990   -2.5025   H         1 RES1   0.0000
    53 H22       4.5365    2.6154   -3.7494   H         1 RES1   0.0000
    54 H23       6.3028    2.5766   -3.8662   H         1 RES1   0.0000
    55 H24       5.5386    2.9423   -2.3224   H         1 RES1   0.0000
    56 H25      -5.3913    0.0583   -4.5913   H         1 RES1   0.0000
    57 H26      -3.8343   -0.7149   -4.8620   H         1 RES1   0.0000
    58 H27      -3.5123    1.3159   -6.0047   H         1 RES1   0.0000
    59 H28      -2.9741    1.8353   -4.3982   H         1 RES1   0.0000
    60 H29      -5.7689    2.1898   -5.5956   H         1 RES1   0.0000
    61 H30      -4.5998    3.4743   -5.2935   H         1 RES1   0.0000
    62 H31      -5.3341    2.6092   -3.9310   H         1 RES1   0.0000
    63 N8        0.7958   -1.1744    0.0600   N.3       1 RES1   0.0000
    64 O1        1.9375   -1.4794    0.1556   O.2       1 RES1   0.0000
    65 O2        0.4369    0.0120    0.0496   O.co2     1 RES1   0.0000
    66 O3       -0.0953   -2.0165   -0.1371   O.co2     1 RES1   0.0000
@<TRIPOS>BOND
     1     1     6    1
     2     1     7    1
     3     1    15    1
     4     1    16    1
     5     1    25    1
     6     1    26    1
     7     1    27    1
     8     1    65    1
     9     1    66    1
    10     2     3    1
    11     2    32    1
    12     2    33    1
    13     2    34    1
    14     3     4    1
    15     3    35    1
    16     3    36    1
    17     4     5    1
    18     4    37    1
    19     4    38    1
    20     5     6    1
    21     5    28    2
    22     6     7    2
    23     7     8    1
    24     8     9    1
    25     8    27    2
    26     9    10    1
    27     9    26    2
    28    10    11    2
    29    10    39    1
    30    11    12    1
    31    11    40    1
    32    12    13    2
    33    12    41    1
    34    13    14    1
    35    13    26    1
    36    14    15    1
    37    14    25    2
    38    15    16    2
    39    16    17    1
    40    17    18    1
    41    17    21    2
    42    18    19    1
    43    18    42    1
    44    18    43    1
    45    19    20    1
    46    19    44    1
    47    19    45    1
    48    20    46    1
    49    20    47    1
    50    20    48    1
    51    21    22    1
    52    21    25    1
    53    22    23    1
    54    22    49    1
    55    22    50    1
    56    23    24    1
    57    23    51    1
    58    23    52    1
    59    24    53    1
    60    24    54    1
    61    24    55    1
    62    27    28    1
    63    28    29    1
    64    29    30    1
    65    29    56    1
    66    29    57    1
    67    30    31    1
    68    30    58    1
    69    30    59    1
    70    31    60    1
    71    31    61    1
    72    31    62    1
    73    63    64    2
    74    63    65    1
    75    63    66    1
@<TRIPOS>SUBSTRUCTURE
     1 RES1       66 GROUP             0 ****  ****    0  
