@<TRIPOS>MOLECULE
tri_tri_mer_capped_0_nunpairedes_0_charge_3 Charge: 3 Unpaired_Electrons: 1 XTB_Unpaired_Electrons: 0 XTB_Charge: 3
   361   369     1     0     0
SMALL
NoCharges
****
Generated from Architector

@<TRIPOS>ATOM
     1 Ce1      -0.1815   -0.0482    0.2370   Ce        1 RES1   0.0000
     2 C1        2.9718    7.9433   -3.4052   C.3       1 RES1   0.0000
     3 C2        2.9915    7.0205   -4.6256   C.3       1 RES1   0.0000
     4 C3        4.0851    5.9417   -4.5441   C.3       1 RES1   0.0000
     5 C4        3.8564    4.7452   -5.4992   C.3       1 RES1   0.0000
     6 C5        3.4654    3.3840   -4.8822   C.3       1 RES1   0.0000
     7 C6        4.5163    2.6466   -4.0286   C.3       1 RES1   0.0000
     8 C7        3.8987    1.5017   -3.2026   C.3       1 RES1   0.0000
     9 C8        4.8389    0.7456   -2.2468   C.3       1 RES1   0.0000
    10 P1        3.9668   -0.1922   -0.8639   P.3       1 RES1   0.0000
    11 O1        2.5310   -0.3615   -1.2185   O.2       1 RES1   0.0000
    12 C9        4.9877   -1.7406   -0.8286   C.3       1 RES1   0.0000
    13 C10       6.5239   -1.6826   -0.9588   C.3       1 RES1   0.0000
    14 C11       7.3162   -1.4551    0.3326   C.3       1 RES1   0.0000
    15 C12       7.6621   -0.0021    0.6634   C.3       1 RES1   0.0000
    16 C13       8.1230    0.1232    2.1258   C.3       1 RES1   0.0000
    17 C14       9.3164    1.0684    2.3595   C.3       1 RES1   0.0000
    18 C15       8.9698    2.4557    2.9075   C.3       1 RES1   0.0000
    19 C16       8.1499    3.3081    1.9479   C.3       1 RES1   0.0000
    20 C17       4.0143    0.4578    0.9182   C.3       1 RES1   0.0000
    21 C18       3.6194   -0.5212    1.9854   C.ar      1 RES1   0.0000
    22 C19       4.5323   -1.2503    2.7309   C.ar      1 RES1   0.0000
    23 C20       4.1332   -1.9732    3.8409   C.ar      1 RES1   0.0000
    24 C21       2.8060   -1.9169    4.2324   C.ar      1 RES1   0.0000
    25 C22       1.8904   -1.1979    3.4788   C.ar      1 RES1   0.0000
    26 C23       0.4990   -0.9374    3.9570   C.3       1 RES1   0.0000
    27 P2       -0.8715   -1.8946    3.0936   P.3       1 RES1   0.0000
    28 O2       -0.5665   -1.9670    1.6332   O.2       1 RES1   0.0000
    29 C24      -0.8725   -3.4829    4.0261   C.3       1 RES1   0.0000
    30 C25      -1.8833   -4.4816    3.4516   C.3       1 RES1   0.0000
    31 C26      -2.6979   -5.2329    4.5121   C.3       1 RES1   0.0000
    32 C27      -1.8511   -5.9792    5.5579   C.3       1 RES1   0.0000
    33 C28      -1.9091   -5.3197    6.9353   C.3       1 RES1   0.0000
    34 C29      -0.9970   -6.0022    7.9557   C.3       1 RES1   0.0000
    35 C30      -0.5864   -5.0518    9.0812   C.3       1 RES1   0.0000
    36 C31      -1.7746   -4.4887    9.8491   C.3       1 RES1   0.0000
    37 C32      -2.5257   -1.0811    3.2322   C.3       1 RES1   0.0000
    38 C33      -3.5480   -1.5007    4.2931   C.3       1 RES1   0.0000
    39 C34      -4.0978   -0.2731    5.0228   C.3       1 RES1   0.0000
    40 C35      -4.9421    0.6430    4.1343   C.3       1 RES1   0.0000
    41 C36      -5.4214    1.8811    4.8953   C.3       1 RES1   0.0000
    42 C37      -6.2625    2.8192    4.0203   C.3       1 RES1   0.0000
    43 C38      -6.0292    4.3014    4.3129   C.3       1 RES1   0.0000
    44 C39      -6.4917    4.7435    5.6931   C.3       1 RES1   0.0000
    45 N1        2.3101   -0.5551    2.3551   N.ar      1 RES1   0.0000
    46 O3        1.4619    0.1577    1.6805   O.co2     1 RES1   0.0000
    47 H1        2.2700    8.7624   -3.5654   H         1 RES1   0.0000
    48 H2        3.9558    8.3757   -3.2290   H         1 RES1   0.0000
    49 H3        2.6655    7.3971   -2.5099   H         1 RES1   0.0000
    50 H4        3.1633    7.6204   -5.5223   H         1 RES1   0.0000
    51 H5        2.0106    6.5466   -4.7258   H         1 RES1   0.0000
    52 H6        4.1553    5.5963   -3.5105   H         1 RES1   0.0000
    53 H7        5.0439    6.4103   -4.7882   H         1 RES1   0.0000
    54 H8        4.7351    4.5896   -6.1264   H         1 RES1   0.0000
    55 H9        3.0431    5.0239   -6.1779   H         1 RES1   0.0000
    56 H10       3.2076    2.7446   -5.7293   H         1 RES1   0.0000
    57 H11       2.5598    3.5311   -4.2907   H         1 RES1   0.0000
    58 H12       5.0083    3.3527   -3.3636   H         1 RES1   0.0000
    59 H13       5.2631    2.2305   -4.7055   H         1 RES1   0.0000
    60 H14       3.5028    0.7618   -3.8944   H         1 RES1   0.0000
    61 H15       3.0466    1.8901   -2.6364   H         1 RES1   0.0000
    62 H16       5.6705    1.3462   -1.8810   H         1 RES1   0.0000
    63 H17       5.2856   -0.0749   -2.8112   H         1 RES1   0.0000
    64 H18       4.6038   -2.3032   -1.6821   H         1 RES1   0.0000
    65 H19       4.7146   -2.3001    0.0663   H         1 RES1   0.0000
    66 H20       6.8400   -0.9509   -1.7017   H         1 RES1   0.0000
    67 H21       6.8263   -2.6583   -1.3441   H         1 RES1   0.0000
    68 H22       8.2667   -1.9825    0.2490   H         1 RES1   0.0000
    69 H23       6.7799   -1.9294    1.1531   H         1 RES1   0.0000
    70 H24       6.8227    0.6624    0.4609   H         1 RES1   0.0000
    71 H25       8.4693    0.3157    0.0043   H         1 RES1   0.0000
    72 H26       8.4293   -0.8722    2.4604   H         1 RES1   0.0000
    73 H27       7.2906    0.4400    2.7633   H         1 RES1   0.0000
    74 H28       9.8807    1.1752    1.4306   H         1 RES1   0.0000
    75 H29       9.9839    0.6003    3.0851   H         1 RES1   0.0000
    76 H30       9.9109    2.9687    3.1129   H         1 RES1   0.0000
    77 H31       8.4392    2.3484    3.8588   H         1 RES1   0.0000
    78 H32       8.6264    3.3433    0.9708   H         1 RES1   0.0000
    79 H33       8.0573    4.3237    2.3276   H         1 RES1   0.0000
    80 H34       7.1493    2.9001    1.8269   H         1 RES1   0.0000
    81 H35       3.2639    1.2603    0.9015   H         1 RES1   0.0000
    82 H36       5.0116    0.8291    1.1528   H         1 RES1   0.0000
    83 H37       5.5749   -1.2259    2.4557   H         1 RES1   0.0000
    84 H38       4.8646   -2.4991    4.4359   H         1 RES1   0.0000
    85 H39       2.5018   -2.3941    5.1514   H         1 RES1   0.0000
    86 H40       0.2566    0.1166    3.7893   H         1 RES1   0.0000
    87 H41       0.4403   -1.1709    5.0189   H         1 RES1   0.0000
    88 H42      -1.1072   -3.2378    5.0631   H         1 RES1   0.0000
    89 H43       0.1410   -3.8852    4.0297   H         1 RES1   0.0000
    90 H44      -1.3543   -5.2038    2.8284   H         1 RES1   0.0000
    91 H45      -2.5814   -3.9384    2.8052   H         1 RES1   0.0000
    92 H46      -3.3460   -5.9388    3.9883   H         1 RES1   0.0000
    93 H47      -3.3502   -4.5275    5.0301   H         1 RES1   0.0000
    94 H48      -0.8128   -6.0317    5.2229   H         1 RES1   0.0000
    95 H49      -2.2122   -7.0035    5.6478   H         1 RES1   0.0000
    96 H50      -2.9355   -5.3377    7.3011   H         1 RES1   0.0000
    97 H51      -1.6117   -4.2712    6.8496   H         1 RES1   0.0000
    98 H52      -0.0910   -6.3565    7.4560   H         1 RES1   0.0000
    99 H53      -1.5003   -6.8708    8.3829   H         1 RES1   0.0000
   100 H54      -0.0025   -4.2275    8.6598   H         1 RES1   0.0000
   101 H55       0.0626   -5.5894    9.7727   H         1 RES1   0.0000
   102 H56      -2.3882   -3.8585    9.2108   H         1 RES1   0.0000
   103 H57      -1.4328   -3.8920   10.6900   H         1 RES1   0.0000
   104 H58      -2.3933   -5.2939   10.2326   H         1 RES1   0.0000
   105 H59      -2.9235   -1.2137    2.2166   H         1 RES1   0.0000
   106 H60      -2.3314   -0.0106    3.3319   H         1 RES1   0.0000
   107 H61      -3.1059   -2.1725    5.0265   H         1 RES1   0.0000
   108 H62      -4.3733   -2.0465    3.8320   H         1 RES1   0.0000
   109 H63      -3.2551    0.2903    5.4304   H         1 RES1   0.0000
   110 H64      -4.7038   -0.6074    5.8630   H         1 RES1   0.0000
   111 H65      -5.8031    0.0854    3.7598   H         1 RES1   0.0000
   112 H66      -4.3530    0.9517    3.2639   H         1 RES1   0.0000
   113 H67      -4.5515    2.4182    5.2823   H         1 RES1   0.0000
   114 H68      -6.0075    1.5484    5.7499   H         1 RES1   0.0000
   115 H69      -7.3198    2.5897    4.1467   H         1 RES1   0.0000
   116 H70      -6.0147    2.6440    2.9687   H         1 RES1   0.0000
   117 H71      -6.5589    4.8951    3.5646   H         1 RES1   0.0000
   118 H72      -4.9613    4.5130    4.2081   H         1 RES1   0.0000
   119 H73      -7.5662    4.6282    5.7904   H         1 RES1   0.0000
   120 H74      -6.2585    5.7936    5.8494   H         1 RES1   0.0000
   121 H75      -6.0079    4.1686    6.4771   H         1 RES1   0.0000
   122 C40      -6.1199   -3.8702   -3.2961   C.3       1 RES1   0.0000
   123 C41      -6.8377   -4.8196   -2.3406   C.3       1 RES1   0.0000
   124 C42      -5.9593   -5.9894   -1.8633   C.3       1 RES1   0.0000
   125 C43      -5.3894   -5.8370   -0.4483   C.3       1 RES1   0.0000
   126 C44      -4.2799   -4.7955   -0.2666   C.3       1 RES1   0.0000
   127 C45      -2.9307   -5.2340   -0.8394   C.3       1 RES1   0.0000
   128 C46      -1.8207   -4.2440   -0.4797   C.3       1 RES1   0.0000
   129 C47      -0.4378   -4.7291   -0.9240   C.3       1 RES1   0.0000
   130 P3        0.6757   -3.3728   -1.4514   P.3       1 RES1   0.0000
   131 O4        0.8442   -2.2765   -0.4602   O.2       1 RES1   0.0000
   132 C48       2.3281   -4.0640   -1.9057   C.3       1 RES1   0.0000
   133 C49       2.4946   -5.4606   -2.5084   C.3       1 RES1   0.0000
   134 C50       2.3286   -5.5586   -4.0301   C.3       1 RES1   0.0000
   135 C51       0.9908   -6.1457   -4.4716   C.3       1 RES1   0.0000
   136 C52       0.9112   -6.3006   -5.9896   C.3       1 RES1   0.0000
   137 C53      -0.4253   -6.8556   -6.4850   C.3       1 RES1   0.0000
   138 C54      -1.6243   -5.9220   -6.2623   C.3       1 RES1   0.0000
   139 C55      -2.4388   -6.2787   -5.0239   C.3       1 RES1   0.0000
   140 C56      -0.1653   -2.7602   -2.9962   C.3       1 RES1   0.0000
   141 C57       0.4701   -1.5549   -3.5712   C.ar      1 RES1   0.0000
   142 C58       1.1721   -1.6276   -4.7611   C.ar      1 RES1   0.0000
   143 C59       1.6144   -0.4805   -5.3893   C.ar      1 RES1   0.0000
   144 C60       1.3573    0.7263   -4.7664   C.ar      1 RES1   0.0000
   145 C61       0.7769    0.7797   -3.5098   C.ar      1 RES1   0.0000
   146 C62       0.4210    2.0901   -2.8992   C.3       1 RES1   0.0000
   147 P4        1.0986    2.9863   -1.3664   P.3       1 RES1   0.0000
   148 O5        1.0544    2.1246   -0.1470   O.2       1 RES1   0.0000
   149 C63       2.6242    4.0649   -1.3700   C.3       1 RES1   0.0000
   150 C64       3.9334    3.6045   -0.7395   C.3       1 RES1   0.0000
   151 C65       4.9524    4.7638   -0.6237   C.3       1 RES1   0.0000
   152 C66       6.4135    4.3788   -0.9520   C.3       1 RES1   0.0000
   153 C67       6.9493    4.9824   -2.2635   C.3       1 RES1   0.0000
   154 C68       7.9562    4.0873   -3.0065   C.3       1 RES1   0.0000
   155 C69       7.7596    4.0942   -4.5264   C.3       1 RES1   0.0000
   156 C70       8.0055    5.4444   -5.1797   C.3       1 RES1   0.0000
   157 C71      -0.1424    4.3742   -1.4497   C.3       1 RES1   0.0000
   158 C72      -0.1082    5.1577   -2.7675   C.3       1 RES1   0.0000
   159 C73      -1.2495    4.7681   -3.7059   C.3       1 RES1   0.0000
   160 C74      -2.6370    5.1737   -3.2187   C.3       1 RES1   0.0000
   161 C75      -3.6851    4.6808   -4.2092   C.3       1 RES1   0.0000
   162 C76      -5.1147    4.9537   -3.7594   C.3       1 RES1   0.0000
   163 C77      -6.1000    4.5293   -4.8523   C.3       1 RES1   0.0000
   164 C78      -6.3146    5.6363   -5.8787   C.3       1 RES1   0.0000
   165 N2        0.3009   -0.3601   -2.9529   N.ar      1 RES1   0.0000
   166 O6       -0.4446   -0.2768   -1.8941   O.co2     1 RES1   0.0000
   167 H76      -6.7467   -3.0074   -3.5051   H         1 RES1   0.0000
   168 H77      -5.9269   -4.3674   -4.2429   H         1 RES1   0.0000
   169 H78      -5.1750   -3.5222   -2.8812   H         1 RES1   0.0000
   170 H79      -7.7143   -5.2105   -2.8625   H         1 RES1   0.0000
   171 H80      -7.2161   -4.2723   -1.4726   H         1 RES1   0.0000
   172 H81      -5.1506   -6.1560   -2.5778   H         1 RES1   0.0000
   173 H82      -6.5719   -6.8927   -1.8605   H         1 RES1   0.0000
   174 H83      -5.0003   -6.8097   -0.1387   H         1 RES1   0.0000
   175 H84      -6.2142   -5.5890    0.2245   H         1 RES1   0.0000
   176 H85      -4.1545   -4.6369    0.8077   H         1 RES1   0.0000
   177 H86      -4.5819   -3.8414   -0.7078   H         1 RES1   0.0000
   178 H87      -3.0090   -5.3322   -1.9228   H         1 RES1   0.0000
   179 H88      -2.6807   -6.2172   -0.4374   H         1 RES1   0.0000
   180 H89      -1.8013   -4.0969    0.5986   H         1 RES1   0.0000
   181 H90      -2.0531   -3.2626   -0.9087   H         1 RES1   0.0000
   182 H91      -0.5246   -5.4324   -1.7519   H         1 RES1   0.0000
   183 H92       0.0727   -5.2433   -0.1086   H         1 RES1   0.0000
   184 H93       2.8663   -4.0230   -0.9539   H         1 RES1   0.0000
   185 H94       2.7803   -3.3176   -2.5649   H         1 RES1   0.0000
   186 H95       1.8275   -6.1713   -2.0244   H         1 RES1   0.0000
   187 H96       3.5100   -5.7756   -2.2677   H         1 RES1   0.0000
   188 H97       3.1173   -6.1979   -4.4266   H         1 RES1   0.0000
   189 H98       2.4625   -4.5723   -4.4782   H         1 RES1   0.0000
   190 H99       0.1842   -5.4997   -4.1226   H         1 RES1   0.0000
   191 H100      0.8549   -7.1272   -4.0125   H         1 RES1   0.0000
   192 H101      1.7038   -6.9791   -6.3097   H         1 RES1   0.0000
   193 H102      1.0941   -5.3345   -6.4669   H         1 RES1   0.0000
   194 H103     -0.6193   -7.8128   -6.0013   H         1 RES1   0.0000
   195 H104     -0.3208   -7.0600   -7.5514   H         1 RES1   0.0000
   196 H105     -2.2852   -5.9846   -7.1278   H         1 RES1   0.0000
   197 H106     -1.2751   -4.8865   -6.2019   H         1 RES1   0.0000
   198 H107     -2.8460   -7.2794   -5.1286   H         1 RES1   0.0000
   199 H108     -3.2662   -5.5858   -4.8956   H         1 RES1   0.0000
   200 H109     -1.8322   -6.2529   -4.1238   H         1 RES1   0.0000
   201 H110     -1.1776   -2.5275   -2.6615   H         1 RES1   0.0000
   202 H111     -0.1887   -3.5699   -3.7250   H         1 RES1   0.0000
   203 H112      1.3209   -2.5984   -5.2005   H         1 RES1   0.0000
   204 H113      2.1292   -0.5185   -6.3364   H         1 RES1   0.0000
   205 H114      1.6067    1.6570   -5.2458   H         1 RES1   0.0000
   206 H115     -0.6179    2.0221   -2.5431   H         1 RES1   0.0000
   207 H116      0.4937    2.8372   -3.6881   H         1 RES1   0.0000
   208 H117      2.2519    4.9124   -0.7854   H         1 RES1   0.0000
   209 H118      2.7910    4.4240   -2.3822   H         1 RES1   0.0000
   210 H119      4.3799    2.8195   -1.3311   H         1 RES1   0.0000
   211 H120      3.7274    3.1997    0.2544   H         1 RES1   0.0000
   212 H121      4.8990    5.1527    0.3925   H         1 RES1   0.0000
   213 H122      4.6628    5.5771   -1.2875   H         1 RES1   0.0000
   214 H123      6.4979    3.2935   -1.0157   H         1 RES1   0.0000
   215 H124      7.0498    4.6970   -0.1306   H         1 RES1   0.0000
   216 H125      7.3998    5.9557   -2.0686   H         1 RES1   0.0000
   217 H126      6.1173    5.1578   -2.9400   H         1 RES1   0.0000
   218 H127      7.8438    3.0577   -2.6517   H         1 RES1   0.0000
   219 H128      8.9775    4.3923   -2.7834   H         1 RES1   0.0000
   220 H129      6.7402    3.7868   -4.7486   H         1 RES1   0.0000
   221 H130      8.4345    3.3584   -4.9651   H         1 RES1   0.0000
   222 H131      7.3395    6.1951   -4.7656   H         1 RES1   0.0000
   223 H132      7.8301    5.3800   -6.2505   H         1 RES1   0.0000
   224 H133      9.0263    5.7736   -5.0233   H         1 RES1   0.0000
   225 H134      0.0374    5.0619   -0.6227   H         1 RES1   0.0000
   226 H135     -1.1282    3.9460   -1.3067   H         1 RES1   0.0000
   227 H136      0.8399    4.9878   -3.2807   H         1 RES1   0.0000
   228 H137     -0.1670    6.2306   -2.5715   H         1 RES1   0.0000
   229 H138     -1.2693    3.6879   -3.8418   H         1 RES1   0.0000
   230 H139     -1.0683    5.2160   -4.6834   H         1 RES1   0.0000
   231 H140     -2.7002    6.2569   -3.1114   H         1 RES1   0.0000
   232 H141     -2.8391    4.7296   -2.2370   H         1 RES1   0.0000
   233 H142     -3.5590    3.6015   -4.3453   H         1 RES1   0.0000
   234 H143     -3.5125    5.1568   -5.1744   H         1 RES1   0.0000
   235 H144     -5.2419    6.0161   -3.5448   H         1 RES1   0.0000
   236 H145     -5.3112    4.4093   -2.8307   H         1 RES1   0.0000
   237 H146     -7.0618    4.2589   -4.4113   H         1 RES1   0.0000
   238 H147     -5.7034    3.6424   -5.3567   H         1 RES1   0.0000
   239 H148     -6.7909    6.4994   -5.4191   H         1 RES1   0.0000
   240 H149     -6.9522    5.2876   -6.6859   H         1 RES1   0.0000
   241 H150     -5.3704    5.9600   -6.3106   H         1 RES1   0.0000
   242 C79      -6.2007   -5.3870   -7.2467   C.3       1 RES1   0.0000
   243 C80      -5.4551   -4.2573   -7.9455   C.3       1 RES1   0.0000
   244 C81      -5.2039   -3.0766   -7.0114   C.3       1 RES1   0.0000
   245 C82      -4.4407   -1.9465   -7.6982   C.3       1 RES1   0.0000
   246 C83      -4.3200   -0.7063   -6.8117   C.3       1 RES1   0.0000
   247 C84      -3.4164   -0.9278   -5.5885   C.3       1 RES1   0.0000
   248 C85      -4.0571   -0.4420   -4.2809   C.3       1 RES1   0.0000
   249 C86      -3.1825   -0.8467   -3.0965   C.3       1 RES1   0.0000
   250 P5       -3.6404   -0.2121   -1.4262   P.3       1 RES1   0.0000
   251 O7       -2.6890   -0.5861   -0.3337   O.2       1 RES1   0.0000
   252 C87      -5.3725   -0.7542   -1.1479   C.3       1 RES1   0.0000
   253 C88      -5.7776   -0.9141    0.3113   C.3       1 RES1   0.0000
   254 C89      -7.2107   -1.4378    0.3816   C.3       1 RES1   0.0000
   255 C90      -7.6761   -1.7260    1.8059   C.3       1 RES1   0.0000
   256 C91      -9.1145   -2.2619    1.8494   C.3       1 RES1   0.0000
   257 C92     -10.1857   -1.1899    2.0675   C.3       1 RES1   0.0000
   258 C93     -10.3718   -0.1686    0.9441   C.3       1 RES1   0.0000
   259 C94     -10.8147   -0.7890   -0.3755   C.3       1 RES1   0.0000
   260 C95      -3.7775    1.6189   -1.7517   C.3       1 RES1   0.0000
   261 C96      -3.8504    2.4368   -0.5230   C.ar      1 RES1   0.0000
   262 C97      -5.0120    3.0516   -0.0944   C.ar      1 RES1   0.0000
   263 C98      -4.9716    3.9323    0.9720   C.ar      1 RES1   0.0000
   264 C99      -3.7467    4.2061    1.5539   C.ar      1 RES1   0.0000
   265 C100     -2.5998    3.5661    1.1204   C.ar      1 RES1   0.0000
   266 C101     -1.2457    3.8946    1.6320   C.3       1 RES1   0.0000
   267 P6       -0.6886    2.6390    2.8603   P.3       1 RES1   0.0000
   268 O8       -0.9544    1.2733    2.2936   O.2       1 RES1   0.0000
   269 C102      1.1110    2.9524    3.1308   C.3       1 RES1   0.0000
   270 C103      1.4993    3.0530    4.6105   C.3       1 RES1   0.0000
   271 C104      2.7330    2.2639    5.0614   C.3       1 RES1   0.0000
   272 C105      4.0891    2.6697    4.4703   C.3       1 RES1   0.0000
   273 C106      4.4619    4.1550    4.5884   C.3       1 RES1   0.0000
   274 C107      4.0365    5.0058    3.3892   C.3       1 RES1   0.0000
   275 C108      4.9558    6.2086    3.1714   C.3       1 RES1   0.0000
   276 C109      4.6148    7.4025    4.0524   C.3       1 RES1   0.0000
   277 C110     -1.7208    2.9359    4.3479   C.3       1 RES1   0.0000
   278 C111     -1.7326    4.3859    4.8563   C.3       1 RES1   0.0000
   279 C112     -1.3752    4.5370    6.3419   C.3       1 RES1   0.0000
   280 C113     -2.0572    5.7434    6.9994   C.3       1 RES1   0.0000
   281 C114     -1.3743    7.0952    6.7830   C.3       1 RES1   0.0000
   282 C115     -1.4913    7.6956    5.3828   C.3       1 RES1   0.0000
   283 C116     -1.0275    9.1510    5.3958   C.3       1 RES1   0.0000
   284 C117     -1.1297    9.8362    4.0415   C.3       1 RES1   0.0000
   285 N3       -2.6821    2.6359    0.1335   N.ar      1 RES1   0.0000
   286 O9       -1.6191    2.0113   -0.2867   O.co2     1 RES1   0.0000
   287 H151     -6.3796   -6.2073   -7.9352   H         1 RES1   0.0000
   288 H152     -7.1594   -5.0345   -6.8742   H         1 RES1   0.0000
   289 H153     -5.6212   -5.7698   -6.4092   H         1 RES1   0.0000
   290 H154     -6.0356   -3.9183   -8.8047   H         1 RES1   0.0000
   291 H155     -4.4987   -4.6257   -8.3219   H         1 RES1   0.0000
   292 H156     -4.6446   -3.4269   -6.1403   H         1 RES1   0.0000
   293 H157     -6.1622   -2.6962   -6.6508   H         1 RES1   0.0000
   294 H158     -4.9742   -1.6692   -8.6074   H         1 RES1   0.0000
   295 H159     -3.4450   -2.2905   -7.9863   H         1 RES1   0.0000
   296 H160     -5.3188   -0.4301   -6.4712   H         1 RES1   0.0000
   297 H161     -3.9352    0.1266   -7.4024   H         1 RES1   0.0000
   298 H162     -2.4613   -0.4175   -5.7403   H         1 RES1   0.0000
   299 H163     -3.1928   -1.9914   -5.5064   H         1 RES1   0.0000
   300 H164     -5.0553   -0.8739   -4.1948   H         1 RES1   0.0000
   301 H165     -4.1564    0.6444   -4.3258   H         1 RES1   0.0000
   302 H166     -2.1745   -0.4878   -3.2976   H         1 RES1   0.0000
   303 H167     -3.1520   -1.9381   -3.0288   H         1 RES1   0.0000
   304 H168     -5.4896   -1.7178   -1.6461   H         1 RES1   0.0000
   305 H169     -6.0318   -0.0521   -1.6605   H         1 RES1   0.0000
   306 H170     -5.6869    0.0366    0.8423   H         1 RES1   0.0000
   307 H171     -5.1023   -1.6282    0.7890   H         1 RES1   0.0000
   308 H172     -7.2643   -2.3708   -0.1819   H         1 RES1   0.0000
   309 H173     -7.8863   -0.7275   -0.0948   H         1 RES1   0.0000
   310 H174     -7.6045   -0.8210    2.4137   H         1 RES1   0.0000
   311 H175     -7.0002   -2.4680    2.2452   H         1 RES1   0.0000
   312 H176     -9.1941   -2.9739    2.6752   H         1 RES1   0.0000
   313 H177     -9.3141   -2.8142    0.9292   H         1 RES1   0.0000
   314 H178     -9.9560   -0.6569    2.9941   H         1 RES1   0.0000
   315 H179    -11.1344   -1.7047    2.2187   H         1 RES1   0.0000
   316 H180     -9.4542    0.4054    0.8000   H         1 RES1   0.0000
   317 H181    -11.1390    0.5364    1.2682   H         1 RES1   0.0000
   318 H182    -10.0781   -1.4917   -0.7569   H         1 RES1   0.0000
   319 H183    -10.9713   -0.0174   -1.1263   H         1 RES1   0.0000
   320 H184    -11.7494   -1.3235   -0.2368   H         1 RES1   0.0000
   321 H185     -4.6620    1.7912   -2.3627   H         1 RES1   0.0000
   322 H186     -2.8921    1.9104   -2.3233   H         1 RES1   0.0000
   323 H187     -5.9349    2.8541   -0.6131   H         1 RES1   0.0000
   324 H188     -5.8669    4.4334    1.2989   H         1 RES1   0.0000
   325 H189     -3.6795    4.9478    2.3352   H         1 RES1   0.0000
   326 H190     -1.2163    4.8994    2.0494   H         1 RES1   0.0000
   327 H191     -0.5215    3.7802    0.8246   H         1 RES1   0.0000
   328 H192      1.5816    2.1093    2.6186   H         1 RES1   0.0000
   329 H193      1.3967    3.8584    2.5937   H         1 RES1   0.0000
   330 H194      0.6801    2.6879    5.2286   H         1 RES1   0.0000
   331 H195      1.6445    4.1006    4.8642   H         1 RES1   0.0000
   332 H196      2.5798    1.1964    4.8619   H         1 RES1   0.0000
   333 H197      2.7947    2.3816    6.1475   H         1 RES1   0.0000
   334 H198      4.1490    2.3682    3.4190   H         1 RES1   0.0000
   335 H199      4.8394    2.0820    5.0094   H         1 RES1   0.0000
   336 H200      5.5483    4.2132    4.6714   H         1 RES1   0.0000
   337 H201      4.0557    4.5690    5.5093   H         1 RES1   0.0000
   338 H202      3.0147    5.3658    3.5090   H         1 RES1   0.0000
   339 H203      4.0535    4.3748    2.4975   H         1 RES1   0.0000
   340 H204      5.9860    5.9073    3.3638   H         1 RES1   0.0000
   341 H205      4.9000    6.5246    2.1278   H         1 RES1   0.0000
   342 H206      3.5954    7.7409    3.8763   H         1 RES1   0.0000
   343 H207      5.2824    8.2281    3.8214   H         1 RES1   0.0000
   344 H208      4.7231    7.1619    5.1063   H         1 RES1   0.0000
   345 H209     -1.4125    2.2392    5.1317   H         1 RES1   0.0000
   346 H210     -2.7219    2.6382    4.0253   H         1 RES1   0.0000
   347 H211     -2.7343    4.8001    4.7012   H         1 RES1   0.0000
   348 H212     -1.0451    4.9954    4.2675   H         1 RES1   0.0000
   349 H213     -0.2946    4.6241    6.4734   H         1 RES1   0.0000
   350 H214     -1.7029    3.6416    6.8740   H         1 RES1   0.0000
   351 H215     -2.0828    5.5608    8.0763   H         1 RES1   0.0000
   352 H216     -3.0951    5.7963    6.6596   H         1 RES1   0.0000
   353 H217     -0.3183    7.0147    7.0467   H         1 RES1   0.0000
   354 H218     -1.8242    7.8017    7.4823   H         1 RES1   0.0000
   355 H219     -2.5272    7.6434    5.0436   H         1 RES1   0.0000
   356 H220     -0.8785    7.1361    4.6726   H         1 RES1   0.0000
   357 H221      0.0059    9.1767    5.7448   H         1 RES1   0.0000
   358 H222     -1.6265    9.7053    6.1171   H         1 RES1   0.0000
   359 H223     -0.5463    9.3096    3.2915   H         1 RES1   0.0000
   360 H224     -0.7497   10.8496    4.1101   H         1 RES1   0.0000
   361 H225     -2.1610    9.8891    3.7051   H         1 RES1   0.0000
@<TRIPOS>BOND
     1     1    11    1
     2     1    28    1
     3     1    46    1
     4     1   131    1
     5     1   148    1
     6     1   166    1
     7     1   251    1
     8     1   268    1
     9     1   286    1
    10     2     3    1
    11     2    47    1
    12     2    48    1
    13     2    49    1
    14     3     4    1
    15     3    50    1
    16     3    51    1
    17     4     5    1
    18     4    52    1
    19     4    53    1
    20     5     6    1
    21     5    54    1
    22     5    55    1
    23     6     7    1
    24     6    56    1
    25     6    57    1
    26     7     8    1
    27     7    58    1
    28     7    59    1
    29     8     9    1
    30     8    60    1
    31     8    61    1
    32     9    10    1
    33     9    62    1
    34     9    63    1
    35    10    11    2
    36    10    12    1
    37    10    20    1
    38    12    13    1
    39    12    64    1
    40    12    65    1
    41    13    14    1
    42    13    66    1
    43    13    67    1
    44    14    15    1
    45    14    68    1
    46    14    69    1
    47    15    16    1
    48    15    70    1
    49    15    71    1
    50    16    17    1
    51    16    72    1
    52    16    73    1
    53    17    18    1
    54    17    74    1
    55    17    75    1
    56    18    19    1
    57    18    76    1
    58    18    77    1
    59    19    78    1
    60    19    79    1
    61    19    80    1
    62    20    21    1
    63    20    81    1
    64    20    82    1
    65    21    22    1
    66    21    45    2
    67    22    23    2
    68    22    83    1
    69    23    24    1
    70    23    84    1
    71    24    25    2
    72    24    85    1
    73    25    26    1
    74    25    45    1
    75    26    27    1
    76    26    86    1
    77    26    87    1
    78    27    28    2
    79    27    29    1
    80    27    37    1
    81    29    30    1
    82    29    88    1
    83    29    89    1
    84    30    31    1
    85    30    90    1
    86    30    91    1
    87    31    32    1
    88    31    92    1
    89    31    93    1
    90    32    33    1
    91    32    94    1
    92    32    95    1
    93    33    34    1
    94    33    96    1
    95    33    97    1
    96    34    35    1
    97    34    98    1
    98    34    99    1
    99    35    36    1
   100    35   100    1
   101    35   101    1
   102    36   102    1
   103    36   103    1
   104    36   104    1
   105    37    38    1
   106    37   105    1
   107    37   106    1
   108    38    39    1
   109    38   107    1
   110    38   108    1
   111    39    40    1
   112    39   109    1
   113    39   110    1
   114    40    41    1
   115    40   111    1
   116    40   112    1
   117    41    42    1
   118    41   113    1
   119    41   114    1
   120    42    43    1
   121    42   115    1
   122    42   116    1
   123    43    44    1
   124    43   117    1
   125    43   118    1
   126    44   119    1
   127    44   120    1
   128    44   121    1
   129    45    46    1
   130   122   123    1
   131   122   167    1
   132   122   168    1
   133   122   169    1
   134   123   124    1
   135   123   170    1
   136   123   171    1
   137   124   125    1
   138   124   172    1
   139   124   173    1
   140   125   126    1
   141   125   174    1
   142   125   175    1
   143   126   127    1
   144   126   176    1
   145   126   177    1
   146   127   128    1
   147   127   178    1
   148   127   179    1
   149   128   129    1
   150   128   180    1
   151   128   181    1
   152   129   130    1
   153   129   182    1
   154   129   183    1
   155   130   131    2
   156   130   132    1
   157   130   140    1
   158   132   133    1
   159   132   184    1
   160   132   185    1
   161   133   134    1
   162   133   186    1
   163   133   187    1
   164   134   135    1
   165   134   188    1
   166   134   189    1
   167   135   136    1
   168   135   190    1
   169   135   191    1
   170   136   137    1
   171   136   192    1
   172   136   193    1
   173   137   138    1
   174   137   194    1
   175   137   195    1
   176   138   139    1
   177   138   196    1
   178   138   197    1
   179   139   198    1
   180   139   199    1
   181   139   200    1
   182   140   141    1
   183   140   201    1
   184   140   202    1
   185   141   142    1
   186   141   165    2
   187   142   143    2
   188   142   203    1
   189   143   144    1
   190   143   204    1
   191   144   145    2
   192   144   205    1
   193   145   146    1
   194   145   165    1
   195   146   147    1
   196   146   206    1
   197   146   207    1
   198   147   148    2
   199   147   149    1
   200   147   157    1
   201   149   150    1
   202   149   208    1
   203   149   209    1
   204   150   151    1
   205   150   210    1
   206   150   211    1
   207   151   152    1
   208   151   212    1
   209   151   213    1
   210   152   153    1
   211   152   214    1
   212   152   215    1
   213   153   154    1
   214   153   216    1
   215   153   217    1
   216   154   155    1
   217   154   218    1
   218   154   219    1
   219   155   156    1
   220   155   220    1
   221   155   221    1
   222   156   222    1
   223   156   223    1
   224   156   224    1
   225   157   158    1
   226   157   225    1
   227   157   226    1
   228   158   159    1
   229   158   227    1
   230   158   228    1
   231   159   160    1
   232   159   229    1
   233   159   230    1
   234   160   161    1
   235   160   231    1
   236   160   232    1
   237   161   162    1
   238   161   233    1
   239   161   234    1
   240   162   163    1
   241   162   235    1
   242   162   236    1
   243   163   164    1
   244   163   237    1
   245   163   238    1
   246   164   239    1
   247   164   240    1
   248   164   241    1
   249   165   166    1
   250   242   243    1
   251   242   287    1
   252   242   288    1
   253   242   289    1
   254   243   244    1
   255   243   290    1
   256   243   291    1
   257   244   245    1
   258   244   292    1
   259   244   293    1
   260   245   246    1
   261   245   294    1
   262   245   295    1
   263   246   247    1
   264   246   296    1
   265   246   297    1
   266   247   248    1
   267   247   298    1
   268   247   299    1
   269   248   249    1
   270   248   300    1
   271   248   301    1
   272   249   250    1
   273   249   302    1
   274   249   303    1
   275   250   251    2
   276   250   252    1
   277   250   260    1
   278   252   253    1
   279   252   304    1
   280   252   305    1
   281   253   254    1
   282   253   306    1
   283   253   307    1
   284   254   255    1
   285   254   308    1
   286   254   309    1
   287   255   256    1
   288   255   310    1
   289   255   311    1
   290   256   257    1
   291   256   312    1
   292   256   313    1
   293   257   258    1
   294   257   314    1
   295   257   315    1
   296   258   259    1
   297   258   316    1
   298   258   317    1
   299   259   318    1
   300   259   319    1
   301   259   320    1
   302   260   261    1
   303   260   321    1
   304   260   322    1
   305   261   262    1
   306   261   285    2
   307   262   263    2
   308   262   323    1
   309   263   264    1
   310   263   324    1
   311   264   265    2
   312   264   325    1
   313   265   266    1
   314   265   285    1
   315   266   267    1
   316   266   326    1
   317   266   327    1
   318   267   268    2
   319   267   269    1
   320   267   277    1
   321   269   270    1
   322   269   328    1
   323   269   329    1
   324   270   271    1
   325   270   330    1
   326   270   331    1
   327   271   272    1
   328   271   332    1
   329   271   333    1
   330   272   273    1
   331   272   334    1
   332   272   335    1
   333   273   274    1
   334   273   336    1
   335   273   337    1
   336   274   275    1
   337   274   338    1
   338   274   339    1
   339   275   276    1
   340   275   340    1
   341   275   341    1
   342   276   342    1
   343   276   343    1
   344   276   344    1
   345   277   278    1
   346   277   345    1
   347   277   346    1
   348   278   279    1
   349   278   347    1
   350   278   348    1
   351   279   280    1
   352   279   349    1
   353   279   350    1
   354   280   281    1
   355   280   351    1
   356   280   352    1
   357   281   282    1
   358   281   353    1
   359   281   354    1
   360   282   283    1
   361   282   355    1
   362   282   356    1
   363   283   284    1
   364   283   357    1
   365   283   358    1
   366   284   359    1
   367   284   360    1
   368   284   361    1
   369   285   286    1
@<TRIPOS>SUBSTRUCTURE
     1 RES1      361 GROUP             0 ****  ****    0  
