@<TRIPOS>MOLECULE
am_c3_9H2O_c0_0_nunpairedes_0_charge_3 Charge: 3 Unpaired_Electrons: 1 XTB_Unpaired_Electrons: 0 XTB_Charge: 3
    88    93     1     0     0
SMALL
NoCharges
****
Generated from Architector

@<TRIPOS>ATOM
     1 Ce1      -0.0094    0.2258   -0.1025   Ce        1 RES1   0.0000
     2 C1       -1.7933    2.5051   -3.9556   C.3       1 RES1   0.0000
     3 N1       -2.5615    1.4590   -3.2957   N.am      1 RES1   0.0000
     4 C2       -3.7803    1.0794   -3.9756   C.3       1 RES1   0.0000
     5 C3       -2.1660    1.0047   -2.1185   C.2       1 RES1   0.0000
     6 O1       -1.1325    1.4089   -1.5594   O.2       1 RES1   0.0000
     7 C4       -3.0014   -0.0949   -1.4363   C.3       1 RES1   0.0000
     8 O2       -2.4450   -0.4729   -0.1774   O.3       1 RES1   0.0000
     9 C5       -3.1764   -0.0626    0.9731   C.3       1 RES1   0.0000
    10 C6       -2.5226    1.1619    1.6411   C.2       1 RES1   0.0000
    11 O3       -1.3980    1.5217    1.2446   O.2       1 RES1   0.0000
    12 N2       -3.1510    1.7558    2.6443   N.am      1 RES1   0.0000
    13 C7       -4.4572    1.4112    3.1672   C.3       1 RES1   0.0000
    14 C8       -2.5411    2.9160    3.2689   C.3       1 RES1   0.0000
    15 H1       -2.3936    3.4143   -4.0376   H         1 RES1   0.0000
    16 H2       -1.5143    2.1807   -4.9596   H         1 RES1   0.0000
    17 H3       -0.8955    2.7103   -3.3711   H         1 RES1   0.0000
    18 H4       -4.4503    1.9366   -4.0348   H         1 RES1   0.0000
    19 H5       -4.3061    0.2660   -3.4881   H         1 RES1   0.0000
    20 H6       -3.5506    0.7801   -4.9969   H         1 RES1   0.0000
    21 H7       -2.9659   -0.9950   -2.0636   H         1 RES1   0.0000
    22 H8       -4.0344    0.2459   -1.3182   H         1 RES1   0.0000
    23 H9       -3.1246   -0.9082    1.6730   H         1 RES1   0.0000
    24 H10      -4.2226    0.1323    0.7133   H         1 RES1   0.0000
    25 H11      -4.8837    0.5223    2.7139   H         1 RES1   0.0000
    26 H12      -5.1433    2.2444    3.0106   H         1 RES1   0.0000
    27 H13      -4.3818    1.2468    4.2423   H         1 RES1   0.0000
    28 H14      -1.5726    3.1003    2.8080   H         1 RES1   0.0000
    29 H15      -2.4172    2.7359    4.3352   H         1 RES1   0.0000
    30 H16      -3.1807    3.7869    3.1303   H         1 RES1   0.0000
    31 C9        3.5325   -1.0861   -3.1835   C.3       1 RES1   0.0000
    32 N3        3.8584   -1.0070   -1.7694   N.am      1 RES1   0.0000
    33 C10       5.1515   -1.4530   -1.3000   C.3       1 RES1   0.0000
    34 C11       2.9544   -0.4492   -0.9754   C.2       1 RES1   0.0000
    35 O4        1.8494   -0.0703   -1.3980   O.2       1 RES1   0.0000
    36 C12       3.2756   -0.3457    0.5258   C.3       1 RES1   0.0000
    37 O5        2.1460    0.1324    1.2609   O.3       1 RES1   0.0000
    38 C13       2.3004    1.3924    1.9214   C.3       1 RES1   0.0000
    39 C14       1.6315    2.5226    1.1030   C.2       1 RES1   0.0000
    40 O6        1.1048    2.2028    0.0242   O.2       1 RES1   0.0000
    41 N4        1.5965    3.7494    1.6013   N.am      1 RES1   0.0000
    42 C15       2.3521    4.2162    2.7449   C.3       1 RES1   0.0000
    43 C16       0.8892    4.7962    0.8819   C.3       1 RES1   0.0000
    44 H17       4.3675   -1.5060   -3.7323   H         1 RES1   0.0000
    45 H18       3.3077   -0.0904   -3.5669   H         1 RES1   0.0000
    46 H19       2.6484   -1.7091   -3.3256   H         1 RES1   0.0000
    47 H20       5.7350   -1.8070   -2.1431   H         1 RES1   0.0000
    48 H21       5.0516   -2.2731   -0.5875   H         1 RES1   0.0000
    49 H22       5.7055   -0.6413   -0.8295   H         1 RES1   0.0000
    50 H23       4.1573    0.2907    0.6784   H         1 RES1   0.0000
    51 H24       3.5020   -1.3525    0.9079   H         1 RES1   0.0000
    52 H25       3.3606    1.6059    2.0994   H         1 RES1   0.0000
    53 H26       1.7695    1.2930    2.8779   H         1 RES1   0.0000
    54 H27       2.8518    3.4173    3.2815   H         1 RES1   0.0000
    55 H28       1.6962    4.7412    3.4379   H         1 RES1   0.0000
    56 H29       3.1061    4.9281    2.4065   H         1 RES1   0.0000
    57 H30       0.3317    4.3552    0.0572   H         1 RES1   0.0000
    58 H31       1.5969    5.5279    0.4917   H         1 RES1   0.0000
    59 H32       0.2043    5.3013    1.5624   H         1 RES1   0.0000
    60 C17      -1.2364   -1.5914    4.5032   C.3       1 RES1   0.0000
    61 N5       -0.4051   -2.4489    3.6740   N.am      1 RES1   0.0000
    62 C18       0.0094   -3.6937    4.2845   C.3       1 RES1   0.0000
    63 C19      -0.0915   -2.0401    2.4609   C.2       1 RES1   0.0000
    64 O7       -0.4299   -0.9234    2.0188   O.2       1 RES1   0.0000
    65 C20       0.6745   -2.9814    1.5231   C.3       1 RES1   0.0000
    66 O8        0.6383   -2.3693    0.2403   O.3       1 RES1   0.0000
    67 C21       0.6719   -3.2660   -0.8617   C.3       1 RES1   0.0000
    68 C22      -0.0669   -2.5567   -2.0035   C.2       1 RES1   0.0000
    69 O9       -0.4981   -1.4101   -1.7893   O.2       1 RES1   0.0000
    70 N6       -0.2337   -3.1886   -3.1514   N.am      1 RES1   0.0000
    71 C23       0.1848   -4.5414   -3.4451   C.3       1 RES1   0.0000
    72 C24      -0.9717   -2.5496   -4.2247   C.3       1 RES1   0.0000
    73 H33      -1.3796   -2.0633    5.4685   H         1 RES1   0.0000
    74 H34      -2.2092   -1.4392    4.0345   H         1 RES1   0.0000
    75 H35      -0.7652   -0.6196    4.6426   H         1 RES1   0.0000
    76 H36      -0.8689   -4.2914    4.5256   H         1 RES1   0.0000
    77 H37       0.5341   -3.4668    5.2114   H         1 RES1   0.0000
    78 H38       0.6688   -4.2735    3.6482   H         1 RES1   0.0000
    79 H39       0.1783   -3.9584    1.4892   H         1 RES1   0.0000
    80 H40       1.7154   -3.1135    1.8571   H         1 RES1   0.0000
    81 H41       0.1569   -4.1993   -0.6069   H         1 RES1   0.0000
    82 H42       1.7115   -3.4937   -1.1402   H         1 RES1   0.0000
    83 H43       0.7619   -4.9913   -2.6452   H         1 RES1   0.0000
    84 H44       0.7871   -4.5423   -4.3526   H         1 RES1   0.0000
    85 H45      -0.6954   -5.1573   -3.6307   H         1 RES1   0.0000
    86 H46      -1.2180   -1.5262   -3.9482   H         1 RES1   0.0000
    87 H47      -1.8830   -3.1132   -4.4247   H         1 RES1   0.0000
    88 H48      -0.3644   -2.5400   -5.1272   H         1 RES1   0.0000
@<TRIPOS>BOND
     1     1     6    1
     2     1     8    1
     3     1    11    1
     4     1    35    1
     5     1    37    1
     6     1    40    1
     7     1    64    1
     8     1    66    1
     9     1    69    1
    10     2     3    1
    11     2    15    1
    12     2    16    1
    13     2    17    1
    14     3     4    1
    15     3     5    1
    16     4    18    1
    17     4    19    1
    18     4    20    1
    19     5     6    2
    20     5     7    1
    21     7     8    1
    22     7    21    1
    23     7    22    1
    24     8     9    1
    25     9    10    1
    26     9    23    1
    27     9    24    1
    28    10    11    2
    29    10    12    1
    30    12    13    1
    31    12    14    1
    32    13    25    1
    33    13    26    1
    34    13    27    1
    35    14    28    1
    36    14    29    1
    37    14    30    1
    38    31    32    1
    39    31    44    1
    40    31    45    1
    41    31    46    1
    42    32    33    1
    43    32    34    1
    44    33    47    1
    45    33    48    1
    46    33    49    1
    47    34    35    2
    48    34    36    1
    49    36    37    1
    50    36    50    1
    51    36    51    1
    52    37    38    1
    53    38    39    1
    54    38    52    1
    55    38    53    1
    56    39    40    2
    57    39    41    1
    58    41    42    1
    59    41    43    1
    60    42    54    1
    61    42    55    1
    62    42    56    1
    63    43    57    1
    64    43    58    1
    65    43    59    1
    66    60    61    1
    67    60    73    1
    68    60    74    1
    69    60    75    1
    70    61    62    1
    71    61    63    1
    72    62    76    1
    73    62    77    1
    74    62    78    1
    75    63    64    2
    76    63    65    1
    77    65    66    1
    78    65    79    1
    79    65    80    1
    80    66    67    1
    81    67    68    1
    82    67    81    1
    83    67    82    1
    84    68    69    2
    85    68    70    1
    86    70    71    1
    87    70    72    1
    88    71    83    1
    89    71    84    1
    90    71    85    1
    91    72    86    1
    92    72    87    1
    93    72    88    1
@<TRIPOS>SUBSTRUCTURE
     1 RES1       88 GROUP             0 ****  ****    0  
