@<TRIPOS>MOLECULE
am_c3_9H2O_c0_0_nunpairedes_0_charge_3 Charge: 3 Unpaired_Electrons: 1 XTB_Unpaired_Electrons: 0 XTB_Charge: 3
   284   291     1     0     0
SMALL
NoCharges
****
Generated from Architector

@<TRIPOS>ATOM
     1 Ce1       0.7286    0.1348    0.1867   Ce        1 RES1   0.0000
     2 C1       -6.6200   -2.6328   -2.1314   C.3       1 RES1   0.0000
     3 C2       -6.5124   -1.1840   -2.6097   C.3       1 RES1   0.0000
     4 C3       -5.6568   -1.0679   -3.8707   C.3       1 RES1   0.0000
     5 C4       -5.7948    0.2757   -4.5962   C.3       1 RES1   0.0000
     6 C5       -5.3863    1.4805   -3.7295   C.3       1 RES1   0.0000
     7 C6       -4.6199    2.6253   -4.4344   C.3       1 RES1   0.0000
     8 C7       -3.1197    2.7804   -4.0861   C.3       1 RES1   0.0000
     9 C8       -2.8176    3.6453   -2.8551   C.3       1 RES1   0.0000
    10 P1       -1.0040    3.5492   -2.4330   P.3       1 RES1   0.0000
    11 O1       -0.5304    2.1441   -2.3698   O.2       1 RES1   0.0000
    12 C9       -0.7478    4.3663   -0.7463   C.3       1 RES1   0.0000
    13 C10       0.5417    3.8611   -0.1445   C.2       1 RES1   0.0000
    14 O2        0.5878    2.6584    0.1946   O.2       1 RES1   0.0000
    15 N1        1.6047    4.6572    0.0717   N.am      1 RES1   0.0000
    16 C11       1.7193    6.0661   -0.3045   C.3       1 RES1   0.0000
    17 C12       1.5251    7.1224    0.8108   C.3       1 RES1   0.0000
    18 C13       2.7371    7.2496    1.7338   C.3       1 RES1   0.0000
    19 C14       0.2202    6.9323    1.5789   C.3       1 RES1   0.0000
    20 C15       2.8305    3.9600    0.4632   C.3       1 RES1   0.0000
    21 C16       3.0630    3.6343    1.9643   C.3       1 RES1   0.0000
    22 C17       3.4935    2.1691    2.0663   C.3       1 RES1   0.0000
    23 C18       1.8589    3.9118    2.8657   C.3       1 RES1   0.0000
    24 C19      -0.2358    4.6790   -3.6464   C.ar      1 RES1   0.0000
    25 C20      -0.3519    6.0615   -3.5147   C.ar      1 RES1   0.0000
    26 C21       0.0969    6.9006   -4.5175   C.ar      1 RES1   0.0000
    27 C22       0.6483    6.3695   -5.6738   C.ar      1 RES1   0.0000
    28 C23       0.7663    4.9975   -5.8080   C.ar      1 RES1   0.0000
    29 C24       0.3184    4.1531   -4.8058   C.ar      1 RES1   0.0000
    30 H1       -7.0050   -2.6708   -1.1095   H         1 RES1   0.0000
    31 H2       -5.6326   -3.1043   -2.1386   H         1 RES1   0.0000
    32 H3       -7.2898   -3.2058   -2.7737   H         1 RES1   0.0000
    33 H4       -6.0673   -0.5969   -1.7996   H         1 RES1   0.0000
    34 H5       -7.5037   -0.7744   -2.8096   H         1 RES1   0.0000
    35 H6       -5.9289   -1.8752   -4.5568   H         1 RES1   0.0000
    36 H7       -4.6092   -1.2308   -3.5912   H         1 RES1   0.0000
    37 H8       -6.8316    0.4128   -4.9016   H         1 RES1   0.0000
    38 H9       -5.1840    0.2241   -5.4950   H         1 RES1   0.0000
    39 H10      -4.7887    1.1090   -2.9070   H         1 RES1   0.0000
    40 H11      -6.2921    1.8901   -3.2824   H         1 RES1   0.0000
    41 H12      -5.1077    3.5754   -4.2105   H         1 RES1   0.0000
    42 H13      -4.7005    2.4814   -5.5119   H         1 RES1   0.0000
    43 H14      -2.5980    3.2314   -4.9366   H         1 RES1   0.0000
    44 H15      -2.6853    1.7938   -3.9289   H         1 RES1   0.0000
    45 H16      -3.3639    3.2771   -1.9921   H         1 RES1   0.0000
    46 H17      -3.1041    4.6801   -3.0455   H         1 RES1   0.0000
    47 H18      -1.5463    3.9761   -0.1108   H         1 RES1   0.0000
    48 H19      -0.8411    5.4443   -0.8018   H         1 RES1   0.0000
    49 H20       1.0138    6.2753   -1.1086   H         1 RES1   0.0000
    50 H21       2.7181    6.2205   -0.7221   H         1 RES1   0.0000
    51 H22       1.4484    8.0759    0.2796   H         1 RES1   0.0000
    52 H23       2.9813    6.3197    2.2308   H         1 RES1   0.0000
    53 H24       2.5424    8.0005    2.4953   H         1 RES1   0.0000
    54 H25       3.6089    7.5747    1.1713   H         1 RES1   0.0000
    55 H26       0.1366    5.9316    1.9915   H         1 RES1   0.0000
    56 H27      -0.6338    7.1119    0.9295   H         1 RES1   0.0000
    57 H28       0.1717    7.6481    2.3946   H         1 RES1   0.0000
    58 H29       3.6658    4.5537    0.0950   H         1 RES1   0.0000
    59 H30       2.8191    3.0007   -0.0750   H         1 RES1   0.0000
    60 H31       3.8987    4.2419    2.3236   H         1 RES1   0.0000
    61 H32       2.7083    1.4973    1.6776   H         1 RES1   0.0000
    62 H33       3.7190    1.9153    3.0996   H         1 RES1   0.0000
    63 H34       4.3998    2.0080    1.4853   H         1 RES1   0.0000
    64 H35       0.9330    3.7064    2.3389   H         1 RES1   0.0000
    65 H36       1.8275    4.9476    3.1884   H         1 RES1   0.0000
    66 H37       1.9272    3.3111    3.7703   H         1 RES1   0.0000
    67 H38      -0.8087    6.4982   -2.6372   H         1 RES1   0.0000
    68 H39       0.0033    7.9696   -4.3986   H         1 RES1   0.0000
    69 H40       0.9502    7.0245   -6.4764   H         1 RES1   0.0000
    70 H41       1.2092    4.5863   -6.6999   H         1 RES1   0.0000
    71 H42       0.3913    3.0811   -4.9102   H         1 RES1   0.0000
    72 C25      -1.2481   -4.9629    8.6751   C.3       1 RES1   0.0000
    73 C26       0.1254   -5.5652    8.4166   C.3       1 RES1   0.0000
    74 C27       1.0780   -4.6067    7.7037   C.3       1 RES1   0.0000
    75 C28       1.4564   -3.4111    8.5816   C.3       1 RES1   0.0000
    76 C29       2.5636   -2.5498    7.9689   C.3       1 RES1   0.0000
    77 C30       2.1027   -1.8117    6.7097   C.3       1 RES1   0.0000
    78 C31       3.2582   -1.2091    5.9164   C.3       1 RES1   0.0000
    79 C32       2.8050   -0.6000    4.5987   C.3       1 RES1   0.0000
    80 P2        1.7446   -1.5166    3.3981   P.3       1 RES1   0.0000
    81 O3        1.8762   -0.7270    2.1268   O.2       1 RES1   0.0000
    82 C33       0.0129   -1.3399    4.0552   C.3       1 RES1   0.0000
    83 C34      -0.9419   -1.9973    3.0821   C.2       1 RES1   0.0000
    84 O4       -0.8199   -1.7295    1.8709   O.2       1 RES1   0.0000
    85 N2       -1.8484   -2.8642    3.5700   N.am      1 RES1   0.0000
    86 C35      -2.3283   -2.8864    4.9488   C.3       1 RES1   0.0000
    87 C36      -3.3714   -1.8019    5.2941   C.3       1 RES1   0.0000
    88 C37      -4.5943   -1.8408    4.3779   C.3       1 RES1   0.0000
    89 C38      -2.7608   -0.4088    5.2951   C.3       1 RES1   0.0000
    90 C39      -2.6215   -3.7258    2.6822   C.3       1 RES1   0.0000
    91 C40      -2.2549   -5.2311    2.6848   C.3       1 RES1   0.0000
    92 C41      -0.9335   -5.4861    1.9541   C.3       1 RES1   0.0000
    93 C42      -2.2259   -5.9116    4.0551   C.3       1 RES1   0.0000
    94 C43       2.1269   -3.2907    3.1620   C.ar      1 RES1   0.0000
    95 C44       2.7484   -4.0939    4.1152   C.ar      1 RES1   0.0000
    96 C45       3.0595   -5.4076    3.8149   C.ar      1 RES1   0.0000
    97 C46       2.7601   -5.9343    2.5694   C.ar      1 RES1   0.0000
    98 C47       2.1490   -5.1357    1.6177   C.ar      1 RES1   0.0000
    99 C48       1.8262   -3.8218    1.9117   C.ar      1 RES1   0.0000
   100 H43      -1.9096   -5.7070    9.1059   H         1 RES1   0.0000
   101 H44      -1.6935   -4.6040    7.7499   H         1 RES1   0.0000
   102 H45      -1.1849   -4.1321    9.3695   H         1 RES1   0.0000
   103 H46       0.0162   -6.4647    7.8109   H         1 RES1   0.0000
   104 H47       0.5699   -5.8689    9.3632   H         1 RES1   0.0000
   105 H48       0.6104   -4.2736    6.7694   H         1 RES1   0.0000
   106 H49       1.9938   -5.1457    7.4420   H         1 RES1   0.0000
   107 H50       1.8111   -3.7949    9.5406   H         1 RES1   0.0000
   108 H51       0.5791   -2.7918    8.7787   H         1 RES1   0.0000
   109 H52       3.4042   -3.2014    7.7224   H         1 RES1   0.0000
   110 H53       2.9149   -1.8279    8.7097   H         1 RES1   0.0000
   111 H54       1.4080   -1.0195    6.9990   H         1 RES1   0.0000
   112 H55       1.5734   -2.5182    6.0650   H         1 RES1   0.0000
   113 H56       4.0190   -1.9673    5.7279   H         1 RES1   0.0000
   114 H57       3.7368   -0.4293    6.5145   H         1 RES1   0.0000
   115 H58       3.6717   -0.3079    4.0028   H         1 RES1   0.0000
   116 H59       2.2186    0.3036    4.7951   H         1 RES1   0.0000
   117 H60      -0.1524   -0.2599    4.0481   H         1 RES1   0.0000
   118 H61      -0.0637   -1.7163    5.0669   H         1 RES1   0.0000
   119 H62      -1.5045   -2.8325    5.6603   H         1 RES1   0.0000
   120 H63      -2.8066   -3.8481    5.1062   H         1 RES1   0.0000
   121 H64      -3.7045   -2.0304    6.3103   H         1 RES1   0.0000
   122 H65      -4.3187   -1.6172    3.3482   H         1 RES1   0.0000
   123 H66      -5.3190   -1.0988    4.7031   H         1 RES1   0.0000
   124 H67      -5.0827   -2.8119    4.4201   H         1 RES1   0.0000
   125 H68      -2.3956   -0.1750    4.2999   H         1 RES1   0.0000
   126 H69      -1.9473   -0.3344    6.0112   H         1 RES1   0.0000
   127 H70      -3.5116    0.3232    5.5739   H         1 RES1   0.0000
   128 H71      -2.4904   -3.3282    1.6771   H         1 RES1   0.0000
   129 H72      -3.6724   -3.6477    2.9536   H         1 RES1   0.0000
   130 H73      -3.0738   -5.7006    2.1238   H         1 RES1   0.0000
   131 H74      -0.4877   -4.5568    1.6179   H         1 RES1   0.0000
   132 H75      -1.0755   -6.1228    1.0876   H         1 RES1   0.0000
   133 H76      -0.2262   -5.9835    2.6086   H         1 RES1   0.0000
   134 H77      -1.4221   -5.5385    4.6888   H         1 RES1   0.0000
   135 H78      -2.0567   -6.9754    3.9070   H         1 RES1   0.0000
   136 H79      -3.1789   -5.8164    4.5700   H         1 RES1   0.0000
   137 H80       3.0192   -3.7039    5.0808   H         1 RES1   0.0000
   138 H81       3.5429   -6.0252    4.5553   H         1 RES1   0.0000
   139 H82       2.9893   -6.9632    2.3417   H         1 RES1   0.0000
   140 H83       1.9112   -5.5485    0.6499   H         1 RES1   0.0000
   141 H84       1.3726   -3.1859    1.1648   H         1 RES1   0.0000
   142 C49       7.6380    1.9416    0.9538   C.3       1 RES1   0.0000
   143 C50       8.4084    1.1060    1.9688   C.3       1 RES1   0.0000
   144 C51       7.7520   -0.2319    2.3171   C.3       1 RES1   0.0000
   145 C52       7.7851   -1.2118    1.1418   C.3       1 RES1   0.0000
   146 C53       7.4752   -2.6657    1.5162   C.3       1 RES1   0.0000
   147 C54       6.1626   -2.8703    2.2839   C.3       1 RES1   0.0000
   148 C55       4.9248   -2.2678    1.6073   C.3       1 RES1   0.0000
   149 C56       4.5571   -3.0065    0.3207   C.3       1 RES1   0.0000
   150 P3        3.4519   -2.0779   -0.8158   P.3       1 RES1   0.0000
   151 O5        2.1116   -1.6485   -0.3188   O.2       1 RES1   0.0000
   152 C57       4.5252   -0.6109   -1.1901   C.3       1 RES1   0.0000
   153 C58       3.7042    0.4370   -1.8945   C.2       1 RES1   0.0000
   154 O6        2.6957    0.8748   -1.2989   O.2       1 RES1   0.0000
   155 N3        4.0903    0.8793   -3.0953   N.am      1 RES1   0.0000
   156 C59       5.2735    0.3664   -3.7867   C.3       1 RES1   0.0000
   157 C60       6.6477    0.5997   -3.1097   C.3       1 RES1   0.0000
   158 C61       7.3156    1.9085   -3.5197   C.3       1 RES1   0.0000
   159 C62       7.5628   -0.5694   -3.4821   C.3       1 RES1   0.0000
   160 C63       3.1294    1.6311   -3.9011   C.3       1 RES1   0.0000
   161 C64       3.4253    3.1186   -4.1439   C.3       1 RES1   0.0000
   162 C65       3.6031    3.8318   -2.8113   C.3       1 RES1   0.0000
   163 C66       4.5528    3.4075   -5.1249   C.3       1 RES1   0.0000
   164 C67       3.2338   -3.0181   -2.3507   C.ar      1 RES1   0.0000
   165 C68       2.4134   -2.4420   -3.3179   C.ar      1 RES1   0.0000
   166 C69       2.1777   -3.1076   -4.5067   C.ar      1 RES1   0.0000
   167 C70       2.7467   -4.3546   -4.7224   C.ar      1 RES1   0.0000
   168 C71       3.5155   -4.9508   -3.7361   C.ar      1 RES1   0.0000
   169 C72       3.7685   -4.2838   -2.5486   C.ar      1 RES1   0.0000
   170 H85       8.1802    2.8607    0.7518   H         1 RES1   0.0000
   171 H86       6.6533    2.2062    1.3355   H         1 RES1   0.0000
   172 H87       7.5193    1.4122    0.0125   H         1 RES1   0.0000
   173 H88       8.5189    1.6874    2.8834   H         1 RES1   0.0000
   174 H89       9.4092    0.9125    1.5829   H         1 RES1   0.0000
   175 H90       6.7203   -0.0616    2.6415   H         1 RES1   0.0000
   176 H91       8.2965   -0.6741    3.1548   H         1 RES1   0.0000
   177 H92       8.7867   -1.1922    0.7077   H         1 RES1   0.0000
   178 H93       7.0946   -0.8831    0.3618   H         1 RES1   0.0000
   179 H94       8.2912   -3.0517    2.1317   H         1 RES1   0.0000
   180 H95       7.4707   -3.2646    0.6013   H         1 RES1   0.0000
   181 H96       6.2759   -2.4185    3.2707   H         1 RES1   0.0000
   182 H97       6.0107   -3.9415    2.4371   H         1 RES1   0.0000
   183 H98       5.1229   -1.2149    1.4077   H         1 RES1   0.0000
   184 H99       4.0861   -2.3061    2.3052   H         1 RES1   0.0000
   185 H100      4.1091   -3.9712    0.5602   H         1 RES1   0.0000
   186 H101      5.4652   -3.1831   -0.2596   H         1 RES1   0.0000
   187 H102      5.3957   -0.9770   -1.7235   H         1 RES1   0.0000
   188 H103      4.8321   -0.1719   -0.2335   H         1 RES1   0.0000
   189 H104      5.2904    0.8461   -4.7636   H         1 RES1   0.0000
   190 H105      5.1404   -0.7103   -3.9588   H         1 RES1   0.0000
   191 H106      6.5218    0.6400   -2.0243   H         1 RES1   0.0000
   192 H107      7.3906    1.9866   -4.6012   H         1 RES1   0.0000
   193 H108      8.3236    1.9394   -3.1169   H         1 RES1   0.0000
   194 H109      6.7818    2.7658   -3.1198   H         1 RES1   0.0000
   195 H110      7.6827   -0.6243   -4.5619   H         1 RES1   0.0000
   196 H111      7.1647   -1.5239   -3.1398   H         1 RES1   0.0000
   197 H112      8.5473   -0.4392   -3.0431   H         1 RES1   0.0000
   198 H113      2.1830    1.5750   -3.3525   H         1 RES1   0.0000
   199 H114      3.0257    1.1129   -4.8615   H         1 RES1   0.0000
   200 H115      2.5140    3.5055   -4.6019   H         1 RES1   0.0000
   201 H116      4.4459    3.4258   -2.2570   H         1 RES1   0.0000
   202 H117      2.6963    3.7011   -2.2265   H         1 RES1   0.0000
   203 H118      3.7634    4.8930   -2.9724   H         1 RES1   0.0000
   204 H119      5.5202    3.1366   -4.7313   H         1 RES1   0.0000
   205 H120      4.5772    4.4701   -5.3444   H         1 RES1   0.0000
   206 H121      4.3943    2.8865   -6.0645   H         1 RES1   0.0000
   207 H122      1.9502   -1.4835   -3.1164   H         1 RES1   0.0000
   208 H123      1.5448   -2.6640   -5.2612   H         1 RES1   0.0000
   209 H124      2.5822   -4.8797   -5.6505   H         1 RES1   0.0000
   210 H125      3.9139   -5.9423   -3.8810   H         1 RES1   0.0000
   211 H126      4.3749   -4.7487   -1.7847   H         1 RES1   0.0000
   212 C73      -3.0026    4.3542   -7.6798   C.3       1 RES1   0.0000
   213 C74      -2.6482    3.4607   -8.8631   C.3       1 RES1   0.0000
   214 C75      -1.7441    2.2858   -8.4848   C.3       1 RES1   0.0000
   215 C76      -2.4095    1.2771   -7.5508   C.3       1 RES1   0.0000
   216 C77      -1.5947   -0.0003   -7.3201   C.3       1 RES1   0.0000
   217 C78      -0.3274    0.1193   -6.4560   C.3       1 RES1   0.0000
   218 C79      -0.5190    0.5046   -4.9758   C.3       1 RES1   0.0000
   219 C80      -1.4706   -0.4492   -4.2714   C.3       1 RES1   0.0000
   220 P4       -1.4943   -0.6596   -2.4384   P.3       1 RES1   0.0000
   221 O7       -0.1649   -0.5874   -1.7594   O.2       1 RES1   0.0000
   222 C81      -2.8766    0.2867   -1.5460   C.3       1 RES1   0.0000
   223 C82      -2.6108    0.8281   -0.1684   C.2       1 RES1   0.0000
   224 O8       -1.4783    0.7543    0.3331   O.2       1 RES1   0.0000
   225 N4       -3.6304    1.3255    0.5766   N.am      1 RES1   0.0000
   226 C83      -5.0113    1.5363    0.1440   C.3       1 RES1   0.0000
   227 C84      -5.4118    2.8485   -0.5708   C.3       1 RES1   0.0000
   228 C85      -4.8354    4.1445   -0.0108   C.3       1 RES1   0.0000
   229 C86      -6.9380    2.9656   -0.5420   C.3       1 RES1   0.0000
   230 C87      -3.4827    1.1243    2.0225   C.3       1 RES1   0.0000
   231 C88      -3.3945    2.3120    3.0071   C.3       1 RES1   0.0000
   232 C89      -2.6054    3.5328    2.5401   C.3       1 RES1   0.0000
   233 C90      -4.7885    2.6939    3.5011   C.3       1 RES1   0.0000
   234 C91      -2.1570   -2.3573   -2.3093   C.ar      1 RES1   0.0000
   235 C92      -2.1839   -2.8864   -1.0233   C.ar      1 RES1   0.0000
   236 C93      -2.6494   -4.1722   -0.8104   C.ar      1 RES1   0.0000
   237 C94      -3.0866   -4.9406   -1.8769   C.ar      1 RES1   0.0000
   238 C95      -3.0573   -4.4217   -3.1581   C.ar      1 RES1   0.0000
   239 C96      -2.6067   -3.1311   -3.3715   C.ar      1 RES1   0.0000
   240 H127     -3.5038    5.2588   -8.0171   H         1 RES1   0.0000
   241 H128     -2.1014    4.6450   -7.1381   H         1 RES1   0.0000
   242 H129     -3.6739    3.8402   -6.9970   H         1 RES1   0.0000
   243 H130     -2.1319    4.0653   -9.6090   H         1 RES1   0.0000
   244 H131     -3.5643    3.0928   -9.3273   H         1 RES1   0.0000
   245 H132     -0.8370    2.6829   -8.0256   H         1 RES1   0.0000
   246 H133     -1.4584    1.7730   -9.4031   H         1 RES1   0.0000
   247 H134     -3.3632    0.9841   -7.9957   H         1 RES1   0.0000
   248 H135     -2.6261    1.7434   -6.5932   H         1 RES1   0.0000
   249 H136     -1.2769   -0.3794   -8.2940   H         1 RES1   0.0000
   250 H137     -2.2537   -0.7588   -6.8920   H         1 RES1   0.0000
   251 H138      0.3345    0.8528   -6.9236   H         1 RES1   0.0000
   252 H139      0.1830   -0.8493   -6.5091   H         1 RES1   0.0000
   253 H140     -0.8867    1.5250   -4.9244   H         1 RES1   0.0000
   254 H141      0.4539    0.4628   -4.4782   H         1 RES1   0.0000
   255 H142     -1.1800   -1.4559   -4.5943   H         1 RES1   0.0000
   256 H143     -2.5009   -0.2818   -4.5895   H         1 RES1   0.0000
   257 H144     -3.6821   -0.4485   -1.4466   H         1 RES1   0.0000
   258 H145     -3.2272    1.0921   -2.1791   H         1 RES1   0.0000
   259 H146     -5.6314    1.4666    1.0349   H         1 RES1   0.0000
   260 H147     -5.3092    0.7150   -0.5099   H         1 RES1   0.0000
   261 H148     -5.1203    2.7757   -1.6176   H         1 RES1   0.0000
   262 H149     -5.0243    4.2334    1.0524   H         1 RES1   0.0000
   263 H150     -5.3273    4.9849   -0.4934   H         1 RES1   0.0000
   264 H151     -3.7700    4.2424   -0.2031   H         1 RES1   0.0000
   265 H152     -7.3020    3.2448    0.4444   H         1 RES1   0.0000
   266 H153     -7.4111    2.0322   -0.8294   H         1 RES1   0.0000
   267 H154     -7.2496    3.7432   -1.2351   H         1 RES1   0.0000
   268 H155     -2.5904    0.5067    2.1438   H         1 RES1   0.0000
   269 H156     -4.3430    0.5170    2.3332   H         1 RES1   0.0000
   270 H157     -2.8592    1.9148    3.8773   H         1 RES1   0.0000
   271 H158     -3.1678    4.1086    1.8181   H         1 RES1   0.0000
   272 H159     -1.6475    3.2599    2.0957   H         1 RES1   0.0000
   273 H160     -2.4203    4.1726    3.4000   H         1 RES1   0.0000
   274 H161     -5.4445    3.0077    2.6951   H         1 RES1   0.0000
   275 H162     -4.7261    3.4998    4.2240   H         1 RES1   0.0000
   276 H163     -5.2367    1.8373    3.9980   H         1 RES1   0.0000
   277 H164     -1.8084   -2.2808   -0.2003   H         1 RES1   0.0000
   278 H165     -2.6587   -4.5921    0.1791   H         1 RES1   0.0000
   279 H166     -3.4244   -5.9526   -1.7170   H         1 RES1   0.0000
   280 H167     -3.3739   -5.0109   -4.0036   H         1 RES1   0.0000
   281 H168     -2.6049   -2.7599   -4.3821   H         1 RES1   0.0000
   282 O9        0.1228    1.2731    2.5775   O.3       1 RES1   0.0000
   283 H169     -0.6394    1.8512    2.4226   H         1 RES1   0.0000
   284 H170      0.8247    1.8263    2.9534   H         1 RES1   0.0000
@<TRIPOS>BOND
     1     1    11    1
     2     1    14    1
     3     1    81    1
     4     1    84    1
     5     1   151    1
     6     1   154    1
     7     1   221    1
     8     1   224    1
     9     1   282    1
    10     2     3    1
    11     2    30    1
    12     2    31    1
    13     2    32    1
    14     3     4    1
    15     3    33    1
    16     3    34    1
    17     4     5    1
    18     4    35    1
    19     4    36    1
    20     5     6    1
    21     5    37    1
    22     5    38    1
    23     6     7    1
    24     6    39    1
    25     6    40    1
    26     7     8    1
    27     7    41    1
    28     7    42    1
    29     8     9    1
    30     8    43    1
    31     8    44    1
    32     9    10    1
    33     9    45    1
    34     9    46    1
    35    10    11    2
    36    10    12    1
    37    10    24    1
    38    12    13    1
    39    12    47    1
    40    12    48    1
    41    13    14    2
    42    13    15    1
    43    15    16    1
    44    15    20    1
    45    16    17    1
    46    16    49    1
    47    16    50    1
    48    17    18    1
    49    17    19    1
    50    17    51    1
    51    18    52    1
    52    18    53    1
    53    18    54    1
    54    19    55    1
    55    19    56    1
    56    19    57    1
    57    20    21    1
    58    20    58    1
    59    20    59    1
    60    21    22    1
    61    21    23    1
    62    21    60    1
    63    22    61    1
    64    22    62    1
    65    22    63    1
    66    23    64    1
    67    23    65    1
    68    23    66    1
    69    24    25    1
    70    24    29    2
    71    25    26    2
    72    25    67    1
    73    26    27    1
    74    26    68    1
    75    27    28    2
    76    27    69    1
    77    28    29    1
    78    28    70    1
    79    29    71    1
    80    72    73    1
    81    72   100    1
    82    72   101    1
    83    72   102    1
    84    73    74    1
    85    73   103    1
    86    73   104    1
    87    74    75    1
    88    74   105    1
    89    74   106    1
    90    75    76    1
    91    75   107    1
    92    75   108    1
    93    76    77    1
    94    76   109    1
    95    76   110    1
    96    77    78    1
    97    77   111    1
    98    77   112    1
    99    78    79    1
   100    78   113    1
   101    78   114    1
   102    79    80    1
   103    79   115    1
   104    79   116    1
   105    80    81    2
   106    80    82    1
   107    80    94    1
   108    82    83    1
   109    82   117    1
   110    82   118    1
   111    83    84    2
   112    83    85    1
   113    85    86    1
   114    85    90    1
   115    86    87    1
   116    86   119    1
   117    86   120    1
   118    87    88    1
   119    87    89    1
   120    87   121    1
   121    88   122    1
   122    88   123    1
   123    88   124    1
   124    89   125    1
   125    89   126    1
   126    89   127    1
   127    90    91    1
   128    90   128    1
   129    90   129    1
   130    91    92    1
   131    91    93    1
   132    91   130    1
   133    92   131    1
   134    92   132    1
   135    92   133    1
   136    93   134    1
   137    93   135    1
   138    93   136    1
   139    94    95    1
   140    94    99    2
   141    95    96    2
   142    95   137    1
   143    96    97    1
   144    96   138    1
   145    97    98    2
   146    97   139    1
   147    98    99    1
   148    98   140    1
   149    99   141    1
   150   142   143    1
   151   142   170    1
   152   142   171    1
   153   142   172    1
   154   143   144    1
   155   143   173    1
   156   143   174    1
   157   144   145    1
   158   144   175    1
   159   144   176    1
   160   145   146    1
   161   145   177    1
   162   145   178    1
   163   146   147    1
   164   146   179    1
   165   146   180    1
   166   147   148    1
   167   147   181    1
   168   147   182    1
   169   148   149    1
   170   148   183    1
   171   148   184    1
   172   149   150    1
   173   149   185    1
   174   149   186    1
   175   150   151    2
   176   150   152    1
   177   150   164    1
   178   152   153    1
   179   152   187    1
   180   152   188    1
   181   153   154    2
   182   153   155    1
   183   155   156    1
   184   155   160    1
   185   156   157    1
   186   156   189    1
   187   156   190    1
   188   157   158    1
   189   157   159    1
   190   157   191    1
   191   158   192    1
   192   158   193    1
   193   158   194    1
   194   159   195    1
   195   159   196    1
   196   159   197    1
   197   160   161    1
   198   160   198    1
   199   160   199    1
   200   161   162    1
   201   161   163    1
   202   161   200    1
   203   162   201    1
   204   162   202    1
   205   162   203    1
   206   163   204    1
   207   163   205    1
   208   163   206    1
   209   164   165    1
   210   164   169    2
   211   165   166    2
   212   165   207    1
   213   166   167    1
   214   166   208    1
   215   167   168    2
   216   167   209    1
   217   168   169    1
   218   168   210    1
   219   169   211    1
   220   212   213    1
   221   212   240    1
   222   212   241    1
   223   212   242    1
   224   213   214    1
   225   213   243    1
   226   213   244    1
   227   214   215    1
   228   214   245    1
   229   214   246    1
   230   215   216    1
   231   215   247    1
   232   215   248    1
   233   216   217    1
   234   216   249    1
   235   216   250    1
   236   217   218    1
   237   217   251    1
   238   217   252    1
   239   218   219    1
   240   218   253    1
   241   218   254    1
   242   219   220    1
   243   219   255    1
   244   219   256    1
   245   220   221    2
   246   220   222    1
   247   220   234    1
   248   222   223    1
   249   222   257    1
   250   222   258    1
   251   223   224    2
   252   223   225    1
   253   225   226    1
   254   225   230    1
   255   226   227    1
   256   226   259    1
   257   226   260    1
   258   227   228    1
   259   227   229    1
   260   227   261    1
   261   228   262    1
   262   228   263    1
   263   228   264    1
   264   229   265    1
   265   229   266    1
   266   229   267    1
   267   230   231    1
   268   230   268    1
   269   230   269    1
   270   231   232    1
   271   231   233    1
   272   231   270    1
   273   232   271    1
   274   232   272    1
   275   232   273    1
   276   233   274    1
   277   233   275    1
   278   233   276    1
   279   234   235    1
   280   234   239    2
   281   235   236    2
   282   235   277    1
   283   236   237    1
   284   236   278    1
   285   237   238    2
   286   237   279    1
   287   238   239    1
   288   238   280    1
   289   239   281    1
   290   282   283    1
   291   282   284    1
@<TRIPOS>SUBSTRUCTURE
     1 RES1      284 GROUP             0 ****  ****    0  
