@<TRIPOS>MOLECULE
am_c3_9H2O_c0_0_nunpairedes_0_charge_3 Charge: 3 Unpaired_Electrons: 1 XTB_Unpaired_Electrons: 0 XTB_Charge: 3
   160   165     1     0     0
SMALL
NoCharges
****
Generated from Architector

@<TRIPOS>ATOM
     1 Ce1      -0.1889    0.1292   -0.0330   Ce        1 RES1   0.0000
     2 C1       -4.9876    4.9369    1.2683   C.3       1 RES1   0.0000
     3 C2       -3.9699    5.1077    0.1482   C.3       1 RES1   0.0000
     4 C3       -2.5142    5.1403    0.6372   C.3       1 RES1   0.0000
     5 N1       -2.0173    3.9163    1.2609   N.am      1 RES1   0.0000
     6 C4       -1.5961    3.9699    2.6655   C.3       1 RES1   0.0000
     7 C5       -2.7300    3.7571    3.6705   C.3       1 RES1   0.0000
     8 C6       -2.2249    3.9989    5.0883   C.3       1 RES1   0.0000
     9 C7       -1.8144    2.7904    0.5861   C.2       1 RES1   0.0000
    10 O1       -1.3760    1.7590    1.1299   O.2       1 RES1   0.0000
    11 C8       -2.0482    2.8038   -0.9333   C.3       1 RES1   0.0000
    12 O2       -1.5345    1.6226   -1.5387   O.3       1 RES1   0.0000
    13 C9       -2.5218    0.8050   -2.1608   C.3       1 RES1   0.0000
    14 C10      -3.0602   -0.2540   -1.1717   C.2       1 RES1   0.0000
    15 O3       -2.3571   -0.5313   -0.1825   O.2       1 RES1   0.0000
    16 N2       -4.2177   -0.8643   -1.4114   N.am      1 RES1   0.0000
    17 C11      -5.1634   -0.4044   -2.4319   C.3       1 RES1   0.0000
    18 C12      -4.7930   -0.6840   -3.8950   C.3       1 RES1   0.0000
    19 C13      -5.0673   -2.1253   -4.3007   C.3       1 RES1   0.0000
    20 C14      -4.6937   -1.8367   -0.4105   C.3       1 RES1   0.0000
    21 C15      -3.8323   -3.0878   -0.1819   C.3       1 RES1   0.0000
    22 C16      -3.7398   -4.0284   -1.3777   C.3       1 RES1   0.0000
    23 H1       -5.9927    5.0147    0.8670   H         1 RES1   0.0000
    24 H2       -4.8812    5.7122    2.0210   H         1 RES1   0.0000
    25 H3       -4.8841    3.9599    1.7335   H         1 RES1   0.0000
    26 H4       -4.1477    6.0506   -0.3710   H         1 RES1   0.0000
    27 H5       -4.1289    4.3136   -0.5796   H         1 RES1   0.0000
    28 H6       -2.4364    5.9385    1.3758   H         1 RES1   0.0000
    29 H7       -1.8573    5.4017   -0.2003   H         1 RES1   0.0000
    30 H8       -1.1263    4.9409    2.8542   H         1 RES1   0.0000
    31 H9       -0.8477    3.1835    2.8083   H         1 RES1   0.0000
    32 H10      -3.1070    2.7381    3.5590   H         1 RES1   0.0000
    33 H11      -3.5370    4.4556    3.4559   H         1 RES1   0.0000
    34 H12      -1.3752    3.3614    5.3178   H         1 RES1   0.0000
    35 H13      -3.0119    3.7976    5.8064   H         1 RES1   0.0000
    36 H14      -1.9169    5.0338    5.2053   H         1 RES1   0.0000
    37 H15      -1.5123    3.6649   -1.3582   H         1 RES1   0.0000
    38 H16      -3.1106    2.9037   -1.1735   H         1 RES1   0.0000
    39 H17      -1.9786    0.2820   -2.9579   H         1 RES1   0.0000
    40 H18      -3.3204    1.4115   -2.6047   H         1 RES1   0.0000
    41 H19      -5.3249    0.6675   -2.2943   H         1 RES1   0.0000
    42 H20      -6.1212   -0.8896   -2.2435   H         1 RES1   0.0000
    43 H21      -3.7518   -0.4381   -4.0977   H         1 RES1   0.0000
    44 H22      -5.4009   -0.0244   -4.5159   H         1 RES1   0.0000
    45 H23      -4.4468   -2.8119   -3.7365   H         1 RES1   0.0000
    46 H24      -4.8620   -2.2597   -5.3581   H         1 RES1   0.0000
    47 H25      -6.1091   -2.3760   -4.1263   H         1 RES1   0.0000
    48 H26      -5.6941   -2.1540   -0.7041   H         1 RES1   0.0000
    49 H27      -4.7652   -1.3133    0.5486   H         1 RES1   0.0000
    50 H28      -4.3059   -3.6252    0.6432   H         1 RES1   0.0000
    51 H29      -2.8301   -2.7954    0.1459   H         1 RES1   0.0000
    52 H30      -4.7240   -4.2421   -1.7874   H         1 RES1   0.0000
    53 H31      -3.3056   -4.9743   -1.0642   H         1 RES1   0.0000
    54 H32      -3.1110   -3.6018   -2.1532   H         1 RES1   0.0000
    55 C17       4.8379    4.9210    1.3526   C.3       1 RES1   0.0000
    56 C18       4.1389    4.0927    2.4228   C.3       1 RES1   0.0000
    57 C19       2.6101    4.2399    2.4263   C.3       1 RES1   0.0000
    58 N3        1.9171    3.7609    1.2312   N.am      1 RES1   0.0000
    59 C20       1.2058    4.7645    0.4356   C.3       1 RES1   0.0000
    60 C21       2.0681    5.7169   -0.3927   C.3       1 RES1   0.0000
    61 C22       1.1536    6.6560   -1.1751   C.3       1 RES1   0.0000
    62 C23       1.6838    2.4782    0.9797   C.2       1 RES1   0.0000
    63 O4        1.0372    2.0936   -0.0167   O.2       1 RES1   0.0000
    64 C24       2.1316    1.4240    2.0100   C.3       1 RES1   0.0000
    65 O5        2.0818    0.0992    1.4933   O.3       1 RES1   0.0000
    66 C25       3.2794   -0.3890    0.8873   C.3       1 RES1   0.0000
    67 C26       3.0734   -0.4852   -0.6491   C.2       1 RES1   0.0000
    68 O6        1.9521   -0.1836   -1.0868   O.2       1 RES1   0.0000
    69 N4        4.1194   -0.8239   -1.4049   N.am      1 RES1   0.0000
    70 C27       5.2911   -1.4850   -0.8268   C.3       1 RES1   0.0000
    71 C28       5.0309   -2.9321   -0.3774   C.3       1 RES1   0.0000
    72 C29       4.7530   -3.8833   -1.5362   C.3       1 RES1   0.0000
    73 C30       4.2408   -0.3499   -2.7980   C.3       1 RES1   0.0000
    74 C31       3.0545   -0.5623   -3.7345   C.3       1 RES1   0.0000
    75 C32       2.7949   -2.0345   -4.0084   C.3       1 RES1   0.0000
    76 H33       5.9127    4.7960    1.4358   H         1 RES1   0.0000
    77 H34       4.6276    5.9788    1.4753   H         1 RES1   0.0000
    78 H35       4.5342    4.6081    0.3577   H         1 RES1   0.0000
    79 H36       4.4852    4.4120    3.4075   H         1 RES1   0.0000
    80 H37       4.4335    3.0494    2.3001   H         1 RES1   0.0000
    81 H38       2.3840    5.3020    2.5171   H         1 RES1   0.0000
    82 H39       2.1942    3.7339    3.3028   H         1 RES1   0.0000
    83 H40       0.5855    5.3576    1.1172   H         1 RES1   0.0000
    84 H41       0.5516    4.2161   -0.2456   H         1 RES1   0.0000
    85 H42       2.6866    5.1416   -1.0835   H         1 RES1   0.0000
    86 H43       2.7188    6.3045    0.2547   H         1 RES1   0.0000
    87 H44       0.5137    6.0988   -1.8559   H         1 RES1   0.0000
    88 H45       1.7420    7.3519   -1.7628   H         1 RES1   0.0000
    89 H46       0.5274    7.2312   -0.4973   H         1 RES1   0.0000
    90 H47       1.3713    1.4480    2.8042   H         1 RES1   0.0000
    91 H48       3.1105    1.6346    2.4503   H         1 RES1   0.0000
    92 H49       3.5145   -1.3572    1.3468   H         1 RES1   0.0000
    93 H50       4.1221    0.2851    1.0797   H         1 RES1   0.0000
    94 H51       5.6773   -0.9010    0.0113   H         1 RES1   0.0000
    95 H52       6.0758   -1.5218   -1.5826   H         1 RES1   0.0000
    96 H53       4.1995   -2.9856    0.3288   H         1 RES1   0.0000
    97 H54       5.9200   -3.2746    0.1539   H         1 RES1   0.0000
    98 H55       3.8180   -3.6362   -2.0311   H         1 RES1   0.0000
    99 H56       4.6884   -4.9039   -1.1680   H         1 RES1   0.0000
   100 H57       5.5493   -3.8387   -2.2731   H         1 RES1   0.0000
   101 H58       5.1047   -0.8505   -3.2369   H         1 RES1   0.0000
   102 H59       4.4608    0.7219   -2.7463   H         1 RES1   0.0000
   103 H60       3.3106   -0.0666   -4.6717   H         1 RES1   0.0000
   104 H61       2.1583   -0.0792   -3.3412   H         1 RES1   0.0000
   105 H62       3.7047   -2.5322   -4.3360   H         1 RES1   0.0000
   106 H63       2.0499   -2.1385   -4.7879   H         1 RES1   0.0000
   107 H64       2.4180   -2.5197   -3.1120   H         1 RES1   0.0000
   108 C33       1.4106   -5.0118   -5.3282   C.3       1 RES1   0.0000
   109 C34       0.1192   -5.3321   -4.5832   C.3       1 RES1   0.0000
   110 C35       0.0369   -4.7023   -3.1871   C.3       1 RES1   0.0000
   111 N5       -0.3211   -3.2826   -3.1207   N.am      1 RES1   0.0000
   112 C36      -1.3727   -2.8051   -4.0308   C.3       1 RES1   0.0000
   113 C37      -0.9479   -2.2144   -5.3824   C.3       1 RES1   0.0000
   114 C38      -0.5120   -0.7542   -5.3187   C.3       1 RES1   0.0000
   115 C39      -0.0495   -2.5364   -2.0506   C.2       1 RES1   0.0000
   116 O7       -0.4355   -1.3579   -1.9573   O.2       1 RES1   0.0000
   117 C40       0.6861   -3.1471   -0.8343   C.3       1 RES1   0.0000
   118 O8        0.3649   -2.2871    0.2544   O.3       1 RES1   0.0000
   119 C41       0.5433   -2.8458    1.5543   C.3       1 RES1   0.0000
   120 C42      -0.3202   -1.9416    2.4881   C.2       1 RES1   0.0000
   121 O9       -0.5339   -0.7871    2.0863   O.2       1 RES1   0.0000
   122 N6       -0.8359   -2.4459    3.6068   N.am      1 RES1   0.0000
   123 C43      -0.2853   -3.6492    4.2225   C.3       1 RES1   0.0000
   124 C44       1.1657   -3.4551    4.6744   C.3       1 RES1   0.0000
   125 C45       1.2880   -2.5037    5.8581   C.3       1 RES1   0.0000
   126 C46      -2.0668   -1.9139    4.2291   C.3       1 RES1   0.0000
   127 C47      -2.2147   -0.4084    4.4532   C.3       1 RES1   0.0000
   128 C48      -1.2151    0.1412    5.4632   C.3       1 RES1   0.0000
   129 H65       1.4979   -5.6481   -6.2026   H         1 RES1   0.0000
   130 H66       2.2761   -5.1916   -4.6964   H         1 RES1   0.0000
   131 H67       1.4462   -3.9822   -5.6692   H         1 RES1   0.0000
   132 H68       0.0715   -6.4129   -4.4341   H         1 RES1   0.0000
   133 H69      -0.7426   -5.0581   -5.1881   H         1 RES1   0.0000
   134 H70       1.0151   -4.8225   -2.7254   H         1 RES1   0.0000
   135 H71      -0.6989   -5.2652   -2.5992   H         1 RES1   0.0000
   136 H72      -1.9254   -2.0397   -3.4801   H         1 RES1   0.0000
   137 H73      -2.0353   -3.6565   -4.2106   H         1 RES1   0.0000
   138 H74      -1.8132   -2.2834   -6.0457   H         1 RES1   0.0000
   139 H75      -0.1622   -2.8257   -5.8203   H         1 RES1   0.0000
   140 H76      -1.3512   -0.1140   -5.0522   H         1 RES1   0.0000
   141 H77      -0.1625   -0.4423   -6.2987   H         1 RES1   0.0000
   142 H78       0.2861   -0.6019   -4.5978   H         1 RES1   0.0000
   143 H79       1.7750   -3.1730   -0.9953   H         1 RES1   0.0000
   144 H80       0.3335   -4.1669   -0.6357   H         1 RES1   0.0000
   145 H81       1.6079   -2.8349    1.8299   H         1 RES1   0.0000
   146 H82       0.1891   -3.8839    1.5854   H         1 RES1   0.0000
   147 H83      -0.3704   -4.5013    3.5441   H         1 RES1   0.0000
   148 H84      -0.8783   -3.8835    5.1068   H         1 RES1   0.0000
   149 H85       1.7718   -3.0707    3.8553   H         1 RES1   0.0000
   150 H86       1.5679   -4.4286    4.9507   H         1 RES1   0.0000
   151 H87       0.9436   -1.5090    5.5938   H         1 RES1   0.0000
   152 H88       2.3263   -2.4337    6.1682   H         1 RES1   0.0000
   153 H89       0.7072   -2.8608    6.7028   H         1 RES1   0.0000
   154 H90      -2.1531   -2.3893    5.2086   H         1 RES1   0.0000
   155 H91      -2.9075   -2.2558    3.6133   H         1 RES1   0.0000
   156 H92      -3.2226   -0.2752    4.8541   H         1 RES1   0.0000
   157 H93      -2.1558    0.1389    3.5104   H         1 RES1   0.0000
   158 H94      -1.1807   -0.4871    6.3509   H         1 RES1   0.0000
   159 H95      -1.5160    1.1349    5.7783   H         1 RES1   0.0000
   160 H96      -0.2219    0.2043    5.0237   H         1 RES1   0.0000
@<TRIPOS>BOND
     1     1    10    1
     2     1    12    1
     3     1    15    1
     4     1    63    1
     5     1    65    1
     6     1    68    1
     7     1   116    1
     8     1   118    1
     9     1   121    1
    10     2     3    1
    11     2    23    1
    12     2    24    1
    13     2    25    1
    14     3     4    1
    15     3    26    1
    16     3    27    1
    17     4     5    1
    18     4    28    1
    19     4    29    1
    20     5     6    1
    21     5     9    1
    22     6     7    1
    23     6    30    1
    24     6    31    1
    25     7     8    1
    26     7    32    1
    27     7    33    1
    28     8    34    1
    29     8    35    1
    30     8    36    1
    31     9    10    2
    32     9    11    1
    33    11    12    1
    34    11    37    1
    35    11    38    1
    36    12    13    1
    37    13    14    1
    38    13    39    1
    39    13    40    1
    40    14    15    2
    41    14    16    1
    42    16    17    1
    43    16    20    1
    44    17    18    1
    45    17    41    1
    46    17    42    1
    47    18    19    1
    48    18    43    1
    49    18    44    1
    50    19    45    1
    51    19    46    1
    52    19    47    1
    53    20    21    1
    54    20    48    1
    55    20    49    1
    56    21    22    1
    57    21    50    1
    58    21    51    1
    59    22    52    1
    60    22    53    1
    61    22    54    1
    62    55    56    1
    63    55    76    1
    64    55    77    1
    65    55    78    1
    66    56    57    1
    67    56    79    1
    68    56    80    1
    69    57    58    1
    70    57    81    1
    71    57    82    1
    72    58    59    1
    73    58    62    1
    74    59    60    1
    75    59    83    1
    76    59    84    1
    77    60    61    1
    78    60    85    1
    79    60    86    1
    80    61    87    1
    81    61    88    1
    82    61    89    1
    83    62    63    2
    84    62    64    1
    85    64    65    1
    86    64    90    1
    87    64    91    1
    88    65    66    1
    89    66    67    1
    90    66    92    1
    91    66    93    1
    92    67    68    2
    93    67    69    1
    94    69    70    1
    95    69    73    1
    96    70    71    1
    97    70    94    1
    98    70    95    1
    99    71    72    1
   100    71    96    1
   101    71    97    1
   102    72    98    1
   103    72    99    1
   104    72   100    1
   105    73    74    1
   106    73   101    1
   107    73   102    1
   108    74    75    1
   109    74   103    1
   110    74   104    1
   111    75   105    1
   112    75   106    1
   113    75   107    1
   114   108   109    1
   115   108   129    1
   116   108   130    1
   117   108   131    1
   118   109   110    1
   119   109   132    1
   120   109   133    1
   121   110   111    1
   122   110   134    1
   123   110   135    1
   124   111   112    1
   125   111   115    1
   126   112   113    1
   127   112   136    1
   128   112   137    1
   129   113   114    1
   130   113   138    1
   131   113   139    1
   132   114   140    1
   133   114   141    1
   134   114   142    1
   135   115   116    2
   136   115   117    1
   137   117   118    1
   138   117   143    1
   139   117   144    1
   140   118   119    1
   141   119   120    1
   142   119   145    1
   143   119   146    1
   144   120   121    2
   145   120   122    1
   146   122   123    1
   147   122   126    1
   148   123   124    1
   149   123   147    1
   150   123   148    1
   151   124   125    1
   152   124   149    1
   153   124   150    1
   154   125   151    1
   155   125   152    1
   156   125   153    1
   157   126   127    1
   158   126   154    1
   159   126   155    1
   160   127   128    1
   161   127   156    1
   162   127   157    1
   163   128   158    1
   164   128   159    1
   165   128   160    1
@<TRIPOS>SUBSTRUCTURE
     1 RES1      160 GROUP             0 ****  ****    0  
