@<TRIPOS>MOLECULE
tri_tri_mer_capped_0_nunpairedes_0_charge_3 Charge: 3 Unpaired_Electrons: 1 XTB_Unpaired_Electrons: 0 XTB_Charge: 3
    41    47     1     0     0
SMALL
NoCharges
****
Generated from Architector

@<TRIPOS>ATOM
     1 Ce1      -0.1939   -0.0373   -0.0279   Ce        1 RES1   0.0000
     2 O1       -0.7847   -0.3512    2.0051   O.2       1 RES1   0.0000
     3 C1        0.1384    0.2160    2.5812   C.2       1 RES1   0.0000
     4 O2        0.0124    1.4914    2.8352   O.2       1 RES1   0.0000
     5 C2        1.4359   -0.5598    2.7871   C.3       1 RES1   0.0000
     6 N1        1.8505   -0.9943    1.4129   N.4       1 RES1   0.0000
     7 C3        1.9244   -2.4750    1.2770   C.3       1 RES1   0.0000
     8 C4        1.0766   -2.9525    0.0793   C.3       1 RES1   0.0000
     9 O3       -0.2517   -2.3936    0.1063   O.3       1 RES1   0.0000
    10 C5        3.1337   -0.3301    1.0596   C.3       1 RES1   0.0000
    11 C6        3.5551   -0.4894   -0.4132   C.3       1 RES1   0.0000
    12 N2        2.5434    0.0365   -1.3505   N.4       1 RES1   0.0000
    13 C7        2.6095    1.5025   -1.5761   C.3       1 RES1   0.0000
    14 C8        1.2398    1.9898   -1.1367   C.2       1 RES1   0.0000
    15 O4        0.9218    1.7844    0.0352   O.2       1 RES1   0.0000
    16 O5        0.3249    2.4313   -1.9576   O.2       1 RES1   0.0000
    17 C9        2.4395   -0.6620   -2.6407   C.3       1 RES1   0.0000
    18 C10       0.9618   -0.7335   -3.0260   C.2       1 RES1   0.0000
    19 O6        0.1165   -0.4245   -2.1774   O.2       1 RES1   0.0000
    20 O7        0.5681   -1.0857   -4.1951   O.3       1 RES1   0.0000
    21 H1        0.6042    1.9191    3.4816   H         1 RES1   0.0000
    22 H2        1.2160   -1.4235    3.4311   H         1 RES1   0.0000
    23 H3        2.2135    0.0293    3.2812   H         1 RES1   0.0000
    24 H4        1.5478   -2.9601    2.1812   H         1 RES1   0.0000
    25 H5        2.9560   -2.8223    1.1404   H         1 RES1   0.0000
    26 H6        1.0228   -4.0442    0.0783   H         1 RES1   0.0000
    27 H7        1.5153   -2.6141   -0.8701   H         1 RES1   0.0000
    28 H8       -0.8539   -3.0304    0.5346   H         1 RES1   0.0000
    29 H9        3.9573   -0.7380    1.6599   H         1 RES1   0.0000
    30 H10       3.0221    0.7376    1.2841   H         1 RES1   0.0000
    31 H11       3.7252   -1.5432   -0.6496   H         1 RES1   0.0000
    32 H12       4.5158    0.0315   -0.5278   H         1 RES1   0.0000
    33 H13       2.8498    1.7455   -2.6170   H         1 RES1   0.0000
    34 H14       3.3607    1.9719   -0.9292   H         1 RES1   0.0000
    35 H15       0.5809    2.7325   -2.8520   H         1 RES1   0.0000
    36 H16       2.8256   -1.6841   -2.5731   H         1 RES1   0.0000
    37 H17       3.0251   -0.1855   -3.4431   H         1 RES1   0.0000
    38 H18       1.2015   -1.3345   -4.8881   H         1 RES1   0.0000
    39 O8       -1.9438    1.6529    0.0247   O.3       1 RES1   0.0000
    40 H19      -2.8317    1.6881   -0.3747   H         1 RES1   0.0000
    41 H20      -1.9284    2.4639    0.5681   H         1 RES1   0.0000
@<TRIPOS>BOND
     1     1     2    1
     2     1     4    1
     3     1     6    1
     4     1     9    1
     5     1    12    1
     6     1    15    1
     7     1    16    1
     8     1    19    1
     9     1    39    1
    10     2     3    2
    11     3     4    1
    12     3     5    1
    13     4    21    1
    14     5     6    1
    15     5    22    1
    16     5    23    1
    17     6     7    1
    18     6    10    1
    19     7     8    1
    20     7    24    1
    21     7    25    1
    22     8     9    1
    23     8    26    1
    24     8    27    1
    25     9    28    1
    26    10    11    1
    27    10    29    1
    28    10    30    1
    29    11    12    1
    30    11    31    1
    31    11    32    1
    32    12    13    1
    33    12    17    1
    34    13    14    1
    35    13    33    1
    36    13    34    1
    37    14    15    2
    38    14    16    1
    39    16    35    1
    40    17    18    1
    41    17    36    1
    42    17    37    1
    43    18    19    2
    44    18    20    1
    45    20    38    1
    46    39    40    1
    47    39    41    1
@<TRIPOS>SUBSTRUCTURE
     1 RES1       41 GROUP             0 ****  ****    0  
