@<TRIPOS>MOLECULE
cn9_YICLED_0_nunpairedes_0_charge_3 Charge: 3 Unpaired_Electrons: 1 XTB_Unpaired_Electrons: 0 XTB_Charge: 3
   361   369     1     0     0
SMALL
NoCharges
****
Generated from Architector

@<TRIPOS>ATOM
     1 Ce1       0.1817   -0.0621   -0.1333   Ce        1 RES1   0.0000
     2 C1       -8.2838    0.6801    5.1628   C.3       1 RES1   0.0000
     3 C2       -8.1945   -0.4571    6.1773   C.3       1 RES1   0.0000
     4 C3       -7.2026   -0.2021    7.3154   C.3       1 RES1   0.0000
     5 C4       -5.7240   -0.0923    6.9347   C.3       1 RES1   0.0000
     6 C5       -5.0073   -1.4137    6.6073   C.3       1 RES1   0.0000
     7 C6       -5.1079   -1.9594    5.1761   C.3       1 RES1   0.0000
     8 C7       -4.0904   -1.3887    4.1794   C.3       1 RES1   0.0000
     9 C8       -4.2901    0.1073    4.0195   C.3       1 RES1   0.0000
    10 P1       -3.3637    1.0517    2.7485   P.3       1 RES1   0.0000
    11 O1       -2.9345    0.3671    1.5066   O.2       1 RES1   0.0000
    12 C9       -4.4496    2.5409    2.6567   C.3       1 RES1   0.0000
    13 C10      -5.7983    2.3982    1.9589   C.3       1 RES1   0.0000
    14 C11      -6.4100    3.7856    1.7170   C.3       1 RES1   0.0000
    15 C12      -6.5308    4.6546    2.9733   C.3       1 RES1   0.0000
    16 C13      -7.0294    6.0770    2.6508   C.3       1 RES1   0.0000
    17 C14      -6.0860    7.1895    3.1290   C.3       1 RES1   0.0000
    18 C15      -4.7587    7.2431    2.3744   C.3       1 RES1   0.0000
    19 C16      -3.9221    8.4617    2.7409   C.3       1 RES1   0.0000
    20 C17      -1.8432    1.7686    3.5930   C.3       1 RES1   0.0000
    21 C18      -1.2084    0.6775    4.3471   C.ar      1 RES1   0.0000
    22 C19      -1.5421    0.4235    5.6694   C.ar      1 RES1   0.0000
    23 C20      -1.0422   -0.6869    6.3199   C.ar      1 RES1   0.0000
    24 C21      -0.1106   -1.4540    5.6436   C.ar      1 RES1   0.0000
    25 C22       0.2951   -1.1062    4.3676   C.ar      1 RES1   0.0000
    26 C23       1.4958   -1.7143    3.7657   C.3       1 RES1   0.0000
    27 P2        1.2629   -3.0402    2.4929   P.3       1 RES1   0.0000
    28 O2        0.5078   -2.5385    1.3043   O.2       1 RES1   0.0000
    29 C24       0.5158   -4.4928    3.3277   C.3       1 RES1   0.0000
    30 C25      -1.0127   -4.5520    3.3444   C.3       1 RES1   0.0000
    31 C26      -1.5980   -5.0756    2.0326   C.3       1 RES1   0.0000
    32 C27      -3.0283   -5.5976    2.1867   C.3       1 RES1   0.0000
    33 C28      -4.0115   -4.5113    2.6068   C.3       1 RES1   0.0000
    34 C29      -5.4747   -4.9630    2.6372   C.3       1 RES1   0.0000
    35 C30      -5.7888   -6.0765    3.6385   C.3       1 RES1   0.0000
    36 C31      -5.6684   -5.6334    5.0899   C.3       1 RES1   0.0000
    37 C32       3.0912   -3.4332    2.4300   C.3       1 RES1   0.0000
    38 C33       3.6072   -4.8424    2.1267   C.3       1 RES1   0.0000
    39 C34       5.1368   -4.8486    1.9530   C.3       1 RES1   0.0000
    40 C35       5.9144   -4.2438    3.1348   C.3       1 RES1   0.0000
    41 C36       6.3649   -2.8044    2.8787   C.3       1 RES1   0.0000
    42 C37       6.9462   -2.1365    4.1222   C.3       1 RES1   0.0000
    43 C38       7.5924   -0.7797    3.8313   C.3       1 RES1   0.0000
    44 C39       6.5971    0.2645    3.3370   C.3       1 RES1   0.0000
    45 N1       -0.3107   -0.0996    3.6934   N.ar      1 RES1   0.0000
    46 O3        0.0398    0.1839    2.4607   O.co2     1 RES1   0.0000
    47 H1       -9.0288    0.4477    4.4044   H         1 RES1   0.0000
    48 H2       -7.3332    0.8454    4.6586   H         1 RES1   0.0000
    49 H3       -8.5778    1.6060    5.6526   H         1 RES1   0.0000
    50 H4       -7.9586   -1.3929    5.6662   H         1 RES1   0.0000
    51 H5       -9.1825   -0.5810    6.6271   H         1 RES1   0.0000
    52 H6       -7.3167   -0.9920    8.0580   H         1 RES1   0.0000
    53 H7       -7.4850    0.7398    7.7912   H         1 RES1   0.0000
    54 H8       -5.2106    0.3333    7.8001   H         1 RES1   0.0000
    55 H9       -5.6348    0.6292    6.1273   H         1 RES1   0.0000
    56 H10      -5.4054   -2.1725    7.2852   H         1 RES1   0.0000
    57 H11      -3.9426   -1.3052    6.8464   H         1 RES1   0.0000
    58 H12      -6.1101   -1.8034    4.7846   H         1 RES1   0.0000
    59 H13      -4.9455   -3.0364    5.2252   H         1 RES1   0.0000
    60 H14      -4.2402   -1.8618    3.2075   H         1 RES1   0.0000
    61 H15      -3.0763   -1.6216    4.5137   H         1 RES1   0.0000
    62 H16      -4.0956    0.6181    4.9621   H         1 RES1   0.0000
    63 H17      -5.3419    0.2615    3.7648   H         1 RES1   0.0000
    64 H18      -3.9047    3.3524    2.1830   H         1 RES1   0.0000
    65 H19      -4.6234    2.8222    3.6970   H         1 RES1   0.0000
    66 H20      -6.4820    1.8014    2.5657   H         1 RES1   0.0000
    67 H21      -5.6742    1.8865    0.9985   H         1 RES1   0.0000
    68 H22      -7.3998    3.6585    1.2788   H         1 RES1   0.0000
    69 H23      -5.7977    4.3228    0.9865   H         1 RES1   0.0000
    70 H24      -5.5578    4.7427    3.4557   H         1 RES1   0.0000
    71 H25      -7.2050    4.1736    3.6837   H         1 RES1   0.0000
    72 H26      -8.0031    6.2401    3.1152   H         1 RES1   0.0000
    73 H27      -7.1722    6.1773    1.5726   H         1 RES1   0.0000
    74 H28      -5.8933    7.0657    4.1972   H         1 RES1   0.0000
    75 H29      -6.5955    8.1471    3.0026   H         1 RES1   0.0000
    76 H30      -4.9634    7.2698    1.3047   H         1 RES1   0.0000
    77 H31      -4.1885    6.3347    2.5762   H         1 RES1   0.0000
    78 H32      -4.4366    9.3750    2.4604   H         1 RES1   0.0000
    79 H33      -2.9672    8.4428    2.2204   H         1 RES1   0.0000
    80 H34      -3.7301    8.5034    3.8093   H         1 RES1   0.0000
    81 H35      -2.0950    2.6015    4.2491   H         1 RES1   0.0000
    82 H36      -1.1698    2.0683    2.7844   H         1 RES1   0.0000
    83 H37      -2.1972    1.1146    6.1757   H         1 RES1   0.0000
    84 H38      -1.3376   -0.9194    7.3326   H         1 RES1   0.0000
    85 H39       0.3654   -2.2981    6.1266   H         1 RES1   0.0000
    86 H40       2.1217   -2.1164    4.5592   H         1 RES1   0.0000
    87 H41       2.0315   -0.9298    3.2166   H         1 RES1   0.0000
    88 H42       0.9066   -4.4875    4.3449   H         1 RES1   0.0000
    89 H43       0.9059   -5.3879    2.8418   H         1 RES1   0.0000
    90 H44      -1.4206   -3.5664    3.5656   H         1 RES1   0.0000
    91 H45      -1.3151   -5.2294    4.1458   H         1 RES1   0.0000
    92 H46      -0.9827   -5.9106    1.6931   H         1 RES1   0.0000
    93 H47      -1.5624   -4.2930    1.2705   H         1 RES1   0.0000
    94 H48      -3.0271   -6.3940    2.9297   H         1 RES1   0.0000
    95 H49      -3.3543   -6.0341    1.2411   H         1 RES1   0.0000
    96 H50      -3.9235   -3.6800    1.8999   H         1 RES1   0.0000
    97 H51      -3.7308   -4.1486    3.5953   H         1 RES1   0.0000
    98 H52      -5.7617   -5.2962    1.6371   H         1 RES1   0.0000
    99 H53      -6.0931   -4.0954    2.8828   H         1 RES1   0.0000
   100 H54      -5.1382   -6.9320    3.4575   H         1 RES1   0.0000
   101 H55      -6.8132   -6.4072    3.4619   H         1 RES1   0.0000
   102 H56      -4.6585   -5.3050    5.3216   H         1 RES1   0.0000
   103 H57      -5.9086   -6.4544    5.7567   H         1 RES1   0.0000
   104 H58      -6.3607   -4.8209    5.2940   H         1 RES1   0.0000
   105 H59       3.4419   -3.2243    3.4407   H         1 RES1   0.0000
   106 H60       3.5661   -2.6916    1.7926   H         1 RES1   0.0000
   107 H61       3.1505   -5.2807    1.2348   H         1 RES1   0.0000
   108 H62       3.3554   -5.4943    2.9668   H         1 RES1   0.0000
   109 H63       5.3960   -4.2995    1.0431   H         1 RES1   0.0000
   110 H64       5.4463   -5.8856    1.8110   H         1 RES1   0.0000
   111 H65       6.8020   -4.8450    3.3232   H         1 RES1   0.0000
   112 H66       5.3117   -4.2897    4.0427   H         1 RES1   0.0000
   113 H67       5.5245   -2.2133    2.5196   H         1 RES1   0.0000
   114 H68       7.1190   -2.8053    2.0917   H         1 RES1   0.0000
   115 H69       7.6982   -2.7904    4.5612   H         1 RES1   0.0000
   116 H70       6.1599   -2.0061    4.8677   H         1 RES1   0.0000
   117 H71       8.3746   -0.9136    3.0803   H         1 RES1   0.0000
   118 H72       8.0689   -0.4151    4.7435   H         1 RES1   0.0000
   119 H73       6.1761   -0.0466    2.3860   H         1 RES1   0.0000
   120 H74       7.0936    1.2215    3.2004   H         1 RES1   0.0000
   121 H75       5.7914    0.4006    4.0545   H         1 RES1   0.0000
   122 C40      -6.3671   10.1064   -0.2999   C.3       1 RES1   0.0000
   123 C41      -5.7532    9.6296   -1.6124   C.3       1 RES1   0.0000
   124 C42      -6.3891    8.3453   -2.1447   C.3       1 RES1   0.0000
   125 C43      -6.1725    7.0924   -1.2919   C.3       1 RES1   0.0000
   126 C44      -4.9709    6.2144   -1.6658   C.3       1 RES1   0.0000
   127 C45      -3.5640    6.6979   -1.2813   C.3       1 RES1   0.0000
   128 C46      -2.4703    5.8844   -2.0034   C.3       1 RES1   0.0000
   129 C47      -1.2512    5.4991   -1.1591   C.3       1 RES1   0.0000
   130 P3       -1.4271    3.9860   -0.1082   P.3       1 RES1   0.0000
   131 O4       -0.3023    3.0014   -0.1315   O.2       1 RES1   0.0000
   132 C48      -1.7856    4.6567    1.5678   C.3       1 RES1   0.0000
   133 C49      -0.7712    5.5823    2.2386   C.3       1 RES1   0.0000
   134 C50      -0.7650    5.3385    3.7556   C.3       1 RES1   0.0000
   135 C51      -2.1412    5.5323    4.3978   C.3       1 RES1   0.0000
   136 C52      -2.1474    5.3169    5.9123   C.3       1 RES1   0.0000
   137 C53      -3.5676    5.3953    6.4883   C.3       1 RES1   0.0000
   138 C54      -4.2972    4.0535    6.4555   C.3       1 RES1   0.0000
   139 C55      -5.7684    4.1911    6.8298   C.3       1 RES1   0.0000
   140 C56      -3.0517    3.1156   -0.3880   C.3       1 RES1   0.0000
   141 C57      -3.3462    2.3566   -1.6239   C.ar      1 RES1   0.0000
   142 C58      -4.3138    2.7723   -2.5252   C.ar      1 RES1   0.0000
   143 C59      -4.7161    1.9551   -3.5679   C.ar      1 RES1   0.0000
   144 C60      -4.1321    0.7048   -3.6660   C.ar      1 RES1   0.0000
   145 C61      -3.1509    0.3178   -2.7713   C.ar      1 RES1   0.0000
   146 C62      -2.4216   -0.9560   -2.9363   C.3       1 RES1   0.0000
   147 P4       -0.8446   -0.5230   -3.8452   P.3       1 RES1   0.0000
   148 O5        0.1180    0.0704   -2.8701   O.2       1 RES1   0.0000
   149 C63      -1.3146    0.5328   -5.2877   C.3       1 RES1   0.0000
   150 C64      -1.1562    2.0399   -5.1218   C.3       1 RES1   0.0000
   151 C65       0.3217    2.4141   -5.0282   C.3       1 RES1   0.0000
   152 C66       0.6016    3.8984   -5.2530   C.3       1 RES1   0.0000
   153 C67       0.1230    4.7548   -4.0893   C.3       1 RES1   0.0000
   154 C68       0.5762    6.2147   -4.1870   C.3       1 RES1   0.0000
   155 C69       0.0810    6.9620   -5.4271   C.3       1 RES1   0.0000
   156 C70      -1.4348    7.1146   -5.4916   C.3       1 RES1   0.0000
   157 C71      -0.3905   -2.1375   -4.6076   C.3       1 RES1   0.0000
   158 C72      -1.2325   -2.5165   -5.8292   C.3       1 RES1   0.0000
   159 C73      -1.1628   -4.0188   -6.1789   C.3       1 RES1   0.0000
   160 C74      -2.5192   -4.7211   -6.0560   C.3       1 RES1   0.0000
   161 C75      -2.9630   -4.8956   -4.6039   C.3       1 RES1   0.0000
   162 C76      -4.4335   -5.2898   -4.4827   C.3       1 RES1   0.0000
   163 C77      -4.8499   -5.6088   -3.0457   C.3       1 RES1   0.0000
   164 C78      -4.7434   -4.4146   -2.1010   C.3       1 RES1   0.0000
   165 N2       -2.7421    1.1515   -1.7839   N.ar      1 RES1   0.0000
   166 O6       -1.8145    0.7705   -0.9562   O.co2     1 RES1   0.0000
   167 H76      -5.9610   11.0777   -0.0242   H         1 RES1   0.0000
   168 H77      -6.1633    9.4151    0.5153   H         1 RES1   0.0000
   169 H78      -7.4454   10.2076   -0.3993   H         1 RES1   0.0000
   170 H79      -4.6763    9.5081   -1.4830   H         1 RES1   0.0000
   171 H80      -5.9036   10.4053   -2.3651   H         1 RES1   0.0000
   172 H81      -6.0300    8.1558   -3.1577   H         1 RES1   0.0000
   173 H82      -7.4629    8.5228   -2.2182   H         1 RES1   0.0000
   174 H83      -7.0547    6.4569   -1.4084   H         1 RES1   0.0000
   175 H84      -6.1172    7.3681   -0.2411   H         1 RES1   0.0000
   176 H85      -5.0025    6.0632   -2.7488   H         1 RES1   0.0000
   177 H86      -5.1342    5.2474   -1.1716   H         1 RES1   0.0000
   178 H87      -3.4395    6.6349   -0.2003   H         1 RES1   0.0000
   179 H88      -3.4645    7.7488   -1.5562   H         1 RES1   0.0000
   180 H89      -2.1217    6.4650   -2.8573   H         1 RES1   0.0000
   181 H90      -2.8948    4.9671   -2.4061   H         1 RES1   0.0000
   182 H91      -0.9750    6.3170   -0.4873   H         1 RES1   0.0000
   183 H92      -0.3998    5.3084   -1.8097   H         1 RES1   0.0000
   184 H93      -1.8839    3.7739    2.1913   H         1 RES1   0.0000
   185 H94      -2.7506    5.1585    1.5186   H         1 RES1   0.0000
   186 H95      -1.0247    6.6238    2.0426   H         1 RES1   0.0000
   187 H96       0.2314    5.4010    1.8437   H         1 RES1   0.0000
   188 H97      -0.0596    6.0220    4.2305   H         1 RES1   0.0000
   189 H98      -0.4099    4.3222    3.9448   H         1 RES1   0.0000
   190 H99      -2.8655    4.8474    3.9507   H         1 RES1   0.0000
   191 H100     -2.4811    6.5483    4.1990   H         1 RES1   0.0000
   192 H101     -1.5218    6.0784    6.3768   H         1 RES1   0.0000
   193 H102     -1.7116    4.3432    6.1570   H         1 RES1   0.0000
   194 H103     -4.1448    6.1308    5.9242   H         1 RES1   0.0000
   195 H104     -3.5280    5.7404    7.5213   H         1 RES1   0.0000
   196 H105     -3.8103    3.3617    7.1489   H         1 RES1   0.0000
   197 H106     -4.2226    3.6247    5.4513   H         1 RES1   0.0000
   198 H107     -5.8643    4.5806    7.8402   H         1 RES1   0.0000
   199 H108     -6.2723    3.2268    6.7852   H         1 RES1   0.0000
   200 H109     -6.2779    4.8745    6.1525   H         1 RES1   0.0000
   201 H110     -3.8517    3.8281   -0.2042   H         1 RES1   0.0000
   202 H111     -3.0127    2.3656    0.4111   H         1 RES1   0.0000
   203 H112     -4.7830    3.7317   -2.3912   H         1 RES1   0.0000
   204 H113     -5.4778    2.2721   -4.2591   H         1 RES1   0.0000
   205 H114     -4.4415    0.0115   -4.4325   H         1 RES1   0.0000
   206 H115     -3.0170   -1.6749   -3.4948   H         1 RES1   0.0000
   207 H116     -2.1074   -1.3866   -1.9748   H         1 RES1   0.0000
   208 H117     -2.3392    0.2794   -5.5615   H         1 RES1   0.0000
   209 H118     -0.6738    0.2088   -6.1116   H         1 RES1   0.0000
   210 H119     -1.6911    2.3960   -4.2386   H         1 RES1   0.0000
   211 H120     -1.5989    2.5216   -5.9985   H         1 RES1   0.0000
   212 H121      0.8685    1.8477   -5.7833   H         1 RES1   0.0000
   213 H122      0.6850    2.1061   -4.0483   H         1 RES1   0.0000
   214 H123      0.1220    4.2163   -6.1782   H         1 RES1   0.0000
   215 H124      1.6772    4.0440   -5.3648   H         1 RES1   0.0000
   216 H125      0.5361    4.3103   -3.1766   H         1 RES1   0.0000
   217 H126     -0.9643    4.7061   -4.0287   H         1 RES1   0.0000
   218 H127      1.6680    6.2353   -4.1883   H         1 RES1   0.0000
   219 H128      0.2433    6.7637   -3.3015   H         1 RES1   0.0000
   220 H129      0.4346    6.4578   -6.3265   H         1 RES1   0.0000
   221 H130      0.5317    7.9567   -5.4186   H         1 RES1   0.0000
   222 H131     -1.9358    6.1480   -5.4958   H         1 RES1   0.0000
   223 H132     -1.7116    7.6359   -6.4039   H         1 RES1   0.0000
   224 H133     -1.7976    7.6989   -4.6471   H         1 RES1   0.0000
   225 H134     -0.5179   -2.8792   -3.8167   H         1 RES1   0.0000
   226 H135      0.6650   -2.0848   -4.8701   H         1 RES1   0.0000
   227 H136     -0.9078   -1.9412   -6.6947   H         1 RES1   0.0000
   228 H137     -2.2750   -2.2537   -5.6483   H         1 RES1   0.0000
   229 H138     -0.4431   -4.5237   -5.5311   H         1 RES1   0.0000
   230 H139     -0.8078   -4.1352   -7.2035   H         1 RES1   0.0000
   231 H140     -2.4524   -5.7033   -6.5255   H         1 RES1   0.0000
   232 H141     -3.2677   -4.1500   -6.6094   H         1 RES1   0.0000
   233 H142     -2.7957   -3.9649   -4.0582   H         1 RES1   0.0000
   234 H143     -2.3529   -5.6720   -4.1389   H         1 RES1   0.0000
   235 H144     -4.6163   -6.1711   -5.0982   H         1 RES1   0.0000
   236 H145     -5.0632   -4.4847   -4.8676   H         1 RES1   0.0000
   237 H146     -4.2344   -6.4284   -2.6662   H         1 RES1   0.0000
   238 H147     -5.8850   -5.9554   -3.0528   H         1 RES1   0.0000
   239 H148     -3.7079   -4.1045   -1.9684   H         1 RES1   0.0000
   240 H149     -5.1435   -4.6725   -1.1228   H         1 RES1   0.0000
   241 H150     -5.3155   -3.5734   -2.4898   H         1 RES1   0.0000
   242 C79       1.5694   -7.5060   -5.6160   C.3       1 RES1   0.0000
   243 C80       2.8080   -7.3129   -6.4859   C.3       1 RES1   0.0000
   244 C81       4.1194   -7.4640   -5.7137   C.3       1 RES1   0.0000
   245 C82       4.3643   -6.4770   -4.5687   C.3       1 RES1   0.0000
   246 C83       4.7541   -5.0547   -4.9963   C.3       1 RES1   0.0000
   247 C84       3.6345   -4.0610   -5.3440   C.3       1 RES1   0.0000
   248 C85       3.0960   -3.2800   -4.1367   C.3       1 RES1   0.0000
   249 C86       2.0500   -4.0826   -3.3774   C.3       1 RES1   0.0000
   250 P5        1.4960   -3.4510   -1.7402   P.3       1 RES1   0.0000
   251 O7        0.6784   -2.1979   -1.6281   O.2       1 RES1   0.0000
   252 C87       0.6966   -4.9399   -1.0177   C.3       1 RES1   0.0000
   253 C88      -0.5910   -5.2771   -1.7662   C.3       1 RES1   0.0000
   254 C89      -1.1721   -6.6443   -1.3905   C.3       1 RES1   0.0000
   255 C90      -0.4100   -7.8093   -2.0266   C.3       1 RES1   0.0000
   256 C91      -1.0488   -9.1805   -1.7619   C.3       1 RES1   0.0000
   257 C92      -0.4841   -9.9296   -0.5546   C.3       1 RES1   0.0000
   258 C93      -0.7608   -9.2847    0.8019   C.3       1 RES1   0.0000
   259 C94      -0.4072  -10.2414    1.9357   C.3       1 RES1   0.0000
   260 C95       3.0770   -3.3955   -0.7743   C.3       1 RES1   0.0000
   261 C96       3.9973   -2.2362   -0.8139   C.ar      1 RES1   0.0000
   262 C97       5.2542   -2.3194   -1.3877   C.ar      1 RES1   0.0000
   263 C98       6.1541   -1.2744   -1.2810   C.ar      1 RES1   0.0000
   264 C99       5.7965   -0.1799   -0.5155   C.ar      1 RES1   0.0000
   265 C100      4.5455   -0.1259    0.0726   C.ar      1 RES1   0.0000
   266 C101      4.1002    0.9708    0.9587   C.3       1 RES1   0.0000
   267 P6        2.9883    2.1253    0.0074   P.3       1 RES1   0.0000
   268 O8        1.9303    1.3662   -0.7320   O.2       1 RES1   0.0000
   269 C102      4.1411    3.0661   -1.0700   C.3       1 RES1   0.0000
   270 C103      4.5086    2.3316   -2.3629   C.3       1 RES1   0.0000
   271 C104      3.5719    2.7253   -3.4992   C.3       1 RES1   0.0000
   272 C105      3.8975    2.0287   -4.8193   C.3       1 RES1   0.0000
   273 C106      3.6010    0.5279   -4.8241   C.3       1 RES1   0.0000
   274 C107      3.3971   -0.0004   -6.2472   C.3       1 RES1   0.0000
   275 C108      4.5780    0.2220   -7.1957   C.3       1 RES1   0.0000
   276 C109      5.8497   -0.4929   -6.7551   C.3       1 RES1   0.0000
   277 C110      2.3679    3.2498    1.3128   C.3       1 RES1   0.0000
   278 C111      3.4999    4.1201    1.8601   C.3       1 RES1   0.0000
   279 C112      3.1601    4.8676    3.1606   C.3       1 RES1   0.0000
   280 C113      3.8640    4.3018    4.3980   C.3       1 RES1   0.0000
   281 C114      3.2776    2.9818    4.8975   C.3       1 RES1   0.0000
   282 C115      3.9583    2.5152    6.1866   C.3       1 RES1   0.0000
   283 C116      3.2133    1.3739    6.8793   C.3       1 RES1   0.0000
   284 C117      3.2988    0.0618    6.1082   C.3       1 RES1   0.0000
   285 N3        3.6388   -1.1086   -0.1488   N.ar      1 RES1   0.0000
   286 O9        2.4672   -1.0165    0.4188   O.co2     1 RES1   0.0000
   287 H151      0.6717   -7.5005   -6.2310   H         1 RES1   0.0000
   288 H152      1.4767   -6.7143   -4.8739   H         1 RES1   0.0000
   289 H153      1.6189   -8.4611   -5.0963   H         1 RES1   0.0000
   290 H154      2.7690   -6.3433   -6.9860   H         1 RES1   0.0000
   291 H155      2.8018   -8.0746   -7.2678   H         1 RES1   0.0000
   292 H156      4.9493   -7.3894   -6.4185   H         1 RES1   0.0000
   293 H157      4.1419   -8.4718   -5.2930   H         1 RES1   0.0000
   294 H158      5.2059   -6.8724   -3.9954   H         1 RES1   0.0000
   295 H159      3.5021   -6.4713   -3.9022   H         1 RES1   0.0000
   296 H160      5.4088   -5.1494   -5.8646   H         1 RES1   0.0000
   297 H161      5.3592   -4.6062   -4.2002   H         1 RES1   0.0000
   298 H162      2.8141   -4.5693   -5.8490   H         1 RES1   0.0000
   299 H163      4.0499   -3.3378   -6.0482   H         1 RES1   0.0000
   300 H164      2.6683   -2.3312   -4.4609   H         1 RES1   0.0000
   301 H165      3.9274   -3.0331   -3.4773   H         1 RES1   0.0000
   302 H166      2.4724   -5.0569   -3.1270   H         1 RES1   0.0000
   303 H167      1.1852   -4.2612   -4.0156   H         1 RES1   0.0000
   304 H168      0.4750   -4.7449    0.0312   H         1 RES1   0.0000
   305 H169      1.3987   -5.7715   -1.0839   H         1 RES1   0.0000
   306 H170     -0.4004   -5.2833   -2.8412   H         1 RES1   0.0000
   307 H171     -1.3248   -4.4945   -1.5587   H         1 RES1   0.0000
   308 H172     -2.2072   -6.6813   -1.7354   H         1 RES1   0.0000
   309 H173     -1.1870   -6.7557   -0.3086   H         1 RES1   0.0000
   310 H174      0.6202   -7.8278   -1.6630   H         1 RES1   0.0000
   311 H175     -0.3747   -7.6431   -3.1069   H         1 RES1   0.0000
   312 H176     -0.8825   -9.8102   -2.6373   H         1 RES1   0.0000
   313 H177     -2.1284   -9.0690   -1.6466   H         1 RES1   0.0000
   314 H178      0.5943  -10.0533   -0.6786   H         1 RES1   0.0000
   315 H179     -0.9249  -10.9278   -0.5486   H         1 RES1   0.0000
   316 H180     -1.8183   -9.0186    0.8694   H         1 RES1   0.0000
   317 H181     -0.1702   -8.3701    0.9098   H         1 RES1   0.0000
   318 H182     -0.9922  -11.1540    1.8539   H         1 RES1   0.0000
   319 H183     -0.6103   -9.7935    2.9063   H         1 RES1   0.0000
   320 H184      0.6463  -10.5101    1.8940   H         1 RES1   0.0000
   321 H185      3.6325   -4.2980   -1.0243   H         1 RES1   0.0000
   322 H186      2.6690   -3.4593    0.2315   H         1 RES1   0.0000
   323 H187      5.5460   -3.2299   -1.8885   H         1 RES1   0.0000
   324 H188      7.1250   -1.3333   -1.7468   H         1 RES1   0.0000
   325 H189      6.4988    0.6190   -0.3378   H         1 RES1   0.0000
   326 H190      4.9527    1.5193    1.3479   H         1 RES1   0.0000
   327 H191      3.5081    0.5604    1.7826   H         1 RES1   0.0000
   328 H192      5.0294    3.2856   -0.4766   H         1 RES1   0.0000
   329 H193      3.6682    4.0198   -1.3119   H         1 RES1   0.0000
   330 H194      4.4477    1.2515   -2.2177   H         1 RES1   0.0000
   331 H195      5.5357    2.5782   -2.6386   H         1 RES1   0.0000
   332 H196      3.6402    3.8051   -3.6539   H         1 RES1   0.0000
   333 H197      2.5530    2.4862   -3.1924   H         1 RES1   0.0000
   334 H198      4.9478    2.2010   -5.0591   H         1 RES1   0.0000
   335 H199      3.3038    2.4979   -5.6052   H         1 RES1   0.0000
   336 H200      2.6907    0.3408   -4.2438   H         1 RES1   0.0000
   337 H201      4.4153   -0.0185   -4.3446   H         1 RES1   0.0000
   338 H202      2.5180    0.4880   -6.6753   H         1 RES1   0.0000
   339 H203      3.1857   -1.0715   -6.2057   H         1 RES1   0.0000
   340 H204      4.7786    1.2890   -7.3006   H         1 RES1   0.0000
   341 H205      4.2891   -0.1472   -8.1827   H         1 RES1   0.0000
   342 H206      6.2392   -0.0759   -5.8296   H         1 RES1   0.0000
   343 H207      6.6169   -0.3881   -7.5170   H         1 RES1   0.0000
   344 H208      5.6583   -1.5537   -6.6044   H         1 RES1   0.0000
   345 H209      1.9090    2.6286    2.0918   H         1 RES1   0.0000
   346 H210      1.5757    3.8502    0.8618   H         1 RES1   0.0000
   347 H211      3.7745    4.8441    1.0942   H         1 RES1   0.0000
   348 H212      4.3750    3.4983    2.0472   H         1 RES1   0.0000
   349 H213      2.0821    4.8579    3.3267   H         1 RES1   0.0000
   350 H214      3.4620    5.9100    3.0540   H         1 RES1   0.0000
   351 H215      3.7856    5.0373    5.2002   H         1 RES1   0.0000
   352 H216      4.9269    4.1730    4.1828   H         1 RES1   0.0000
   353 H217      3.3835    2.2139    4.1264   H         1 RES1   0.0000
   354 H218      2.2097    3.1205    5.0914   H         1 RES1   0.0000
   355 H219      4.0156    3.3577    6.8766   H         1 RES1   0.0000
   356 H220      4.9811    2.2014    5.9700   H         1 RES1   0.0000
   357 H221      2.1630    1.6518    7.0057   H         1 RES1   0.0000
   358 H222      3.6366    1.2232    7.8730   H         1 RES1   0.0000
   359 H223      2.8788    0.1813    5.1119   H         1 RES1   0.0000
   360 H224      2.7481   -0.7220    6.6256   H         1 RES1   0.0000
   361 H225      4.3367   -0.2527    6.0160   H         1 RES1   0.0000
@<TRIPOS>BOND
     1     1    11    1
     2     1    28    1
     3     1    46    1
     4     1   131    1
     5     1   148    1
     6     1   166    1
     7     1   251    1
     8     1   268    1
     9     1   286    1
    10     2     3    1
    11     2    47    1
    12     2    48    1
    13     2    49    1
    14     3     4    1
    15     3    50    1
    16     3    51    1
    17     4     5    1
    18     4    52    1
    19     4    53    1
    20     5     6    1
    21     5    54    1
    22     5    55    1
    23     6     7    1
    24     6    56    1
    25     6    57    1
    26     7     8    1
    27     7    58    1
    28     7    59    1
    29     8     9    1
    30     8    60    1
    31     8    61    1
    32     9    10    1
    33     9    62    1
    34     9    63    1
    35    10    11    2
    36    10    12    1
    37    10    20    1
    38    12    13    1
    39    12    64    1
    40    12    65    1
    41    13    14    1
    42    13    66    1
    43    13    67    1
    44    14    15    1
    45    14    68    1
    46    14    69    1
    47    15    16    1
    48    15    70    1
    49    15    71    1
    50    16    17    1
    51    16    72    1
    52    16    73    1
    53    17    18    1
    54    17    74    1
    55    17    75    1
    56    18    19    1
    57    18    76    1
    58    18    77    1
    59    19    78    1
    60    19    79    1
    61    19    80    1
    62    20    21    1
    63    20    81    1
    64    20    82    1
    65    21    22    1
    66    21    45    2
    67    22    23    2
    68    22    83    1
    69    23    24    1
    70    23    84    1
    71    24    25    2
    72    24    85    1
    73    25    26    1
    74    25    45    1
    75    26    27    1
    76    26    86    1
    77    26    87    1
    78    27    28    2
    79    27    29    1
    80    27    37    1
    81    29    30    1
    82    29    88    1
    83    29    89    1
    84    30    31    1
    85    30    90    1
    86    30    91    1
    87    31    32    1
    88    31    92    1
    89    31    93    1
    90    32    33    1
    91    32    94    1
    92    32    95    1
    93    33    34    1
    94    33    96    1
    95    33    97    1
    96    34    35    1
    97    34    98    1
    98    34    99    1
    99    35    36    1
   100    35   100    1
   101    35   101    1
   102    36   102    1
   103    36   103    1
   104    36   104    1
   105    37    38    1
   106    37   105    1
   107    37   106    1
   108    38    39    1
   109    38   107    1
   110    38   108    1
   111    39    40    1
   112    39   109    1
   113    39   110    1
   114    40    41    1
   115    40   111    1
   116    40   112    1
   117    41    42    1
   118    41   113    1
   119    41   114    1
   120    42    43    1
   121    42   115    1
   122    42   116    1
   123    43    44    1
   124    43   117    1
   125    43   118    1
   126    44   119    1
   127    44   120    1
   128    44   121    1
   129    45    46    1
   130   122   123    1
   131   122   167    1
   132   122   168    1
   133   122   169    1
   134   123   124    1
   135   123   170    1
   136   123   171    1
   137   124   125    1
   138   124   172    1
   139   124   173    1
   140   125   126    1
   141   125   174    1
   142   125   175    1
   143   126   127    1
   144   126   176    1
   145   126   177    1
   146   127   128    1
   147   127   178    1
   148   127   179    1
   149   128   129    1
   150   128   180    1
   151   128   181    1
   152   129   130    1
   153   129   182    1
   154   129   183    1
   155   130   131    2
   156   130   132    1
   157   130   140    1
   158   132   133    1
   159   132   184    1
   160   132   185    1
   161   133   134    1
   162   133   186    1
   163   133   187    1
   164   134   135    1
   165   134   188    1
   166   134   189    1
   167   135   136    1
   168   135   190    1
   169   135   191    1
   170   136   137    1
   171   136   192    1
   172   136   193    1
   173   137   138    1
   174   137   194    1
   175   137   195    1
   176   138   139    1
   177   138   196    1
   178   138   197    1
   179   139   198    1
   180   139   199    1
   181   139   200    1
   182   140   141    1
   183   140   201    1
   184   140   202    1
   185   141   142    1
   186   141   165    2
   187   142   143    2
   188   142   203    1
   189   143   144    1
   190   143   204    1
   191   144   145    2
   192   144   205    1
   193   145   146    1
   194   145   165    1
   195   146   147    1
   196   146   206    1
   197   146   207    1
   198   147   148    2
   199   147   149    1
   200   147   157    1
   201   149   150    1
   202   149   208    1
   203   149   209    1
   204   150   151    1
   205   150   210    1
   206   150   211    1
   207   151   152    1
   208   151   212    1
   209   151   213    1
   210   152   153    1
   211   152   214    1
   212   152   215    1
   213   153   154    1
   214   153   216    1
   215   153   217    1
   216   154   155    1
   217   154   218    1
   218   154   219    1
   219   155   156    1
   220   155   220    1
   221   155   221    1
   222   156   222    1
   223   156   223    1
   224   156   224    1
   225   157   158    1
   226   157   225    1
   227   157   226    1
   228   158   159    1
   229   158   227    1
   230   158   228    1
   231   159   160    1
   232   159   229    1
   233   159   230    1
   234   160   161    1
   235   160   231    1
   236   160   232    1
   237   161   162    1
   238   161   233    1
   239   161   234    1
   240   162   163    1
   241   162   235    1
   242   162   236    1
   243   163   164    1
   244   163   237    1
   245   163   238    1
   246   164   239    1
   247   164   240    1
   248   164   241    1
   249   165   166    1
   250   242   243    1
   251   242   287    1
   252   242   288    1
   253   242   289    1
   254   243   244    1
   255   243   290    1
   256   243   291    1
   257   244   245    1
   258   244   292    1
   259   244   293    1
   260   245   246    1
   261   245   294    1
   262   245   295    1
   263   246   247    1
   264   246   296    1
   265   246   297    1
   266   247   248    1
   267   247   298    1
   268   247   299    1
   269   248   249    1
   270   248   300    1
   271   248   301    1
   272   249   250    1
   273   249   302    1
   274   249   303    1
   275   250   251    2
   276   250   252    1
   277   250   260    1
   278   252   253    1
   279   252   304    1
   280   252   305    1
   281   253   254    1
   282   253   306    1
   283   253   307    1
   284   254   255    1
   285   254   308    1
   286   254   309    1
   287   255   256    1
   288   255   310    1
   289   255   311    1
   290   256   257    1
   291   256   312    1
   292   256   313    1
   293   257   258    1
   294   257   314    1
   295   257   315    1
   296   258   259    1
   297   258   316    1
   298   258   317    1
   299   259   318    1
   300   259   319    1
   301   259   320    1
   302   260   261    1
   303   260   321    1
   304   260   322    1
   305   261   262    1
   306   261   285    2
   307   262   263    2
   308   262   323    1
   309   263   264    1
   310   263   324    1
   311   264   265    2
   312   264   325    1
   313   265   266    1
   314   265   285    1
   315   266   267    1
   316   266   326    1
   317   266   327    1
   318   267   268    2
   319   267   269    1
   320   267   277    1
   321   269   270    1
   322   269   328    1
   323   269   329    1
   324   270   271    1
   325   270   330    1
   326   270   331    1
   327   271   272    1
   328   271   332    1
   329   271   333    1
   330   272   273    1
   331   272   334    1
   332   272   335    1
   333   273   274    1
   334   273   336    1
   335   273   337    1
   336   274   275    1
   337   274   338    1
   338   274   339    1
   339   275   276    1
   340   275   340    1
   341   275   341    1
   342   276   342    1
   343   276   343    1
   344   276   344    1
   345   277   278    1
   346   277   345    1
   347   277   346    1
   348   278   279    1
   349   278   347    1
   350   278   348    1
   351   279   280    1
   352   279   349    1
   353   279   350    1
   354   280   281    1
   355   280   351    1
   356   280   352    1
   357   281   282    1
   358   281   353    1
   359   281   354    1
   360   282   283    1
   361   282   355    1
   362   282   356    1
   363   283   284    1
   364   283   357    1
   365   283   358    1
   366   284   359    1
   367   284   360    1
   368   284   361    1
   369   285   286    1
@<TRIPOS>SUBSTRUCTURE
     1 RES1      361 GROUP             0 ****  ****    0  
