@<TRIPOS>MOLECULE
am_c3_9H2O_c0_0_nunpairedes_0_charge_3 Charge: 3 Unpaired_Electrons: 1 XTB_Unpaired_Electrons: 0 XTB_Charge: 3
   120   133     1     0     0
SMALL
NoCharges
****
Generated from Architector

@<TRIPOS>ATOM
     1 Ce1      -0.2772   -1.0502   -1.0928   Ce        1 RES1   0.0000
     2 C1       -3.2208   -0.7072   -4.8808   C.3       1 RES1   0.0000
     3 C2       -2.0626    0.2725   -4.7454   C.3       1 RES1   0.0000
     4 C3       -2.5366    1.6550   -4.2910   C.3       1 RES1   0.0000
     5 C4       -1.3606    2.6241   -4.0882   C.3       1 RES1   0.0000
     6 C5       -1.5654    3.7154   -3.0207   C.3       1 RES1   0.0000
     7 C6       -1.1303    3.3188   -1.5991   C.3       1 RES1   0.0000
     8 N1       -2.1608    2.6187   -0.8433   N.ar      1 RES1   0.0000
     9 C7       -2.9044    3.2579    0.1303   C.ar      1 RES1   0.0000
    10 C8       -2.1593    4.2897    0.8869   C.ar      1 RES1   0.0000
    11 C9       -1.6845    3.7937    2.1109   C.ar      1 RES1   0.0000
    12 C10      -0.8748    4.5738    2.9124   C.ar      1 RES1   0.0000
    13 C11      -0.4938    5.8389    2.4930   C.ar      1 RES1   0.0000
    14 C12      -0.9347    6.3165    1.2715   C.ar      1 RES1   0.0000
    15 C13      -1.7666    5.5540    0.4663   C.ar      1 RES1   0.0000
    16 C14      -3.9995    2.6420    0.7430   C.ar      1 RES1   0.0000
    17 C15      -5.0261    3.4003    1.4566   C.ar      1 RES1   0.0000
    18 C16      -6.3078    2.8369    1.5669   C.ar      1 RES1   0.0000
    19 C17      -7.3340    3.5215    2.1855   C.ar      1 RES1   0.0000
    20 C18      -7.1212    4.7991    2.6817   C.ar      1 RES1   0.0000
    21 C19      -5.8689    5.3797    2.5675   C.ar      1 RES1   0.0000
    22 C20      -4.8401    4.6982    1.9546   C.ar      1 RES1   0.0000
    23 C21      -3.9693    1.1981    0.7564   C.ar      1 RES1   0.0000
    24 C22      -4.4823    0.4132    1.8139   C.ar      1 RES1   0.0000
    25 C23      -3.9118   -0.8191    2.1114   C.ar      1 RES1   0.0000
    26 C24      -4.1769   -1.5838    3.3035   C.ar      1 RES1   0.0000
    27 C25      -3.2336   -2.3907    3.8389   C.ar      1 RES1   0.0000
    28 C26      -1.9108   -2.4492    3.2650   C.ar      1 RES1   0.0000
    29 C27      -0.7294   -2.6583    3.9842   C.ar      1 RES1   0.0000
    30 C28       0.5090   -2.2749    3.4290   C.ar      1 RES1   0.0000
    31 C29       1.7043   -1.8799    4.1431   C.ar      1 RES1   0.0000
    32 C30       2.5229   -2.6704    5.0325   C.ar      1 RES1   0.0000
    33 C31       2.1315   -3.7916    5.7727   C.ar      1 RES1   0.0000
    34 C32       3.0660   -4.7426    6.1465   C.ar      1 RES1   0.0000
    35 C33       4.4133   -4.5949    5.8365   C.ar      1 RES1   0.0000
    36 C34       4.8350   -3.4218    5.2243   C.ar      1 RES1   0.0000
    37 C35       3.9111   -2.4762    4.8458   C.ar      1 RES1   0.0000
    38 C36       2.2379   -0.6651    3.6377   C.ar      1 RES1   0.0000
    39 C37       2.4379    0.5097    4.4890   C.ar      1 RES1   0.0000
    40 C38       2.9222    0.4823    5.7995   C.ar      1 RES1   0.0000
    41 C39       2.9468    1.6345    6.5655   C.ar      1 RES1   0.0000
    42 C40       2.5339    2.8495    6.0447   C.ar      1 RES1   0.0000
    43 C41       2.0212    2.8847    4.7593   C.ar      1 RES1   0.0000
    44 C42       1.9395    1.7330    4.0059   C.ar      1 RES1   0.0000
    45 N2        2.3192   -0.4669    2.2583   N.ar      1 RES1   0.0000
    46 C43       3.3921    0.4417    1.8051   C.3       1 RES1   0.0000
    47 C44       4.0027    0.0920    0.4433   C.3       1 RES1   0.0000
    48 C45       4.6414   -1.3048    0.4296   C.3       1 RES1   0.0000
    49 C46       4.6054   -1.9588   -0.9538   C.3       1 RES1   0.0000
    50 C47       5.5781   -3.1348   -1.0296   C.3       1 RES1   0.0000
    51 C48       5.3068   -4.2056    0.0184   C.3       1 RES1   0.0000
    52 C49       1.5867   -1.2111    1.4067   C.ar      1 RES1   0.0000
    53 O1        1.6511   -1.1564    0.1379   O.2       1 RES1   0.0000
    54 C50       0.4889   -1.9116    2.0551   C.ar      1 RES1   0.0000
    55 N3       -0.6090   -1.9237    1.2969   N.ar      1 RES1   0.0000
    56 C51      -1.7906   -2.0342    1.9111   C.ar      1 RES1   0.0000
    57 C52      -2.8381   -1.2591    1.2902   C.ar      1 RES1   0.0000
    58 N4       -2.5120   -0.6613    0.1449   N.ar      1 RES1   0.0000
    59 C53      -3.0272    0.5581   -0.0903   C.ar      1 RES1   0.0000
    60 C54      -2.2206    1.2871   -1.0353   C.ar      1 RES1   0.0000
    61 O2       -1.4132    0.7006   -1.8163   O.2       1 RES1   0.0000
    62 H1       -2.8740   -1.6692   -5.2470   H         1 RES1   0.0000
    63 H2       -3.9540   -0.3320   -5.5874   H         1 RES1   0.0000
    64 H3       -3.7220   -0.8555   -3.9259   H         1 RES1   0.0000
    65 H4       -1.5613    0.3798   -5.7096   H         1 RES1   0.0000
    66 H5       -1.3312   -0.1271   -4.0070   H         1 RES1   0.0000
    67 H6       -3.1172    1.5486   -3.3733   H         1 RES1   0.0000
    68 H7       -3.2040    2.0628   -5.0511   H         1 RES1   0.0000
    69 H8       -1.1558    3.1225   -5.0369   H         1 RES1   0.0000
    70 H9       -0.4601    2.0453   -3.8403   H         1 RES1   0.0000
    71 H10      -2.6092    4.0393   -3.0086   H         1 RES1   0.0000
    72 H11      -0.9404    4.5705   -3.2941   H         1 RES1   0.0000
    73 H12      -0.8360    4.2069   -1.0407   H         1 RES1   0.0000
    74 H13      -0.2766    2.6369   -1.6811   H         1 RES1   0.0000
    75 H14      -1.9705    2.7955    2.4255   H         1 RES1   0.0000
    76 H15      -0.5429    4.1840    3.8607   H         1 RES1   0.0000
    77 H16       0.1345    6.4521    3.1188   H         1 RES1   0.0000
    78 H17      -0.6189    7.2900    0.9416   H         1 RES1   0.0000
    79 H18      -2.1258    5.9627   -0.4647   H         1 RES1   0.0000
    80 H19      -6.5098    1.8842    1.0970   H         1 RES1   0.0000
    81 H20      -8.3085    3.0653    2.2561   H         1 RES1   0.0000
    82 H21      -7.9265    5.3527    3.1272   H         1 RES1   0.0000
    83 H22      -5.6819    6.3717    2.9475   H         1 RES1   0.0000
    84 H23      -3.8888    5.1910    1.8756   H         1 RES1   0.0000
    85 H24      -5.2099    0.8380    2.4857   H         1 RES1   0.0000
    86 H25      -5.1285   -1.4599    3.7958   H         1 RES1   0.0000
    87 H26      -3.4481   -2.9136    4.7551   H         1 RES1   0.0000
    88 H27      -0.7721   -2.9336    5.0260   H         1 RES1   0.0000
    89 H28       1.0948   -3.9306    6.0308   H         1 RES1   0.0000
    90 H29       2.7434   -5.6295    6.6671   H         1 RES1   0.0000
    91 H30       5.1299   -5.3717    6.0654   H         1 RES1   0.0000
    92 H31       5.8757   -3.2604    4.9875   H         1 RES1   0.0000
    93 H32       4.2309   -1.6057    4.2924   H         1 RES1   0.0000
    94 H33       3.2821   -0.4406    6.2246   H         1 RES1   0.0000
    95 H34       3.2955    1.5886    7.5821   H         1 RES1   0.0000
    96 H35       2.5727    3.7497    6.6375   H         1 RES1   0.0000
    97 H36       1.6688    3.8117    4.3380   H         1 RES1   0.0000
    98 H37       1.4287    1.7770    3.0530   H         1 RES1   0.0000
    99 H38       4.1717    0.4102    2.5728   H         1 RES1   0.0000
   100 H39       3.0238    1.4704    1.7731   H         1 RES1   0.0000
   101 H40       4.7620    0.8484    0.2232   H         1 RES1   0.0000
   102 H41       3.2294    0.1627   -0.3309   H         1 RES1   0.0000
   103 H42       4.1148   -1.9538    1.1347   H         1 RES1   0.0000
   104 H43       5.6783   -1.2251    0.7621   H         1 RES1   0.0000
   105 H44       4.8799   -1.2220   -1.7147   H         1 RES1   0.0000
   106 H45       3.5777   -2.2960   -1.1539   H         1 RES1   0.0000
   107 H46       6.5911   -2.7525   -0.9013   H         1 RES1   0.0000
   108 H47       5.5211   -3.5785   -2.0224   H         1 RES1   0.0000
   109 H48       5.4990   -3.8322    1.0203   H         1 RES1   0.0000
   110 H49       5.9611   -5.0548   -0.1456   H         1 RES1   0.0000
   111 H50       4.2774   -4.5548   -0.0362   H         1 RES1   0.0000
   112 O3        0.3263    1.1175    0.3538   O.3       1 RES1   0.0000
   113 H51       1.1917    1.4729    0.0950   H         1 RES1   0.0000
   114 H52      -0.0700    1.7776    0.9405   H         1 RES1   0.0000
   115 O4        0.6657   -2.5551   -2.9681   O.3       1 RES1   0.0000
   116 H53       1.5052   -3.0404   -2.9839   H         1 RES1   0.0000
   117 H54       0.3163   -2.6684   -3.8669   H         1 RES1   0.0000
   118 O5        1.2910    0.3475   -2.4392   O.3       1 RES1   0.0000
   119 H55       2.2535    0.2193   -2.4298   H         1 RES1   0.0000
   120 H56       1.0853    0.8507   -3.2486   H         1 RES1   0.0000
@<TRIPOS>BOND
     1     1     8    1
     2     1    45    1
     3     1    53    1
     4     1    55    1
     5     1    58    1
     6     1    61    1
     7     1   112    1
     8     1   115    1
     9     1   118    1
    10     2     3    1
    11     2    62    1
    12     2    63    1
    13     2    64    1
    14     3     4    1
    15     3    65    1
    16     3    66    1
    17     4     5    1
    18     4    67    1
    19     4    68    1
    20     5     6    1
    21     5    69    1
    22     5    70    1
    23     6     7    1
    24     6    71    1
    25     6    72    1
    26     7     8    1
    27     7    73    1
    28     7    74    1
    29     8     9    1
    30     8    60    1
    31     9    10    1
    32     9    16    2
    33    10    11    1
    34    10    15    2
    35    11    12    2
    36    11    75    1
    37    12    13    1
    38    12    76    1
    39    13    14    2
    40    13    77    1
    41    14    15    1
    42    14    78    1
    43    15    79    1
    44    16    17    1
    45    16    23    1
    46    17    18    1
    47    17    22    2
    48    18    19    2
    49    18    80    1
    50    19    20    1
    51    19    81    1
    52    20    21    2
    53    20    82    1
    54    21    22    1
    55    21    83    1
    56    22    84    1
    57    23    24    1
    58    23    59    2
    59    24    25    2
    60    24    85    1
    61    25    26    1
    62    25    57    1
    63    26    27    2
    64    26    86    1
    65    27    28    1
    66    27    87    1
    67    28    29    1
    68    28    56    2
    69    29    30    2
    70    29    88    1
    71    30    31    1
    72    30    54    1
    73    31    32    1
    74    31    38    2
    75    32    33    1
    76    32    37    2
    77    33    34    2
    78    33    89    1
    79    34    35    1
    80    34    90    1
    81    35    36    2
    82    35    91    1
    83    36    37    1
    84    36    92    1
    85    37    93    1
    86    38    39    1
    87    38    45    1
    88    39    40    1
    89    39    44    2
    90    40    41    2
    91    40    94    1
    92    41    42    1
    93    41    95    1
    94    42    43    2
    95    42    96    1
    96    43    44    1
    97    43    97    1
    98    44    98    1
    99    45    46    1
   100    45    52    1
   101    46    47    1
   102    46    99    1
   103    46   100    1
   104    47    48    1
   105    47   101    1
   106    47   102    1
   107    48    49    1
   108    48   103    1
   109    48   104    1
   110    49    50    1
   111    49   105    1
   112    49   106    1
   113    50    51    1
   114    50   107    1
   115    50   108    1
   116    51   109    1
   117    51   110    1
   118    51   111    1
   119    52    53    2
   120    52    54    1
   121    54    55    2
   122    55    56    1
   123    56    57    1
   124    57    58    2
   125    58    59    1
   126    59    60    1
   127    60    61    2
   128   112   113    1
   129   112   114    1
   130   115   116    1
   131   115   117    1
   132   118   119    1
   133   118   120    1
@<TRIPOS>SUBSTRUCTURE
     1 RES1      120 GROUP             0 ****  ****    0  
