@<TRIPOS>MOLECULE
am_c3_9H2O_c0_0_nunpairedes_0_charge_3 Charge: 3 Unpaired_Electrons: 1 XTB_Unpaired_Electrons: 0 XTB_Charge: 3
   367   372     1     0     0
SMALL
NoCharges
****
Generated from Architector

@<TRIPOS>ATOM
     1 Ce1      -0.3932    0.2609    0.2172   Ce        1 RES1   0.0000
     2 C1       -0.0453    7.6525    5.3770   C.3       1 RES1   0.0000
     3 C2       -1.4991    7.6566    4.9195   C.3       1 RES1   0.0000
     4 C3       -1.6606    6.9703    3.5643   C.3       1 RES1   0.0000
     5 C4       -3.1258    6.7227    3.2045   C.3       1 RES1   0.0000
     6 C5       -3.2606    6.1168    1.8051   C.3       1 RES1   0.0000
     7 C6       -4.6510    5.5130    1.5337   C.3       1 RES1   0.0000
     8 C7       -4.6790    4.0533    1.0501   C.3       1 RES1   0.0000
     9 C8       -4.4908    3.8337   -0.4682   C.3       1 RES1   0.0000
    10 N1       -3.1748    3.3300   -0.8431   N.am      1 RES1   0.0000
    11 C9       -2.3680    4.2011   -1.7017   C.3       1 RES1   0.0000
    12 C10      -2.0092    5.5920   -1.1791   C.3       1 RES1   0.0000
    13 C11      -1.1716    6.3298   -2.2290   C.3       1 RES1   0.0000
    14 C12      -0.7664    7.7539   -1.8483   C.3       1 RES1   0.0000
    15 C13       0.2977    7.8240   -0.7550   C.3       1 RES1   0.0000
    16 C14       0.9517    9.2057   -0.6676   C.3       1 RES1   0.0000
    17 C15       0.0140   10.3269   -0.2194   C.3       1 RES1   0.0000
    18 C16      -0.3937   10.2138    1.2431   C.3       1 RES1   0.0000
    19 C17      -2.7608    2.0687   -0.6992   C.2       1 RES1   0.0000
    20 O1       -1.6163    1.7215   -1.0588   O.2       1 RES1   0.0000
    21 C18      -3.7190    0.9739   -0.2047   C.3       1 RES1   0.0000
    22 C19      -4.3478    0.3623   -1.4621   C.3       1 RES1   0.0000
    23 O2       -2.9214    0.0074    0.4901   O.3       1 RES1   0.0000
    24 C20      -3.5399   -0.8359    1.4928   C.3       1 RES1   0.0000
    25 C21      -4.4887   -0.0429    2.4061   C.3       1 RES1   0.0000
    26 C22      -5.9659   -0.2424    2.0797   C.3       1 RES1   0.0000
    27 C23      -2.3016   -1.4342    2.2298   C.2       1 RES1   0.0000
    28 O3       -1.1981   -1.1739    1.7080   O.2       1 RES1   0.0000
    29 N2       -2.3340   -2.1364    3.3649   N.am      1 RES1   0.0000
    30 C24      -1.0863   -2.1212    4.1538   C.3       1 RES1   0.0000
    31 C25      -0.4153   -3.4274    4.5805   C.3       1 RES1   0.0000
    32 C26       0.2302   -4.2783    3.4713   C.3       1 RES1   0.0000
    33 C27      -0.4100   -5.6678    3.3279   C.3       1 RES1   0.0000
    34 C28       0.5408   -6.7990    2.9236   C.3       1 RES1   0.0000
    35 C29       1.2756   -6.5682    1.6096   C.3       1 RES1   0.0000
    36 C30       1.9419   -7.8427    1.0971   C.3       1 RES1   0.0000
    37 C31       2.6954   -7.6019   -0.2053   C.3       1 RES1   0.0000
    38 C32      -3.5035   -2.6189    4.0948   C.3       1 RES1   0.0000
    39 C33      -3.6293   -4.1488    4.2289   C.3       1 RES1   0.0000
    40 C34      -4.1850   -4.5513    5.6048   C.3       1 RES1   0.0000
    41 C35      -5.1394   -5.7495    5.5542   C.3       1 RES1   0.0000
    42 C36      -4.4985   -7.1342    5.4252   C.3       1 RES1   0.0000
    43 C37      -3.7430   -7.4153    4.1178   C.3       1 RES1   0.0000
    44 C38      -4.0207   -8.8175    3.5680   C.3       1 RES1   0.0000
    45 C39      -5.3673   -8.9049    2.8575   C.3       1 RES1   0.0000
    46 H1        0.0560    8.1552    6.3343   H         1 RES1   0.0000
    47 H2        0.5821    8.1677    4.6543   H         1 RES1   0.0000
    48 H3        0.3363    6.6380    5.4805   H         1 RES1   0.0000
    49 H4       -1.8495    8.6856    4.8490   H         1 RES1   0.0000
    50 H5       -2.1244    7.1481    5.6606   H         1 RES1   0.0000
    51 H6       -1.1927    7.5820    2.7915   H         1 RES1   0.0000
    52 H7       -1.1420    6.0071    3.5846   H         1 RES1   0.0000
    53 H8       -3.6762    7.6632    3.2397   H         1 RES1   0.0000
    54 H9       -3.5700    6.0526    3.9469   H         1 RES1   0.0000
    55 H10      -2.4959    5.3405    1.6915   H         1 RES1   0.0000
    56 H11      -3.0440    6.9067    1.0837   H         1 RES1   0.0000
    57 H12      -5.1839    6.1247    0.8092   H         1 RES1   0.0000
    58 H13      -5.2209    5.5395    2.4625   H         1 RES1   0.0000
    59 H14      -5.6569    3.6465    1.3159   H         1 RES1   0.0000
    60 H15      -3.9195    3.4861    1.5919   H         1 RES1   0.0000
    61 H16      -4.6302    4.7788   -0.9928   H         1 RES1   0.0000
    62 H17      -5.2490    3.1425   -0.8470   H         1 RES1   0.0000
    63 H18      -2.9279    4.3185   -2.6371   H         1 RES1   0.0000
    64 H19      -1.4505    3.6426   -1.9082   H         1 RES1   0.0000
    65 H20      -1.4416    5.5284   -0.2518   H         1 RES1   0.0000
    66 H21      -2.9137    6.1633   -0.9826   H         1 RES1   0.0000
    67 H22      -1.7424    6.3756   -3.1583   H         1 RES1   0.0000
    68 H23      -0.2605    5.7589   -2.4226   H         1 RES1   0.0000
    69 H24      -1.6461    8.3150   -1.5410   H         1 RES1   0.0000
    70 H25      -0.3683    8.2362   -2.7426   H         1 RES1   0.0000
    71 H26       1.0876    7.0993   -0.9804   H         1 RES1   0.0000
    72 H27      -0.1307    7.5609    0.2128   H         1 RES1   0.0000
    73 H28       1.3585    9.4579   -1.6490   H         1 RES1   0.0000
    74 H29       1.7927    9.1571    0.0293   H         1 RES1   0.0000
    75 H30      -0.8699   10.3531   -0.8563   H         1 RES1   0.0000
    76 H31       0.5359   11.2738   -0.3553   H         1 RES1   0.0000
    77 H32      -0.9970    9.3274    1.4279   H         1 RES1   0.0000
    78 H33      -0.9735   11.0814    1.5364   H         1 RES1   0.0000
    79 H34       0.4888   10.1689    1.8763   H         1 RES1   0.0000
    80 H35      -4.4915    1.3826    0.4441   H         1 RES1   0.0000
    81 H36      -3.5596   -0.0622   -2.0856   H         1 RES1   0.0000
    82 H37      -4.8912    1.1130   -2.0326   H         1 RES1   0.0000
    83 H38      -5.0478   -0.4220   -1.1820   H         1 RES1   0.0000
    84 H39      -4.0853   -1.6505    0.9940   H         1 RES1   0.0000
    85 H40      -4.2192    1.0126    2.3534   H         1 RES1   0.0000
    86 H41      -4.3300   -0.3321    3.4403   H         1 RES1   0.0000
    87 H42      -6.2416    0.1336    1.0988   H         1 RES1   0.0000
    88 H43      -6.5717    0.2765    2.8177   H         1 RES1   0.0000
    89 H44      -6.2185   -1.2970    2.1227   H         1 RES1   0.0000
    90 H45      -1.3326   -1.5716    5.0703   H         1 RES1   0.0000
    91 H46      -0.3628   -1.5324    3.5844   H         1 RES1   0.0000
    92 H47      -1.1074   -4.0291    5.1633   H         1 RES1   0.0000
    93 H48       0.3655   -3.1151    5.2768   H         1 RES1   0.0000
    94 H49       1.2835   -4.4163    3.7135   H         1 RES1   0.0000
    95 H50       0.1841   -3.7413    2.5226   H         1 RES1   0.0000
    96 H51      -1.2308   -5.6213    2.6070   H         1 RES1   0.0000
    97 H52      -0.8247   -5.9631    4.2934   H         1 RES1   0.0000
    98 H53      -0.0524   -7.7116    2.8395   H         1 RES1   0.0000
    99 H54       1.2687   -6.9634    3.7192   H         1 RES1   0.0000
   100 H55       2.0375   -5.8005    1.7486   H         1 RES1   0.0000
   101 H56       0.5683   -6.2112    0.8587   H         1 RES1   0.0000
   102 H57       1.1845   -8.6099    0.9361   H         1 RES1   0.0000
   103 H58       2.6298   -8.2185    1.8533   H         1 RES1   0.0000
   104 H59       2.0288   -7.2070   -0.9724   H         1 RES1   0.0000
   105 H60       3.1177   -8.5310   -0.5747   H         1 RES1   0.0000
   106 H61       3.5089   -6.8956   -0.0545   H         1 RES1   0.0000
   107 H62      -4.4093   -2.2666    3.6101   H         1 RES1   0.0000
   108 H63      -3.4466   -2.1871    5.0989   H         1 RES1   0.0000
   109 H64      -2.6831   -4.6421    4.0435   H         1 RES1   0.0000
   110 H65      -4.3298   -4.5065    3.4762   H         1 RES1   0.0000
   111 H66      -4.7553   -3.7093    6.0020   H         1 RES1   0.0000
   112 H67      -3.3715   -4.7587    6.3044   H         1 RES1   0.0000
   113 H68      -5.8419   -5.5971    4.7308   H         1 RES1   0.0000
   114 H69      -5.7196   -5.7449    6.4804   H         1 RES1   0.0000
   115 H70      -5.3048   -7.8636    5.5217   H         1 RES1   0.0000
   116 H71      -3.8295   -7.3015    6.2716   H         1 RES1   0.0000
   117 H72      -2.6715   -7.3189    4.2899   H         1 RES1   0.0000
   118 H73      -4.0213   -6.6956    3.3485   H         1 RES1   0.0000
   119 H74      -3.9893   -9.5398    4.3837   H         1 RES1   0.0000
   120 H75      -3.2313   -9.0920    2.8625   H         1 RES1   0.0000
   121 H76      -6.1727   -8.5906    3.5140   H         1 RES1   0.0000
   122 H77      -5.5676   -9.9242    2.5411   H         1 RES1   0.0000
   123 H78      -5.3789   -8.2698    1.9749   H         1 RES1   0.0000
   124 C40      -7.9142   -3.6511    2.9657   C.3       1 RES1   0.0000
   125 C41      -7.5074   -4.2648    1.6310   C.3       1 RES1   0.0000
   126 C42      -6.0691   -3.8818    1.2530   C.3       1 RES1   0.0000
   127 C43      -5.3133   -4.9931    0.5241   C.3       1 RES1   0.0000
   128 C44      -3.8123   -4.7173    0.4145   C.3       1 RES1   0.0000
   129 C45      -3.0895   -5.8377   -0.3284   C.3       1 RES1   0.0000
   130 C46      -1.6150   -5.5125   -0.5824   C.3       1 RES1   0.0000
   131 C47      -1.2882   -4.8123   -1.9105   C.3       1 RES1   0.0000
   132 N3       -1.5492   -3.3769   -1.9416   N.am      1 RES1   0.0000
   133 C48      -2.5197   -2.9060   -2.9350   C.3       1 RES1   0.0000
   134 C49      -3.9846   -3.2433   -2.6716   C.3       1 RES1   0.0000
   135 C50      -4.8541   -2.8650   -3.8751   C.3       1 RES1   0.0000
   136 C51      -6.2194   -3.5551   -3.8731   C.3       1 RES1   0.0000
   137 C52      -7.1192   -3.1575   -2.7010   C.3       1 RES1   0.0000
   138 C53      -8.5794   -3.5587   -2.9289   C.3       1 RES1   0.0000
   139 C54      -8.8323   -5.0687   -2.9112   C.3       1 RES1   0.0000
   140 C55      -8.7859   -5.6736   -1.5123   C.3       1 RES1   0.0000
   141 C56      -0.8071   -2.4618   -1.3124   C.2       1 RES1   0.0000
   142 O4       -1.1418   -1.2660   -1.2833   O.2       1 RES1   0.0000
   143 C57       0.5720   -2.8723   -0.7551   C.3       1 RES1   0.0000
   144 C58       1.4888   -3.0027   -1.9815   C.3       1 RES1   0.0000
   145 O5        1.0013   -1.8530    0.1592   O.3       1 RES1   0.0000
   146 C59       2.4050   -1.8027    0.5449   C.3       1 RES1   0.0000
   147 C60       3.0051   -3.2003    0.8013   C.3       1 RES1   0.0000
   148 C61       4.2913   -3.4474    0.0047   C.3       1 RES1   0.0000
   149 C62       2.4195   -0.7183    1.6839   C.2       1 RES1   0.0000
   150 O6        1.4414    0.0641    1.6712   O.2       1 RES1   0.0000
   151 N4        3.4144   -0.5441    2.5662   N.am      1 RES1   0.0000
   152 C63       3.1680    0.3944    3.6774   C.3       1 RES1   0.0000
   153 C64       4.1835    1.5038    4.0084   C.3       1 RES1   0.0000
   154 C65       4.3228    2.6665    3.0276   C.3       1 RES1   0.0000
   155 C66       5.4762    3.5974    3.4387   C.3       1 RES1   0.0000
   156 C67       5.3084    5.0475    2.9709   C.3       1 RES1   0.0000
   157 C68       5.2661    5.2086    1.4528   C.3       1 RES1   0.0000
   158 C69       5.0358    6.6560    1.0175   C.3       1 RES1   0.0000
   159 C70       4.8619    6.7651   -0.4946   C.3       1 RES1   0.0000
   160 C71       4.4873   -1.5286    2.7600   C.3       1 RES1   0.0000
   161 C72       5.7248   -1.1237    3.5577   C.3       1 RES1   0.0000
   162 C73       6.8220   -2.1848    3.4084   C.3       1 RES1   0.0000
   163 C74       7.5991   -2.0982    2.0932   C.3       1 RES1   0.0000
   164 C75       8.3258   -0.7686    1.8541   C.3       1 RES1   0.0000
   165 C76       7.4835    0.3463    1.2089   C.3       1 RES1   0.0000
   166 C77       8.2390    1.0782    0.0955   C.3       1 RES1   0.0000
   167 C78       8.3759    0.2427   -1.1718   C.3       1 RES1   0.0000
   168 H79      -8.9251   -3.9471    3.2304   H         1 RES1   0.0000
   169 H80      -7.8858   -2.5645    2.9192   H         1 RES1   0.0000
   170 H81      -7.2535   -3.9797    3.7653   H         1 RES1   0.0000
   171 H82      -8.1983   -3.9391    0.8568   H         1 RES1   0.0000
   172 H83      -7.5809   -5.3507    1.7031   H         1 RES1   0.0000
   173 H84      -6.0651   -2.9633    0.6535   H         1 RES1   0.0000
   174 H85      -5.5326   -3.6923    2.1850   H         1 RES1   0.0000
   175 H86      -5.7195   -5.1296   -0.4794   H         1 RES1   0.0000
   176 H87      -5.4612   -5.9270    1.0708   H         1 RES1   0.0000
   177 H88      -3.3827   -4.6161    1.4156   H         1 RES1   0.0000
   178 H89      -3.6477   -3.7671   -0.0980   H         1 RES1   0.0000
   179 H90      -3.5972   -6.0416   -1.2699   H         1 RES1   0.0000
   180 H91      -3.1583   -6.7501    0.2663   H         1 RES1   0.0000
   181 H92      -1.0593   -6.4505   -0.5926   H         1 RES1   0.0000
   182 H93      -1.2558   -4.9116    0.2557   H         1 RES1   0.0000
   183 H94      -1.8778   -5.2679   -2.7055   H         1 RES1   0.0000
   184 H95      -0.2393   -4.9933   -2.1545   H         1 RES1   0.0000
   185 H96      -2.2281   -3.3496   -3.8925   H         1 RES1   0.0000
   186 H97      -2.3938   -1.8238   -3.0139   H         1 RES1   0.0000
   187 H98      -4.3357   -2.7059   -1.7925   H         1 RES1   0.0000
   188 H99      -4.0916   -4.3119   -2.4886   H         1 RES1   0.0000
   189 H100     -4.3321   -3.1467   -4.7918   H         1 RES1   0.0000
   190 H101     -5.0002   -1.7832   -3.9003   H         1 RES1   0.0000
   191 H102     -6.0776   -4.6366   -3.8747   H         1 RES1   0.0000
   192 H103     -6.7249   -3.2944   -4.8046   H         1 RES1   0.0000
   193 H104     -7.0745   -2.0733   -2.5718   H         1 RES1   0.0000
   194 H105     -6.7592   -3.6155   -1.7819   H         1 RES1   0.0000
   195 H106     -8.8971   -3.1612   -3.8942   H         1 RES1   0.0000
   196 H107     -9.2027   -3.0930   -2.1616   H         1 RES1   0.0000
   197 H108     -8.1079   -5.5744   -3.5508   H         1 RES1   0.0000
   198 H109     -9.8205   -5.2540   -3.3343   H         1 RES1   0.0000
   199 H110     -7.8146   -5.5206   -1.0468   H         1 RES1   0.0000
   200 H111     -8.9716   -6.7435   -1.5606   H         1 RES1   0.0000
   201 H112     -9.5466   -5.2269   -0.8747   H         1 RES1   0.0000
   202 H113      0.4736   -3.8221   -0.2178   H         1 RES1   0.0000
   203 H114      1.9844   -2.0490   -2.1438   H         1 RES1   0.0000
   204 H115      0.9268   -3.2331   -2.8824   H         1 RES1   0.0000
   205 H116      2.2282   -3.7848   -1.8452   H         1 RES1   0.0000
   206 H117      2.9624   -1.3329   -0.2842   H         1 RES1   0.0000
   207 H118      2.2844   -3.9581    0.5004   H         1 RES1   0.0000
   208 H119      3.1680   -3.3658    1.8613   H         1 RES1   0.0000
   209 H120      4.0836   -3.5849   -1.0522   H         1 RES1   0.0000
   210 H121      4.7876   -4.3440    0.3664   H         1 RES1   0.0000
   211 H122      4.9946   -2.6229    0.0795   H         1 RES1   0.0000
   212 H123      3.0721   -0.2261    4.5742   H         1 RES1   0.0000
   213 H124      2.1993    0.8587    3.4784   H         1 RES1   0.0000
   214 H125      5.1707    1.0954    4.1837   H         1 RES1   0.0000
   215 H126      3.8495    1.9096    4.9660   H         1 RES1   0.0000
   216 H127      3.3965    3.2439    3.0203   H         1 RES1   0.0000
   217 H128      4.4971    2.2867    2.0237   H         1 RES1   0.0000
   218 H129      6.4164    3.2036    3.0485   H         1 RES1   0.0000
   219 H130      5.5564    3.6077    4.5273   H         1 RES1   0.0000
   220 H131      6.1434    5.6309    3.3633   H         1 RES1   0.0000
   221 H132      4.3936    5.4605    3.4074   H         1 RES1   0.0000
   222 H133      4.4628    4.5884    1.0486   H         1 RES1   0.0000
   223 H134      6.2027    4.8510    1.0225   H         1 RES1   0.0000
   224 H135      5.8843    7.2674    1.3265   H         1 RES1   0.0000
   225 H136      4.1467    7.0531    1.5139   H         1 RES1   0.0000
   226 H137      4.7633    7.8047   -0.7951   H         1 RES1   0.0000
   227 H138      5.7202    6.3399   -1.0108   H         1 RES1   0.0000
   228 H139      3.9687    6.2321   -0.8247   H         1 RES1   0.0000
   229 H140      4.8256   -1.8217    1.7734   H         1 RES1   0.0000
   230 H141      4.0607   -2.3950    3.2762   H         1 RES1   0.0000
   231 H142      5.4763   -1.0235    4.6150   H         1 RES1   0.0000
   232 H143      6.1356   -0.1930    3.1868   H         1 RES1   0.0000
   233 H144      6.3940   -3.1837    3.5064   H         1 RES1   0.0000
   234 H145      7.5273   -2.0551    4.2286   H         1 RES1   0.0000
   235 H146      6.9478   -2.3077    1.2442   H         1 RES1   0.0000
   236 H147      8.3488   -2.8888    2.1144   H         1 RES1   0.0000
   237 H148      9.1703   -0.9746    1.1966   H         1 RES1   0.0000
   238 H149      8.7492   -0.4147    2.7945   H         1 RES1   0.0000
   239 H150      7.1951    1.0881    1.9583   H         1 RES1   0.0000
   240 H151      6.5643   -0.0698    0.7860   H         1 RES1   0.0000
   241 H152      9.2281    1.3537    0.4610   H         1 RES1   0.0000
   242 H153      7.7104    2.0047   -0.1474   H         1 RES1   0.0000
   243 H154      8.8643   -0.7060   -0.9671   H         1 RES1   0.0000
   244 H155      8.9708    0.7744   -1.9092   H         1 RES1   0.0000
   245 H156      7.3968    0.0356   -1.6027   H         1 RES1   0.0000
   246 C79      -6.8766   -0.5000    9.7850   C.3       1 RES1   0.0000
   247 C80      -5.9252    0.5513    9.2265   C.3       1 RES1   0.0000
   248 C81      -5.8551    0.4738    7.7017   C.3       1 RES1   0.0000
   249 C82      -4.9253    1.5228    7.0884   C.3       1 RES1   0.0000
   250 C83      -4.8041    1.3228    5.5770   C.3       1 RES1   0.0000
   251 C84      -4.0086    2.4204    4.8566   C.3       1 RES1   0.0000
   252 C85      -2.5732    2.0256    4.4879   C.3       1 RES1   0.0000
   253 C86      -1.8775    3.2826    3.9777   C.3       1 RES1   0.0000
   254 N5       -0.5503    3.1988    3.3638   N.am      1 RES1   0.0000
   255 C87       0.5742    3.5061    4.2333   C.3       1 RES1   0.0000
   256 C88       0.7362    2.4636    5.3563   C.3       1 RES1   0.0000
   257 C89       0.0515    2.7664    6.6924   C.3       1 RES1   0.0000
   258 C90       0.5237    1.8151    7.7975   C.3       1 RES1   0.0000
   259 C91       0.2238    0.3247    7.5987   C.3       1 RES1   0.0000
   260 C92      -1.2459   -0.0723    7.7611   C.3       1 RES1   0.0000
   261 C93      -1.4117   -1.5815    7.9605   C.3       1 RES1   0.0000
   262 C94      -2.8698   -1.9825    8.1435   C.3       1 RES1   0.0000
   263 C95      -0.4792    2.7610    2.0983   C.2       1 RES1   0.0000
   264 O7       -1.2996    1.9241    1.6722   O.2       1 RES1   0.0000
   265 C96       0.3449    3.4749    0.9932   C.3       1 RES1   0.0000
   266 C97       1.3097    4.5926    1.3684   C.3       1 RES1   0.0000
   267 O8        0.9057    2.4420    0.1754   O.3       1 RES1   0.0000
   268 C98       1.4317    2.8279   -1.1139   C.3       1 RES1   0.0000
   269 C99       2.9601    2.9893   -1.0247   C.3       1 RES1   0.0000
   270 C100      3.6261    1.7340   -0.4719   C.3       1 RES1   0.0000
   271 C101      1.0862    1.6616   -2.0745   C.2       1 RES1   0.0000
   272 O9        0.9674    0.5293   -1.5640   O.2       1 RES1   0.0000
   273 N6        0.9590    1.8434   -3.3851   N.am      1 RES1   0.0000
   274 C102      1.2526    3.0729   -4.1134   C.3       1 RES1   0.0000
   275 C103      0.0214    3.8837   -4.5497   C.3       1 RES1   0.0000
   276 C104     -0.6749    3.4675   -5.8590   C.3       1 RES1   0.0000
   277 C105     -2.0879    2.9198   -5.6290   C.3       1 RES1   0.0000
   278 C106     -3.1011    4.0490   -5.4287   C.3       1 RES1   0.0000
   279 C107     -4.4363    3.5751   -4.8540   C.3       1 RES1   0.0000
   280 C108     -5.2193    2.6573   -5.7921   C.3       1 RES1   0.0000
   281 C109     -6.6310    2.3980   -5.2734   C.3       1 RES1   0.0000
   282 C110      0.4065    0.7518   -4.1931   C.3       1 RES1   0.0000
   283 C111      1.3624   -0.3488   -4.6811   C.3       1 RES1   0.0000
   284 C112      2.7558    0.0972   -5.1357   C.3       1 RES1   0.0000
   285 C113      3.7492    0.0070   -3.9772   C.3       1 RES1   0.0000
   286 C114      5.0730    0.7300   -4.2155   C.3       1 RES1   0.0000
   287 C115      5.8577    0.1560   -5.3946   C.3       1 RES1   0.0000
   288 C116      7.3208    0.6004   -5.3994   C.3       1 RES1   0.0000
   289 C117      7.4916    2.1110   -5.5300   C.3       1 RES1   0.0000
   290 H157     -6.9154   -0.4422   10.8686   H         1 RES1   0.0000
   291 H158     -6.5508   -1.4998    9.5042   H         1 RES1   0.0000
   292 H159     -7.8810   -0.3467    9.3996   H         1 RES1   0.0000
   293 H160     -4.9263    0.4019    9.6446   H         1 RES1   0.0000
   294 H161     -6.2632    1.5447    9.5266   H         1 RES1   0.0000
   295 H162     -6.8628    0.6024    7.2969   H         1 RES1   0.0000
   296 H163     -5.5134   -0.5272    7.4190   H         1 RES1   0.0000
   297 H164     -3.9404    1.4511    7.5544   H         1 RES1   0.0000
   298 H165     -5.3236    2.5174    7.2957   H         1 RES1   0.0000
   299 H166     -5.8129    1.2808    5.1618   H         1 RES1   0.0000
   300 H167     -4.3347    0.3531    5.3966   H         1 RES1   0.0000
   301 H168     -3.9609    3.3024    5.4960   H         1 RES1   0.0000
   302 H169     -4.5380    2.7208    3.9505   H         1 RES1   0.0000
   303 H170     -2.5485    1.2596    3.7126   H         1 RES1   0.0000
   304 H171     -2.0713    1.6288    5.3659   H         1 RES1   0.0000
   305 H172     -1.7806    3.9966    4.7981   H         1 RES1   0.0000
   306 H173     -2.5328    3.7271    3.2228   H         1 RES1   0.0000
   307 H174      0.4514    4.5082    4.6548   H         1 RES1   0.0000
   308 H175      1.4711    3.4929    3.6221   H         1 RES1   0.0000
   309 H176      1.8028    2.3872    5.5709   H         1 RES1   0.0000
   310 H177      0.4055    1.4978    4.9701   H         1 RES1   0.0000
   311 H178     -1.0313    2.7191    6.6216   H         1 RES1   0.0000
   312 H179      0.3126    3.7814    6.9984   H         1 RES1   0.0000
   313 H180      0.0736    2.1343    8.7386   H         1 RES1   0.0000
   314 H181      1.6040    1.9297    7.9018   H         1 RES1   0.0000
   315 H182      0.7953   -0.2161    8.3552   H         1 RES1   0.0000
   316 H183      0.5891   -0.0102    6.6237   H         1 RES1   0.0000
   317 H184     -1.8245    0.2360    6.8850   H         1 RES1   0.0000
   318 H185     -1.6644    0.4393    8.6295   H         1 RES1   0.0000
   319 H186     -0.8458   -1.8897    8.8405   H         1 RES1   0.0000
   320 H187     -0.9888   -2.1153    7.1050   H         1 RES1   0.0000
   321 H188     -3.2789   -1.5278    9.0400   H         1 RES1   0.0000
   322 H189     -2.9604   -3.0606    8.2407   H         1 RES1   0.0000
   323 H190     -3.4744   -1.6598    7.2973   H         1 RES1   0.0000
   324 H191     -0.4873    3.9438    0.4299   H         1 RES1   0.0000
   325 H192      2.2600    4.2020    1.7147   H         1 RES1   0.0000
   326 H193      0.8793    5.2255    2.1373   H         1 RES1   0.0000
   327 H194      1.4945    5.2195    0.4977   H         1 RES1   0.0000
   328 H195      0.9536    3.7585   -1.4410   H         1 RES1   0.0000
   329 H196      3.1899    3.8305   -0.3699   H         1 RES1   0.0000
   330 H197      3.3657    3.2211   -2.0087   H         1 RES1   0.0000
   331 H198      3.1501    1.4404    0.4604   H         1 RES1   0.0000
   332 H199      4.6801    1.9255   -0.2896   H         1 RES1   0.0000
   333 H200      3.5478    0.9050   -1.1696   H         1 RES1   0.0000
   334 H201      1.8335    2.8011   -4.9959   H         1 RES1   0.0000
   335 H202      1.8888    3.6976   -3.4893   H         1 RES1   0.0000
   336 H203      0.3515    4.9184   -4.6412   H         1 RES1   0.0000
   337 H204     -0.7082    3.8486   -3.7457   H         1 RES1   0.0000
   338 H205     -0.0712    2.7453   -6.4075   H         1 RES1   0.0000
   339 H206     -0.7611    4.3390   -6.5068   H         1 RES1   0.0000
   340 H207     -2.1013    2.2682   -4.7499   H         1 RES1   0.0000
   341 H208     -2.3915    2.3252   -6.4895   H         1 RES1   0.0000
   342 H209     -3.2813    4.5493   -6.3811   H         1 RES1   0.0000
   343 H210     -2.6724    4.7970   -4.7577   H         1 RES1   0.0000
   344 H211     -5.0509    4.4516   -4.6374   H         1 RES1   0.0000
   345 H212     -4.2630    3.0470   -3.9082   H         1 RES1   0.0000
   346 H213     -4.6939    1.7065   -5.9051   H         1 RES1   0.0000
   347 H214     -5.2863    3.1191   -6.7786   H         1 RES1   0.0000
   348 H215     -6.6059    1.9470   -4.2804   H         1 RES1   0.0000
   349 H216     -7.1625    1.7282   -5.9434   H         1 RES1   0.0000
   350 H217     -7.1905    3.3283   -5.2089   H         1 RES1   0.0000
   351 H218     -0.0414    1.2225   -5.0631   H         1 RES1   0.0000
   352 H219     -0.3876    0.2780   -3.6022   H         1 RES1   0.0000
   353 H220      0.8481   -0.8398   -5.5087   H         1 RES1   0.0000
   354 H221      1.4860   -1.0857   -3.8912   H         1 RES1   0.0000
   355 H222      2.7331    1.1105   -5.5344   H         1 RES1   0.0000
   356 H223      3.0902   -0.5502   -5.9455   H         1 RES1   0.0000
   357 H224      3.9582   -1.0486   -3.7810   H         1 RES1   0.0000
   358 H225      3.2731    0.4235   -3.0867   H         1 RES1   0.0000
   359 H226      5.6831    0.6382   -3.3126   H         1 RES1   0.0000
   360 H227      4.8842    1.7926   -4.3791   H         1 RES1   0.0000
   361 H228      5.3876    0.4610   -6.3309   H         1 RES1   0.0000
   362 H229      5.8284   -0.9353   -5.3443   H         1 RES1   0.0000
   363 H230      7.8243    0.1143   -6.2365   H         1 RES1   0.0000
   364 H231      7.8049    0.2601   -4.4806   H         1 RES1   0.0000
   365 H232      6.9297    2.4879   -6.3836   H         1 RES1   0.0000
   366 H233      8.5411    2.3540   -5.6796   H         1 RES1   0.0000
   367 H234      7.1507    2.6273   -4.6332   H         1 RES1   0.0000
@<TRIPOS>BOND
     1     1    20    1
     2     1    23    1
     3     1    28    1
     4     1   142    1
     5     1   145    1
     6     1   150    1
     7     1   264    1
     8     1   267    1
     9     1   272    1
    10     2     3    1
    11     2    46    1
    12     2    47    1
    13     2    48    1
    14     3     4    1
    15     3    49    1
    16     3    50    1
    17     4     5    1
    18     4    51    1
    19     4    52    1
    20     5     6    1
    21     5    53    1
    22     5    54    1
    23     6     7    1
    24     6    55    1
    25     6    56    1
    26     7     8    1
    27     7    57    1
    28     7    58    1
    29     8     9    1
    30     8    59    1
    31     8    60    1
    32     9    10    1
    33     9    61    1
    34     9    62    1
    35    10    11    1
    36    10    19    1
    37    11    12    1
    38    11    63    1
    39    11    64    1
    40    12    13    1
    41    12    65    1
    42    12    66    1
    43    13    14    1
    44    13    67    1
    45    13    68    1
    46    14    15    1
    47    14    69    1
    48    14    70    1
    49    15    16    1
    50    15    71    1
    51    15    72    1
    52    16    17    1
    53    16    73    1
    54    16    74    1
    55    17    18    1
    56    17    75    1
    57    17    76    1
    58    18    77    1
    59    18    78    1
    60    18    79    1
    61    19    20    2
    62    19    21    1
    63    21    22    1
    64    21    23    1
    65    21    80    1
    66    22    81    1
    67    22    82    1
    68    22    83    1
    69    23    24    1
    70    24    25    1
    71    24    27    1
    72    24    84    1
    73    25    26    1
    74    25    85    1
    75    25    86    1
    76    26    87    1
    77    26    88    1
    78    26    89    1
    79    27    28    2
    80    27    29    1
    81    29    30    1
    82    29    38    1
    83    30    31    1
    84    30    90    1
    85    30    91    1
    86    31    32    1
    87    31    92    1
    88    31    93    1
    89    32    33    1
    90    32    94    1
    91    32    95    1
    92    33    34    1
    93    33    96    1
    94    33    97    1
    95    34    35    1
    96    34    98    1
    97    34    99    1
    98    35    36    1
    99    35   100    1
   100    35   101    1
   101    36    37    1
   102    36   102    1
   103    36   103    1
   104    37   104    1
   105    37   105    1
   106    37   106    1
   107    38    39    1
   108    38   107    1
   109    38   108    1
   110    39    40    1
   111    39   109    1
   112    39   110    1
   113    40    41    1
   114    40   111    1
   115    40   112    1
   116    41    42    1
   117    41   113    1
   118    41   114    1
   119    42    43    1
   120    42   115    1
   121    42   116    1
   122    43    44    1
   123    43   117    1
   124    43   118    1
   125    44    45    1
   126    44   119    1
   127    44   120    1
   128    45   121    1
   129    45   122    1
   130    45   123    1
   131   124   125    1
   132   124   168    1
   133   124   169    1
   134   124   170    1
   135   125   126    1
   136   125   171    1
   137   125   172    1
   138   126   127    1
   139   126   173    1
   140   126   174    1
   141   127   128    1
   142   127   175    1
   143   127   176    1
   144   128   129    1
   145   128   177    1
   146   128   178    1
   147   129   130    1
   148   129   179    1
   149   129   180    1
   150   130   131    1
   151   130   181    1
   152   130   182    1
   153   131   132    1
   154   131   183    1
   155   131   184    1
   156   132   133    1
   157   132   141    1
   158   133   134    1
   159   133   185    1
   160   133   186    1
   161   134   135    1
   162   134   187    1
   163   134   188    1
   164   135   136    1
   165   135   189    1
   166   135   190    1
   167   136   137    1
   168   136   191    1
   169   136   192    1
   170   137   138    1
   171   137   193    1
   172   137   194    1
   173   138   139    1
   174   138   195    1
   175   138   196    1
   176   139   140    1
   177   139   197    1
   178   139   198    1
   179   140   199    1
   180   140   200    1
   181   140   201    1
   182   141   142    2
   183   141   143    1
   184   143   144    1
   185   143   145    1
   186   143   202    1
   187   144   203    1
   188   144   204    1
   189   144   205    1
   190   145   146    1
   191   146   147    1
   192   146   149    1
   193   146   206    1
   194   147   148    1
   195   147   207    1
   196   147   208    1
   197   148   209    1
   198   148   210    1
   199   148   211    1
   200   149   150    2
   201   149   151    1
   202   151   152    1
   203   151   160    1
   204   152   153    1
   205   152   212    1
   206   152   213    1
   207   153   154    1
   208   153   214    1
   209   153   215    1
   210   154   155    1
   211   154   216    1
   212   154   217    1
   213   155   156    1
   214   155   218    1
   215   155   219    1
   216   156   157    1
   217   156   220    1
   218   156   221    1
   219   157   158    1
   220   157   222    1
   221   157   223    1
   222   158   159    1
   223   158   224    1
   224   158   225    1
   225   159   226    1
   226   159   227    1
   227   159   228    1
   228   160   161    1
   229   160   229    1
   230   160   230    1
   231   161   162    1
   232   161   231    1
   233   161   232    1
   234   162   163    1
   235   162   233    1
   236   162   234    1
   237   163   164    1
   238   163   235    1
   239   163   236    1
   240   164   165    1
   241   164   237    1
   242   164   238    1
   243   165   166    1
   244   165   239    1
   245   165   240    1
   246   166   167    1
   247   166   241    1
   248   166   242    1
   249   167   243    1
   250   167   244    1
   251   167   245    1
   252   246   247    1
   253   246   290    1
   254   246   291    1
   255   246   292    1
   256   247   248    1
   257   247   293    1
   258   247   294    1
   259   248   249    1
   260   248   295    1
   261   248   296    1
   262   249   250    1
   263   249   297    1
   264   249   298    1
   265   250   251    1
   266   250   299    1
   267   250   300    1
   268   251   252    1
   269   251   301    1
   270   251   302    1
   271   252   253    1
   272   252   303    1
   273   252   304    1
   274   253   254    1
   275   253   305    1
   276   253   306    1
   277   254   255    1
   278   254   263    1
   279   255   256    1
   280   255   307    1
   281   255   308    1
   282   256   257    1
   283   256   309    1
   284   256   310    1
   285   257   258    1
   286   257   311    1
   287   257   312    1
   288   258   259    1
   289   258   313    1
   290   258   314    1
   291   259   260    1
   292   259   315    1
   293   259   316    1
   294   260   261    1
   295   260   317    1
   296   260   318    1
   297   261   262    1
   298   261   319    1
   299   261   320    1
   300   262   321    1
   301   262   322    1
   302   262   323    1
   303   263   264    2
   304   263   265    1
   305   265   266    1
   306   265   267    1
   307   265   324    1
   308   266   325    1
   309   266   326    1
   310   266   327    1
   311   267   268    1
   312   268   269    1
   313   268   271    1
   314   268   328    1
   315   269   270    1
   316   269   329    1
   317   269   330    1
   318   270   331    1
   319   270   332    1
   320   270   333    1
   321   271   272    2
   322   271   273    1
   323   273   274    1
   324   273   282    1
   325   274   275    1
   326   274   334    1
   327   274   335    1
   328   275   276    1
   329   275   336    1
   330   275   337    1
   331   276   277    1
   332   276   338    1
   333   276   339    1
   334   277   278    1
   335   277   340    1
   336   277   341    1
   337   278   279    1
   338   278   342    1
   339   278   343    1
   340   279   280    1
   341   279   344    1
   342   279   345    1
   343   280   281    1
   344   280   346    1
   345   280   347    1
   346   281   348    1
   347   281   349    1
   348   281   350    1
   349   282   283    1
   350   282   351    1
   351   282   352    1
   352   283   284    1
   353   283   353    1
   354   283   354    1
   355   284   285    1
   356   284   355    1
   357   284   356    1
   358   285   286    1
   359   285   357    1
   360   285   358    1
   361   286   287    1
   362   286   359    1
   363   286   360    1
   364   287   288    1
   365   287   361    1
   366   287   362    1
   367   288   289    1
   368   288   363    1
   369   288   364    1
   370   289   365    1
   371   289   366    1
   372   289   367    1
@<TRIPOS>SUBSTRUCTURE
     1 RES1      367 GROUP             0 ****  ****    0  
