@<TRIPOS>MOLECULE
cn9_YICLED_0_nunpairedes_0_charge_3 Charge: 3 Unpaired_Electrons: 1 XTB_Unpaired_Electrons: 0 XTB_Charge: 3
   358   363     1     0     0
SMALL
NoCharges
****
Generated from Architector

@<TRIPOS>ATOM
     1 Ce1      -0.1246    0.2748    0.0903   Ce        1 RES1   0.0000
     2 C1        1.8547    2.1337    7.1727   C.3       1 RES1   0.0000
     3 C2        3.3363    2.0606    6.8227   C.3       1 RES1   0.0000
     4 C3        4.1133    0.9126    7.4759   C.3       1 RES1   0.0000
     5 C4        3.9392   -0.4758    6.8471   C.3       1 RES1   0.0000
     6 C5        2.6531   -1.1833    7.2743   C.3       1 RES1   0.0000
     7 C6        2.4869   -2.6025    6.7238   C.3       1 RES1   0.0000
     8 C7        2.0432   -2.6919    5.2591   C.3       1 RES1   0.0000
     9 C8        0.5653   -2.3154    5.1027   C.3       1 RES1   0.0000
    10 N1        0.0756   -2.2070    3.7258   N.am      1 RES1   0.0000
    11 C9       -0.7492   -3.3382    3.2645   C.3       1 RES1   0.0000
    12 C10      -0.7543   -3.6484    1.7628   C.3       1 RES1   0.0000
    13 C11      -1.2553   -5.0795    1.4948   C.3       1 RES1   0.0000
    14 C12      -1.9897   -5.2432    0.1459   C.3       1 RES1   0.0000
    15 C13      -1.4479   -6.3355   -0.7942   C.3       1 RES1   0.0000
    16 C14      -0.3337   -5.8225   -1.7051   C.3       1 RES1   0.0000
    17 C15       0.0635   -6.7977   -2.8162   C.3       1 RES1   0.0000
    18 C16       0.7865   -6.0514   -3.9350   C.3       1 RES1   0.0000
    19 C17       0.1940   -1.1210    2.9762   C.2       1 RES1   0.0000
    20 O1       -0.3919   -1.0070    1.8769   O.2       1 RES1   0.0000
    21 C18       0.9702    0.1182    3.4821   C.3       1 RES1   0.0000
    22 C19       2.4937    0.1564    3.2866   C.3       1 RES1   0.0000
    23 O2        0.4462    1.2255    2.7545   O.3       1 RES1   0.0000
    24 C20      -0.4583    2.0559    3.4715   C.3       1 RES1   0.0000
    25 C21       0.0677    3.4905    3.3952   C.3       1 RES1   0.0000
    26 C22      -1.8366    1.9454    2.8011   C.2       1 RES1   0.0000
    27 O3       -1.8575    1.6247    1.5913   O.2       1 RES1   0.0000
    28 N2       -2.9149    2.2215    3.5219   N.am      1 RES1   0.0000
    29 C23      -2.8960    2.5876    4.9325   C.3       1 RES1   0.0000
    30 C24      -3.4258    1.4795    5.8547   C.3       1 RES1   0.0000
    31 C25      -2.7422    0.1198    5.6930   C.3       1 RES1   0.0000
    32 C26      -3.1294   -0.8497    6.8187   C.3       1 RES1   0.0000
    33 C27      -4.5977   -1.2858    6.8402   C.3       1 RES1   0.0000
    34 C28      -4.9447   -2.3306    5.7788   C.3       1 RES1   0.0000
    35 C29      -6.4290   -2.7001    5.8200   C.3       1 RES1   0.0000
    36 C30      -6.7697   -3.8461    4.8724   C.3       1 RES1   0.0000
    37 C31      -4.2530    2.1430    2.9438   C.3       1 RES1   0.0000
    38 C32      -4.5709    3.2860    1.9795   C.3       1 RES1   0.0000
    39 C33      -4.3901    4.7103    2.5211   C.3       1 RES1   0.0000
    40 C34      -2.9681    5.2370    2.3310   C.3       1 RES1   0.0000
    41 C35      -2.7902    6.6977    2.7454   C.3       1 RES1   0.0000
    42 C36      -2.5934    6.8690    4.2493   C.3       1 RES1   0.0000
    43 C37      -2.4668    8.3377    4.6575   C.3       1 RES1   0.0000
    44 C38      -1.2482    9.0315    4.0566   C.3       1 RES1   0.0000
    45 H1        1.4500    3.1024    6.8876   H         1 RES1   0.0000
    46 H2        1.7096    2.0125    8.2417   H         1 RES1   0.0000
    47 H3        1.2771    1.3647    6.6653   H         1 RES1   0.0000
    48 H4        3.7935    2.9930    7.1535   H         1 RES1   0.0000
    49 H5        3.4553    2.0184    5.7364   H         1 RES1   0.0000
    50 H6        3.8620    0.8606    8.5368   H         1 RES1   0.0000
    51 H7        5.1726    1.1669    7.4134   H         1 RES1   0.0000
    52 H8        4.7807   -1.0964    7.1612   H         1 RES1   0.0000
    53 H9        4.0034   -0.3920    5.7601   H         1 RES1   0.0000
    54 H10       1.7871   -0.5904    6.9916   H         1 RES1   0.0000
    55 H11       2.6623   -1.2407    8.3639   H         1 RES1   0.0000
    56 H12       1.7613   -3.1349    7.3399   H         1 RES1   0.0000
    57 H13       3.4331   -3.1285    6.8292   H         1 RES1   0.0000
    58 H14       2.1693   -3.7204    4.9255   H         1 RES1   0.0000
    59 H15       2.6756   -2.0585    4.6447   H         1 RES1   0.0000
    60 H16       0.3493   -1.3813    5.6256   H         1 RES1   0.0000
    61 H17      -0.0350   -3.0865    5.5896   H         1 RES1   0.0000
    62 H18      -1.7783   -3.1666    3.5940   H         1 RES1   0.0000
    63 H19      -0.3827   -4.2168    3.7938   H         1 RES1   0.0000
    64 H20       0.2558   -3.5435    1.3712   H         1 RES1   0.0000
    65 H21      -1.4031   -2.9354    1.2494   H         1 RES1   0.0000
    66 H22      -1.9353   -5.3636    2.2997   H         1 RES1   0.0000
    67 H23      -0.4041   -5.7576    1.5423   H         1 RES1   0.0000
    68 H24      -1.9660   -4.2883   -0.3895   H         1 RES1   0.0000
    69 H25      -3.0355   -5.4741    0.3569   H         1 RES1   0.0000
    70 H26      -2.2658   -6.6754   -1.4340   H         1 RES1   0.0000
    71 H27      -1.1073   -7.2027   -0.2239   H         1 RES1   0.0000
    72 H28       0.5457   -5.5707   -1.1049   H         1 RES1   0.0000
    73 H29      -0.6940   -4.9054   -2.1869   H         1 RES1   0.0000
    74 H30      -0.8349   -7.2587   -3.2304   H         1 RES1   0.0000
    75 H31       0.6972   -7.5995   -2.4304   H         1 RES1   0.0000
    76 H32       0.1457   -5.2490   -4.3068   H         1 RES1   0.0000
    77 H33       1.0254   -6.7162   -4.7636   H         1 RES1   0.0000
    78 H34       1.7129   -5.6047   -3.5666   H         1 RES1   0.0000
    79 H35       0.7497    0.2558    4.5465   H         1 RES1   0.0000
    80 H36       2.7236    0.9150    2.5395   H         1 RES1   0.0000
    81 H37       2.8857   -0.7883    2.9369   H         1 RES1   0.0000
    82 H38       2.9696    0.4424    4.2188   H         1 RES1   0.0000
    83 H39      -0.4888    1.7248    4.5124   H         1 RES1   0.0000
    84 H40       0.0097    3.8355    2.3663   H         1 RES1   0.0000
    85 H41       1.1083    3.5025    3.7103   H         1 RES1   0.0000
    86 H42      -0.4910    4.1682    4.0348   H         1 RES1   0.0000
    87 H43      -3.5221    3.4759    5.0440   H         1 RES1   0.0000
    88 H44      -1.8936    2.8757    5.2353   H         1 RES1   0.0000
    89 H45      -4.4977    1.3516    5.7094   H         1 RES1   0.0000
    90 H46      -3.2846    1.8301    6.8779   H         1 RES1   0.0000
    91 H47      -1.6553    0.2538    5.7281   H         1 RES1   0.0000
    92 H48      -2.9951   -0.3127    4.7207   H         1 RES1   0.0000
    93 H49      -2.8877   -0.3735    7.7720   H         1 RES1   0.0000
    94 H50      -2.5095   -1.7456    6.7334   H         1 RES1   0.0000
    95 H51      -5.2552   -0.4227    6.7307   H         1 RES1   0.0000
    96 H52      -4.8021   -1.7173    7.8214   H         1 RES1   0.0000
    97 H53      -4.3514   -3.2322    5.9568   H         1 RES1   0.0000
    98 H54      -4.6963   -1.9576    4.7798   H         1 RES1   0.0000
    99 H55      -7.0304   -1.8252    5.5587   H         1 RES1   0.0000
   100 H56      -6.6955   -2.9906    6.8382   H         1 RES1   0.0000
   101 H57      -6.5016   -3.5991    3.8453   H         1 RES1   0.0000
   102 H58      -7.8357   -4.0566    4.9069   H         1 RES1   0.0000
   103 H59      -6.2382   -4.7514    5.1586   H         1 RES1   0.0000
   104 H60      -4.9725    2.1590    3.7614   H         1 RES1   0.0000
   105 H61      -4.3497    1.1924    2.4096   H         1 RES1   0.0000
   106 H62      -5.6119    3.1592    1.6789   H         1 RES1   0.0000
   107 H63      -3.9474    3.1635    1.1000   H         1 RES1   0.0000
   108 H64      -4.6802    4.7606    3.5710   H         1 RES1   0.0000
   109 H65      -5.0625    5.3740    1.9735   H         1 RES1   0.0000
   110 H66      -2.7100    5.1344    1.2734   H         1 RES1   0.0000
   111 H67      -2.2714    4.6279    2.9023   H         1 RES1   0.0000
   112 H68      -3.6538    7.2796    2.4229   H         1 RES1   0.0000
   113 H69      -1.9162    7.0969    2.2310   H         1 RES1   0.0000
   114 H70      -1.6881    6.3373    4.5614   H         1 RES1   0.0000
   115 H71      -3.4404    6.4325    4.7828   H         1 RES1   0.0000
   116 H72      -2.4005    8.3940    5.7454   H         1 RES1   0.0000
   117 H73      -3.3667    8.8759    4.3556   H         1 RES1   0.0000
   118 H74      -0.3338    8.4918    4.2993   H         1 RES1   0.0000
   119 H75      -1.1617   10.0415    4.4492   H         1 RES1   0.0000
   120 H76      -1.3329    9.1038    2.9749   H         1 RES1   0.0000
   121 C39       5.7490    8.6754   -0.9976   C.3       1 RES1   0.0000
   122 C40       4.4116    8.5325   -1.7160   C.3       1 RES1   0.0000
   123 C41       4.4797    7.7889   -3.0543   C.3       1 RES1   0.0000
   124 C42       4.8063    6.3005   -2.9200   C.3       1 RES1   0.0000
   125 C43       4.5332    5.4704   -4.1839   C.3       1 RES1   0.0000
   126 C44       3.0465    5.1624   -4.4870   C.3       1 RES1   0.0000
   127 C45       2.7743    3.6574   -4.3655   C.3       1 RES1   0.0000
   128 C46       1.4093    3.1492   -4.8760   C.3       1 RES1   0.0000
   129 N3        1.2293    1.7573   -4.4723   N.am      1 RES1   0.0000
   130 C47       1.9480    0.7604   -5.2642   C.3       1 RES1   0.0000
   131 C48       3.4430    0.5692   -4.9410   C.3       1 RES1   0.0000
   132 C49       4.4096    0.8245   -6.1012   C.3       1 RES1   0.0000
   133 C50       5.8682    0.7972   -5.6293   C.3       1 RES1   0.0000
   134 C51       6.3802   -0.6118   -5.3219   C.3       1 RES1   0.0000
   135 C52       7.8800   -0.6409   -4.9888   C.3       1 RES1   0.0000
   136 C53       8.1450   -0.5875   -3.4832   C.3       1 RES1   0.0000
   137 C54       7.9970   -1.9663   -2.8470   C.3       1 RES1   0.0000
   138 C55       0.5516    1.3552   -3.3923   C.2       1 RES1   0.0000
   139 O4        0.7662    0.2991   -2.7832   O.2       1 RES1   0.0000
   140 C56      -0.5866    2.2378   -2.8492   C.3       1 RES1   0.0000
   141 C57       0.0384    3.3183   -1.9703   C.3       1 RES1   0.0000
   142 O5       -1.3456    1.3307   -2.0465   O.3       1 RES1   0.0000
   143 C58      -2.7476    1.5732   -1.8889   C.3       1 RES1   0.0000
   144 C59      -2.9842    2.9378   -1.2468   C.3       1 RES1   0.0000
   145 C60      -3.1890    0.3318   -1.0643   C.2       1 RES1   0.0000
   146 O6       -2.2736   -0.3800   -0.5849   O.2       1 RES1   0.0000
   147 N4       -4.4591   -0.0515   -0.9943   N.am      1 RES1   0.0000
   148 C61      -4.6822   -1.4712   -0.6997   C.3       1 RES1   0.0000
   149 C62      -4.2127   -2.3215   -1.8853   C.3       1 RES1   0.0000
   150 C63      -4.8707   -1.8673   -3.1890   C.3       1 RES1   0.0000
   151 C64      -4.5678   -2.7753   -4.3798   C.3       1 RES1   0.0000
   152 C65      -3.1695   -2.5818   -4.9808   C.3       1 RES1   0.0000
   153 C66      -3.0551   -1.4818   -6.0497   C.3       1 RES1   0.0000
   154 C67      -2.7311   -0.0611   -5.5440   C.3       1 RES1   0.0000
   155 C68      -3.9151    0.9006   -5.6575   C.3       1 RES1   0.0000
   156 C69      -5.5840    0.8124   -1.3699   C.3       1 RES1   0.0000
   157 C70      -6.9834    0.4484   -0.8475   C.3       1 RES1   0.0000
   158 C71      -7.1452    0.4508    0.6789   C.3       1 RES1   0.0000
   159 C72      -8.6275    0.5517    1.0801   C.3       1 RES1   0.0000
   160 C73      -9.1053    1.9885    1.3129   C.3       1 RES1   0.0000
   161 C74      -8.7698    2.4934    2.7182   C.3       1 RES1   0.0000
   162 C75      -9.2629    3.9168    2.9978   C.3       1 RES1   0.0000
   163 C76      -8.4522    4.9886    2.2739   C.3       1 RES1   0.0000
   164 H77       5.6142    9.2626   -0.0919   H         1 RES1   0.0000
   165 H78       6.1636    7.7107   -0.7106   H         1 RES1   0.0000
   166 H79       6.4697    9.1943   -1.6232   H         1 RES1   0.0000
   167 H80       3.7052    8.0337   -1.0495   H         1 RES1   0.0000
   168 H81       4.0135    9.5318   -1.8985   H         1 RES1   0.0000
   169 H82       3.5221    7.8944   -3.5666   H         1 RES1   0.0000
   170 H83       5.2320    8.2760   -3.6740   H         1 RES1   0.0000
   171 H84       5.8647    6.2011   -2.6715   H         1 RES1   0.0000
   172 H85       4.2244    5.8869   -2.0931   H         1 RES1   0.0000
   173 H86       4.9843    5.9760   -5.0384   H         1 RES1   0.0000
   174 H87       5.0589    4.5200   -4.0705   H         1 RES1   0.0000
   175 H88       2.4050    5.7333   -3.8163   H         1 RES1   0.0000
   176 H89       2.8039    5.4788   -5.4988   H         1 RES1   0.0000
   177 H90       3.5543    3.1531   -4.9359   H         1 RES1   0.0000
   178 H91       2.8623    3.3696   -3.3132   H         1 RES1   0.0000
   179 H92       0.5947    3.7686   -4.5002   H         1 RES1   0.0000
   180 H93       1.3846    3.1946   -5.9651   H         1 RES1   0.0000
   181 H94       1.4294   -0.1828   -5.1026   H         1 RES1   0.0000
   182 H95       1.8180    1.0350   -6.3142   H         1 RES1   0.0000
   183 H96       3.7221    1.2161   -4.1107   H         1 RES1   0.0000
   184 H97       3.5948   -0.4573   -4.6103   H         1 RES1   0.0000
   185 H98       4.2762    0.0761   -6.8839   H         1 RES1   0.0000
   186 H99       4.2081    1.7957   -6.5543   H         1 RES1   0.0000
   187 H100      6.4963    1.2231   -6.4124   H         1 RES1   0.0000
   188 H101      5.9865    1.4310   -4.7461   H         1 RES1   0.0000
   189 H102      5.8201   -1.0400   -4.4859   H         1 RES1   0.0000
   190 H103      6.1862   -1.2364   -6.1934   H         1 RES1   0.0000
   191 H104      8.3307   -1.5560   -5.3750   H         1 RES1   0.0000
   192 H105      8.3780    0.1888   -5.4899   H         1 RES1   0.0000
   193 H106      9.1565   -0.2276   -3.2997   H         1 RES1   0.0000
   194 H107      7.4574    0.1190   -3.0113   H         1 RES1   0.0000
   195 H108      8.8358   -2.5943   -3.1353   H         1 RES1   0.0000
   196 H109      7.9841   -1.9006   -1.7614   H         1 RES1   0.0000
   197 H110      7.0803   -2.4555   -3.1767   H         1 RES1   0.0000
   198 H111     -1.1954    2.6428   -3.6632   H         1 RES1   0.0000
   199 H112     -0.2151    4.3143   -2.3132   H         1 RES1   0.0000
   200 H113     -0.3294    3.1727   -0.9491   H         1 RES1   0.0000
   201 H114      1.1186    3.1941   -1.9574   H         1 RES1   0.0000
   202 H115     -3.2269    1.5167   -2.8806   H         1 RES1   0.0000
   203 H116     -2.4790    2.9738   -0.2779   H         1 RES1   0.0000
   204 H117     -2.6045    3.7255   -1.8928   H         1 RES1   0.0000
   205 H118     -4.0404    3.1379   -1.1182   H         1 RES1   0.0000
   206 H119     -4.1326   -1.7419    0.2077   H         1 RES1   0.0000
   207 H120     -5.7432   -1.6190   -0.5298   H         1 RES1   0.0000
   208 H121     -3.1267   -2.2431   -1.9566   H         1 RES1   0.0000
   209 H122     -4.4600   -3.3639   -1.6859   H         1 RES1   0.0000
   210 H123     -5.9505   -1.8372   -3.0392   H         1 RES1   0.0000
   211 H124     -4.5304   -0.8624   -3.4308   H         1 RES1   0.0000
   212 H125     -4.6739   -3.8126   -4.0570   H         1 RES1   0.0000
   213 H126     -5.3126   -2.6042   -5.1605   H         1 RES1   0.0000
   214 H127     -2.4473   -2.3977   -4.1788   H         1 RES1   0.0000
   215 H128     -2.8935   -3.5212   -5.4638   H         1 RES1   0.0000
   216 H129     -2.2568   -1.7764   -6.7349   H         1 RES1   0.0000
   217 H130     -3.9828   -1.4463   -6.6255   H         1 RES1   0.0000
   218 H131     -2.3574   -0.0991   -4.5126   H         1 RES1   0.0000
   219 H132     -1.9261    0.3528   -6.1591   H         1 RES1   0.0000
   220 H133     -4.7565    0.6030   -5.0325   H         1 RES1   0.0000
   221 H134     -3.6233    1.9183   -5.3915   H         1 RES1   0.0000
   222 H135     -4.2620    0.9228   -6.6879   H         1 RES1   0.0000
   223 H136     -5.3678    1.8043   -0.9749   H         1 RES1   0.0000
   224 H137     -5.6401    0.8766   -2.4637   H         1 RES1   0.0000
   225 H138     -7.6446    1.2172   -1.2585   H         1 RES1   0.0000
   226 H139     -7.3254   -0.5019   -1.2599   H         1 RES1   0.0000
   227 H140     -6.7136   -0.4595    1.1007   H         1 RES1   0.0000
   228 H141     -6.5940    1.2945    1.0988   H         1 RES1   0.0000
   229 H142     -9.2280    0.0879    0.2965   H         1 RES1   0.0000
   230 H143     -8.8010   -0.0252    1.9893   H         1 RES1   0.0000
   231 H144     -8.6752    2.6484    0.5570   H         1 RES1   0.0000
   232 H145    -10.1885    2.0107    1.1987   H         1 RES1   0.0000
   233 H146     -9.2418    1.8230    3.4398   H         1 RES1   0.0000
   234 H147     -7.6897    2.4506    2.8942   H         1 RES1   0.0000
   235 H148    -10.3117    3.9980    2.7083   H         1 RES1   0.0000
   236 H149     -9.2090    4.1003    4.0754   H         1 RES1   0.0000
   237 H150     -8.5392    4.8907    1.1930   H         1 RES1   0.0000
   238 H151     -8.8094    5.9780    2.5501   H         1 RES1   0.0000
   239 H152     -7.4001    4.9162    2.5488   H         1 RES1   0.0000
   240 C77       4.1197   -8.2779   -5.4902   C.3       1 RES1   0.0000
   241 C78       3.5545   -9.0018   -4.2727   C.3       1 RES1   0.0000
   242 C79       4.5297   -9.0954   -3.0914   C.3       1 RES1   0.0000
   243 C80       4.5105   -7.9315   -2.0896   C.3       1 RES1   0.0000
   244 C81       4.8906   -6.5713   -2.6919   C.3       1 RES1   0.0000
   245 C82       5.5226   -5.5653   -1.7162   C.3       1 RES1   0.0000
   246 C83       4.8199   -5.4112   -0.3647   C.3       1 RES1   0.0000
   247 C84       3.4216   -4.7649   -0.4380   C.3       1 RES1   0.0000
   248 N5        3.0475   -3.8793    0.6685   N.am      1 RES1   0.0000
   249 C85       3.0786   -4.3267    2.0833   C.3       1 RES1   0.0000
   250 C86       3.3574   -5.7996    2.3979   C.3       1 RES1   0.0000
   251 C87       2.1422   -6.6474    2.7804   C.3       1 RES1   0.0000
   252 C88       1.5859   -6.3919    4.1834   C.3       1 RES1   0.0000
   253 C89       0.7104   -7.5605    4.6486   C.3       1 RES1   0.0000
   254 C90       0.1990   -7.4201    6.0845   C.3       1 RES1   0.0000
   255 C91      -0.9288   -6.4039    6.2709   C.3       1 RES1   0.0000
   256 C92      -2.2679   -6.8314    5.6762   C.3       1 RES1   0.0000
   257 C93       2.5399   -2.6492    0.5089   C.2       1 RES1   0.0000
   258 O7        2.1164   -1.9757    1.4565   O.2       1 RES1   0.0000
   259 C94       2.3557   -1.9518   -0.8593   C.3       1 RES1   0.0000
   260 C95       1.0297   -2.3953   -1.4848   C.3       1 RES1   0.0000
   261 O8        2.1864   -0.5395   -0.6101   O.3       1 RES1   0.0000
   262 C96       3.3522    0.3033   -0.5340   C.3       1 RES1   0.0000
   263 C97       4.2498   -0.0027   -1.7284   C.3       1 RES1   0.0000
   264 C98       2.7703    1.7281   -0.2519   C.2       1 RES1   0.0000
   265 O9        1.5763    1.7636    0.1333   O.2       1 RES1   0.0000
   266 N6        3.4942    2.8513   -0.1988   N.am      1 RES1   0.0000
   267 C99       4.7393    3.1453   -0.9036   C.3       1 RES1   0.0000
   268 C100      6.0283    3.0300   -0.0829   C.3       1 RES1   0.0000
   269 C101      6.1854    1.6979    0.6449   C.3       1 RES1   0.0000
   270 C102      7.5378    1.5552    1.3514   C.3       1 RES1   0.0000
   271 C103      7.8871    2.6738    2.3432   C.3       1 RES1   0.0000
   272 C104      6.7898    3.0071    3.3589   C.3       1 RES1   0.0000
   273 C105      7.0765    4.2954    4.1334   C.3       1 RES1   0.0000
   274 C106      5.9702    4.6008    5.1372   C.3       1 RES1   0.0000
   275 C107      3.0924    3.9346    0.7303   C.3       1 RES1   0.0000
   276 C108      1.8601    4.8170    0.4490   C.3       1 RES1   0.0000
   277 C109      1.8782    5.7969   -0.7338   C.3       1 RES1   0.0000
   278 C110      0.6515    6.7356   -0.6648   C.3       1 RES1   0.0000
   279 C111      0.2322    7.4882   -1.9439   C.3       1 RES1   0.0000
   280 C112     -0.6031    6.6630   -2.9290   C.3       1 RES1   0.0000
   281 C113     -1.3442    7.5007   -3.9758   C.3       1 RES1   0.0000
   282 C114     -2.1265    6.6330   -4.9584   C.3       1 RES1   0.0000
   283 H153      3.4464   -8.3896   -6.3366   H         1 RES1   0.0000
   284 H154      5.0775   -8.7116   -5.7668   H         1 RES1   0.0000
   285 H155      4.2595   -7.2151   -5.3130   H         1 RES1   0.0000
   286 H156      3.3158  -10.0207   -4.5834   H         1 RES1   0.0000
   287 H157      2.6220   -8.5274   -3.9580   H         1 RES1   0.0000
   288 H158      5.5458   -9.2202   -3.4729   H         1 RES1   0.0000
   289 H159      4.2870   -9.9973   -2.5240   H         1 RES1   0.0000
   290 H160      5.2070   -8.1959   -1.2867   H         1 RES1   0.0000
   291 H161      3.5109   -7.8664   -1.6484   H         1 RES1   0.0000
   292 H162      4.0006   -6.1296   -3.1473   H         1 RES1   0.0000
   293 H163      5.6236   -6.7434   -3.4823   H         1 RES1   0.0000
   294 H164      5.6049   -4.5987   -2.2181   H         1 RES1   0.0000
   295 H165      6.5402   -5.8908   -1.4977   H         1 RES1   0.0000
   296 H166      5.4537   -4.8211    0.2976   H         1 RES1   0.0000
   297 H167      4.7595   -6.4217    0.0345   H         1 RES1   0.0000
   298 H168      2.6574   -5.5456   -0.5281   H         1 RES1   0.0000
   299 H169      3.3776   -4.1721   -1.3494   H         1 RES1   0.0000
   300 H170      2.1148   -4.0490    2.5144   H         1 RES1   0.0000
   301 H171      3.8224   -3.7111    2.5960   H         1 RES1   0.0000
   302 H172      4.0686   -5.8399    3.2262   H         1 RES1   0.0000
   303 H173      3.8202   -6.2792    1.5481   H         1 RES1   0.0000
   304 H174      2.4566   -7.6911    2.7320   H         1 RES1   0.0000
   305 H175      1.3518   -6.5090    2.0418   H         1 RES1   0.0000
   306 H176      0.9962   -5.4730    4.1863   H         1 RES1   0.0000
   307 H177      2.4099   -6.2594    4.8898   H         1 RES1   0.0000
   308 H178      1.3230   -8.4614    4.6034   H         1 RES1   0.0000
   309 H179     -0.1322   -7.6933    3.9648   H         1 RES1   0.0000
   310 H180      1.0400   -7.1377    6.7218   H         1 RES1   0.0000
   311 H181     -0.1483   -8.3937    6.4320   H         1 RES1   0.0000
   312 H182     -0.6306   -5.4498    5.8271   H         1 RES1   0.0000
   313 H183     -1.0669   -6.2464    7.3429   H         1 RES1   0.0000
   314 H184     -2.2318   -6.9040    4.5902   H         1 RES1   0.0000
   315 H185     -3.0374   -6.1131    5.9503   H         1 RES1   0.0000
   316 H186     -2.5775   -7.7940    6.0709   H         1 RES1   0.0000
   317 H187      3.1806   -2.1384   -1.5499   H         1 RES1   0.0000
   318 H188      0.1861   -2.1000   -0.8165   H         1 RES1   0.0000
   319 H189      1.0169   -3.4754   -1.6210   H         1 RES1   0.0000
   320 H190      0.9163   -1.9036   -2.4531   H         1 RES1   0.0000
   321 H191      3.9037    0.0858    0.3992   H         1 RES1   0.0000
   322 H192      4.8198   -0.9090   -1.5362   H         1 RES1   0.0000
   323 H193      4.9768    0.7643   -1.9431   H         1 RES1   0.0000
   324 H194      3.6195   -0.1550   -2.5969   H         1 RES1   0.0000
   325 H195      4.6419    4.1771   -1.2559   H         1 RES1   0.0000
   326 H196      4.8118    2.5192   -1.7875   H         1 RES1   0.0000
   327 H197      6.0885    3.8431    0.6382   H         1 RES1   0.0000
   328 H198      6.8450    3.1607   -0.7934   H         1 RES1   0.0000
   329 H199      6.1095    0.8755   -0.0672   H         1 RES1   0.0000
   330 H200      5.3856    1.5895    1.3823   H         1 RES1   0.0000
   331 H201      8.3228    1.5326    0.5927   H         1 RES1   0.0000
   332 H202      7.5451    0.5886    1.8612   H         1 RES1   0.0000
   333 H203      8.1323    3.5757    1.7787   H         1 RES1   0.0000
   334 H204      8.7909    2.3807    2.8834   H         1 RES1   0.0000
   335 H205      6.6777    2.1828    4.0666   H         1 RES1   0.0000
   336 H206      5.8333    3.1359    2.8439   H         1 RES1   0.0000
   337 H207      7.1624    5.1235    3.4267   H         1 RES1   0.0000
   338 H208      8.0304    4.2135    4.6553   H         1 RES1   0.0000
   339 H209      5.0012    4.6511    4.6410   H         1 RES1   0.0000
   340 H210      6.1533    5.5523    5.6269   H         1 RES1   0.0000
   341 H211      5.9251    3.8272    5.8991   H         1 RES1   0.0000
   342 H212      3.9650    4.5821    0.8242   H         1 RES1   0.0000
   343 H213      2.9108    3.4527    1.6980   H         1 RES1   0.0000
   344 H214      1.7409    5.4140    1.3588   H         1 RES1   0.0000
   345 H215      0.9862    4.1700    0.3673   H         1 RES1   0.0000
   346 H216      1.8887    5.2575   -1.6777   H         1 RES1   0.0000
   347 H217      2.7874    6.3993   -0.6932   H         1 RES1   0.0000
   348 H218      0.8575    7.4951    0.0868   H         1 RES1   0.0000
   349 H219     -0.2075    6.1589   -0.3111   H         1 RES1   0.0000
   350 H220      1.1056    7.9017   -2.4467   H         1 RES1   0.0000
   351 H221     -0.3774    8.3387   -1.6328   H         1 RES1   0.0000
   352 H222     -1.3499    6.1071   -2.3521   H         1 RES1   0.0000
   353 H223      0.0436    5.9436   -3.4450   H         1 RES1   0.0000
   354 H224     -0.6296    8.1080   -4.5313   H         1 RES1   0.0000
   355 H225     -2.0427    8.1713   -3.4706   H         1 RES1   0.0000
   356 H226     -1.4854    5.9154   -5.4715   H         1 RES1   0.0000
   357 H227     -2.5939    7.2632   -5.7072   H         1 RES1   0.0000
   358 H228     -2.9236    6.0924   -4.4530   H         1 RES1   0.0000
@<TRIPOS>BOND
     1     1    20    1
     2     1    23    1
     3     1    27    1
     4     1   139    1
     5     1   142    1
     6     1   146    1
     7     1   258    1
     8     1   261    1
     9     1   265    1
    10     2     3    1
    11     2    45    1
    12     2    46    1
    13     2    47    1
    14     3     4    1
    15     3    48    1
    16     3    49    1
    17     4     5    1
    18     4    50    1
    19     4    51    1
    20     5     6    1
    21     5    52    1
    22     5    53    1
    23     6     7    1
    24     6    54    1
    25     6    55    1
    26     7     8    1
    27     7    56    1
    28     7    57    1
    29     8     9    1
    30     8    58    1
    31     8    59    1
    32     9    10    1
    33     9    60    1
    34     9    61    1
    35    10    11    1
    36    10    19    1
    37    11    12    1
    38    11    62    1
    39    11    63    1
    40    12    13    1
    41    12    64    1
    42    12    65    1
    43    13    14    1
    44    13    66    1
    45    13    67    1
    46    14    15    1
    47    14    68    1
    48    14    69    1
    49    15    16    1
    50    15    70    1
    51    15    71    1
    52    16    17    1
    53    16    72    1
    54    16    73    1
    55    17    18    1
    56    17    74    1
    57    17    75    1
    58    18    76    1
    59    18    77    1
    60    18    78    1
    61    19    20    2
    62    19    21    1
    63    21    22    1
    64    21    23    1
    65    21    79    1
    66    22    80    1
    67    22    81    1
    68    22    82    1
    69    23    24    1
    70    24    25    1
    71    24    26    1
    72    24    83    1
    73    25    84    1
    74    25    85    1
    75    25    86    1
    76    26    27    2
    77    26    28    1
    78    28    29    1
    79    28    37    1
    80    29    30    1
    81    29    87    1
    82    29    88    1
    83    30    31    1
    84    30    89    1
    85    30    90    1
    86    31    32    1
    87    31    91    1
    88    31    92    1
    89    32    33    1
    90    32    93    1
    91    32    94    1
    92    33    34    1
    93    33    95    1
    94    33    96    1
    95    34    35    1
    96    34    97    1
    97    34    98    1
    98    35    36    1
    99    35    99    1
   100    35   100    1
   101    36   101    1
   102    36   102    1
   103    36   103    1
   104    37    38    1
   105    37   104    1
   106    37   105    1
   107    38    39    1
   108    38   106    1
   109    38   107    1
   110    39    40    1
   111    39   108    1
   112    39   109    1
   113    40    41    1
   114    40   110    1
   115    40   111    1
   116    41    42    1
   117    41   112    1
   118    41   113    1
   119    42    43    1
   120    42   114    1
   121    42   115    1
   122    43    44    1
   123    43   116    1
   124    43   117    1
   125    44   118    1
   126    44   119    1
   127    44   120    1
   128   121   122    1
   129   121   164    1
   130   121   165    1
   131   121   166    1
   132   122   123    1
   133   122   167    1
   134   122   168    1
   135   123   124    1
   136   123   169    1
   137   123   170    1
   138   124   125    1
   139   124   171    1
   140   124   172    1
   141   125   126    1
   142   125   173    1
   143   125   174    1
   144   126   127    1
   145   126   175    1
   146   126   176    1
   147   127   128    1
   148   127   177    1
   149   127   178    1
   150   128   129    1
   151   128   179    1
   152   128   180    1
   153   129   130    1
   154   129   138    1
   155   130   131    1
   156   130   181    1
   157   130   182    1
   158   131   132    1
   159   131   183    1
   160   131   184    1
   161   132   133    1
   162   132   185    1
   163   132   186    1
   164   133   134    1
   165   133   187    1
   166   133   188    1
   167   134   135    1
   168   134   189    1
   169   134   190    1
   170   135   136    1
   171   135   191    1
   172   135   192    1
   173   136   137    1
   174   136   193    1
   175   136   194    1
   176   137   195    1
   177   137   196    1
   178   137   197    1
   179   138   139    2
   180   138   140    1
   181   140   141    1
   182   140   142    1
   183   140   198    1
   184   141   199    1
   185   141   200    1
   186   141   201    1
   187   142   143    1
   188   143   144    1
   189   143   145    1
   190   143   202    1
   191   144   203    1
   192   144   204    1
   193   144   205    1
   194   145   146    2
   195   145   147    1
   196   147   148    1
   197   147   156    1
   198   148   149    1
   199   148   206    1
   200   148   207    1
   201   149   150    1
   202   149   208    1
   203   149   209    1
   204   150   151    1
   205   150   210    1
   206   150   211    1
   207   151   152    1
   208   151   212    1
   209   151   213    1
   210   152   153    1
   211   152   214    1
   212   152   215    1
   213   153   154    1
   214   153   216    1
   215   153   217    1
   216   154   155    1
   217   154   218    1
   218   154   219    1
   219   155   220    1
   220   155   221    1
   221   155   222    1
   222   156   157    1
   223   156   223    1
   224   156   224    1
   225   157   158    1
   226   157   225    1
   227   157   226    1
   228   158   159    1
   229   158   227    1
   230   158   228    1
   231   159   160    1
   232   159   229    1
   233   159   230    1
   234   160   161    1
   235   160   231    1
   236   160   232    1
   237   161   162    1
   238   161   233    1
   239   161   234    1
   240   162   163    1
   241   162   235    1
   242   162   236    1
   243   163   237    1
   244   163   238    1
   245   163   239    1
   246   240   241    1
   247   240   283    1
   248   240   284    1
   249   240   285    1
   250   241   242    1
   251   241   286    1
   252   241   287    1
   253   242   243    1
   254   242   288    1
   255   242   289    1
   256   243   244    1
   257   243   290    1
   258   243   291    1
   259   244   245    1
   260   244   292    1
   261   244   293    1
   262   245   246    1
   263   245   294    1
   264   245   295    1
   265   246   247    1
   266   246   296    1
   267   246   297    1
   268   247   248    1
   269   247   298    1
   270   247   299    1
   271   248   249    1
   272   248   257    1
   273   249   250    1
   274   249   300    1
   275   249   301    1
   276   250   251    1
   277   250   302    1
   278   250   303    1
   279   251   252    1
   280   251   304    1
   281   251   305    1
   282   252   253    1
   283   252   306    1
   284   252   307    1
   285   253   254    1
   286   253   308    1
   287   253   309    1
   288   254   255    1
   289   254   310    1
   290   254   311    1
   291   255   256    1
   292   255   312    1
   293   255   313    1
   294   256   314    1
   295   256   315    1
   296   256   316    1
   297   257   258    2
   298   257   259    1
   299   259   260    1
   300   259   261    1
   301   259   317    1
   302   260   318    1
   303   260   319    1
   304   260   320    1
   305   261   262    1
   306   262   263    1
   307   262   264    1
   308   262   321    1
   309   263   322    1
   310   263   323    1
   311   263   324    1
   312   264   265    2
   313   264   266    1
   314   266   267    1
   315   266   275    1
   316   267   268    1
   317   267   325    1
   318   267   326    1
   319   268   269    1
   320   268   327    1
   321   268   328    1
   322   269   270    1
   323   269   329    1
   324   269   330    1
   325   270   271    1
   326   270   331    1
   327   270   332    1
   328   271   272    1
   329   271   333    1
   330   271   334    1
   331   272   273    1
   332   272   335    1
   333   272   336    1
   334   273   274    1
   335   273   337    1
   336   273   338    1
   337   274   339    1
   338   274   340    1
   339   274   341    1
   340   275   276    1
   341   275   342    1
   342   275   343    1
   343   276   277    1
   344   276   344    1
   345   276   345    1
   346   277   278    1
   347   277   346    1
   348   277   347    1
   349   278   279    1
   350   278   348    1
   351   278   349    1
   352   279   280    1
   353   279   350    1
   354   279   351    1
   355   280   281    1
   356   280   352    1
   357   280   353    1
   358   281   282    1
   359   281   354    1
   360   281   355    1
   361   282   356    1
   362   282   357    1
   363   282   358    1
@<TRIPOS>SUBSTRUCTURE
     1 RES1      358 GROUP             0 ****  ****    0  
