@<TRIPOS>MOLECULE
am_c3_9H2O_c0_0_nunpairedes_0_charge_3 Charge: 3 Unpaired_Electrons: 1 XTB_Unpaired_Electrons: 0 XTB_Charge: 3
   196   201     1     0     0
SMALL
NoCharges
****
Generated from Architector

@<TRIPOS>ATOM
     1 Ce1       0.1085    0.0378    0.3042   Ce        1 RES1   0.0000
     2 C1        1.0504    3.7444   -5.6406   C.3       1 RES1   0.0000
     3 C2        0.2255    2.5229   -6.0171   C.3       1 RES1   0.0000
     4 C3       -0.3148    1.7507   -4.8090   C.3       1 RES1   0.0000
     5 C4       -1.4162    2.5113   -4.0644   C.3       1 RES1   0.0000
     6 N1       -2.3663    1.6514   -3.3523   N.am      1 RES1   0.0000
     7 C5       -3.7007    1.6002   -3.9346   C.3       1 RES1   0.0000
     8 C6       -3.8160    0.7652   -5.2170   C.3       1 RES1   0.0000
     9 C7       -3.7621   -0.7471   -5.0022   C.3       1 RES1   0.0000
    10 C8       -2.3460   -1.2981   -4.8656   C.3       1 RES1   0.0000
    11 C9       -1.9870    0.9940   -2.2658   C.2       1 RES1   0.0000
    12 O1       -0.8046    0.9392   -1.8672   O.2       1 RES1   0.0000
    13 C10      -3.0366    0.2690   -1.4018   C.3       1 RES1   0.0000
    14 O2       -2.5156    0.1535   -0.0766   O.3       1 RES1   0.0000
    15 C11      -3.2414    0.9317    0.8815   C.3       1 RES1   0.0000
    16 C12      -2.3138    1.2586    2.0527   C.2       1 RES1   0.0000
    17 O3       -1.0967    1.0750    1.8898   O.2       1 RES1   0.0000
    18 N2       -2.7988    1.7990    3.1677   N.am      1 RES1   0.0000
    19 C13      -1.7860    2.2346    4.1364   C.3       1 RES1   0.0000
    20 C14      -1.1817    3.5997    3.7904   C.3       1 RES1   0.0000
    21 C15      -0.0971    3.9801    4.8019   C.3       1 RES1   0.0000
    22 C16       0.4304    5.3990    4.6147   C.3       1 RES1   0.0000
    23 C17      -4.1883    1.7011    3.5988   C.3       1 RES1   0.0000
    24 C18      -5.2773    2.4194    2.7985   C.3       1 RES1   0.0000
    25 C19      -5.1534    3.9409    2.7789   C.3       1 RES1   0.0000
    26 C20      -4.1916    4.4562    1.7132   C.3       1 RES1   0.0000
    27 H1        1.4510    4.2107   -6.5340   H         1 RES1   0.0000
    28 H2        0.4511    4.4871   -5.1213   H         1 RES1   0.0000
    29 H3        1.8916    3.4544   -5.0146   H         1 RES1   0.0000
    30 H4       -0.6025    2.8309   -6.6583   H         1 RES1   0.0000
    31 H5        0.8519    1.8435   -6.5967   H         1 RES1   0.0000
    32 H6       -0.7301    0.8105   -5.1673   H         1 RES1   0.0000
    33 H7        0.4953    1.5127   -4.1179   H         1 RES1   0.0000
    34 H8       -0.9872    3.2075   -3.3380   H         1 RES1   0.0000
    35 H9       -1.9903    3.0817   -4.7947   H         1 RES1   0.0000
    36 H10      -4.4151    1.2244   -3.2057   H         1 RES1   0.0000
    37 H11      -3.9884    2.6235   -4.1783   H         1 RES1   0.0000
    38 H12      -4.7836    1.0170   -5.6527   H         1 RES1   0.0000
    39 H13      -3.0614    1.0593   -5.9470   H         1 RES1   0.0000
    40 H14      -4.3546   -1.0135   -4.1236   H         1 RES1   0.0000
    41 H15      -4.2276   -1.2239   -5.8648   H         1 RES1   0.0000
    42 H16      -1.8278   -0.8785   -4.0028   H         1 RES1   0.0000
    43 H17      -2.3807   -2.3803   -4.7592   H         1 RES1   0.0000
    44 H18      -1.7743   -1.0709   -5.7640   H         1 RES1   0.0000
    45 H19      -3.9904    0.7984   -1.3722   H         1 RES1   0.0000
    46 H20      -3.1947   -0.7390   -1.8051   H         1 RES1   0.0000
    47 H21      -3.5369    1.8985    0.4484   H         1 RES1   0.0000
    48 H22      -4.1329    0.3748    1.1974   H         1 RES1   0.0000
    49 H23      -2.2432    2.2727    5.1233   H         1 RES1   0.0000
    50 H24      -0.9852    1.4894    4.1464   H         1 RES1   0.0000
    51 H25      -0.7507    3.5602    2.7867   H         1 RES1   0.0000
    52 H26      -1.9641    4.3592    3.8022   H         1 RES1   0.0000
    53 H27      -0.5109    3.8972    5.8072   H         1 RES1   0.0000
    54 H28       0.7327    3.2755    4.7217   H         1 RES1   0.0000
    55 H29      -0.3624    6.1303    4.7517   H         1 RES1   0.0000
    56 H30       1.2035    5.6061    5.3505   H         1 RES1   0.0000
    57 H31       0.8623    5.5379    3.6258   H         1 RES1   0.0000
    58 H32      -4.4515    0.6388    3.6586   H         1 RES1   0.0000
    59 H33      -4.2207    2.1007    4.6127   H         1 RES1   0.0000
    60 H34      -5.3543    2.0526    1.7764   H         1 RES1   0.0000
    61 H35      -6.2078    2.1519    3.3003   H         1 RES1   0.0000
    62 H36      -6.1399    4.3603    2.5796   H         1 RES1   0.0000
    63 H37      -4.8402    4.2920    3.7621   H         1 RES1   0.0000
    64 H38      -4.5420    4.1773    0.7186   H         1 RES1   0.0000
    65 H39      -4.1529    5.5423    1.7556   H         1 RES1   0.0000
    66 H40      -3.1830    4.0701    1.8547   H         1 RES1   0.0000
    67 C21       0.7388   -1.1950    6.1177   C.3       1 RES1   0.0000
    68 C22       1.5013   -2.4024    5.5863   C.3       1 RES1   0.0000
    69 C23       1.8786   -2.2807    4.1057   C.3       1 RES1   0.0000
    70 C24       2.9525   -1.2058    3.9387   C.3       1 RES1   0.0000
    71 N3        3.4762   -1.0041    2.5852   N.am      1 RES1   0.0000
    72 C25       4.7927   -1.5560    2.2916   C.3       1 RES1   0.0000
    73 C26       4.9598   -3.0586    2.5731   C.3       1 RES1   0.0000
    74 C27       4.5092   -3.9779    1.4388   C.3       1 RES1   0.0000
    75 C28       2.9964   -4.0380    1.2434   C.3       1 RES1   0.0000
    76 C29       2.7788   -0.1916    1.7942   C.2       1 RES1   0.0000
    77 O4        1.5985    0.1204    2.0582   O.2       1 RES1   0.0000
    78 C30       3.4240    0.4929    0.5762   C.3       1 RES1   0.0000
    79 O5        2.3847    0.9416   -0.2974   O.3       1 RES1   0.0000
    80 C31       2.5029    2.2474   -0.8646   C.3       1 RES1   0.0000
    81 C32       1.1914    2.9997   -0.6140   C.2       1 RES1   0.0000
    82 O6        0.3327    2.4345    0.0880   O.2       1 RES1   0.0000
    83 N4        1.0204    4.2186   -1.1158   N.am      1 RES1   0.0000
    84 C33      -0.2244    4.9209   -0.7945   C.3       1 RES1   0.0000
    85 C34      -0.0882    5.8798    0.3915   C.3       1 RES1   0.0000
    86 C35      -1.3558    6.7216    0.5477   C.3       1 RES1   0.0000
    87 C36      -1.3724    7.4962    1.8592   C.3       1 RES1   0.0000
    88 C37       1.8433    4.8546   -2.1449   C.3       1 RES1   0.0000
    89 C38       3.3471    5.0630   -1.9468   C.3       1 RES1   0.0000
    90 C39       3.7307    5.9358   -0.7530   C.3       1 RES1   0.0000
    91 C40       3.6505    5.2324    0.5984   C.3       1 RES1   0.0000
    92 H41       0.3918   -1.3909    7.1272   H         1 RES1   0.0000
    93 H42       1.3688   -0.3113    6.1548   H         1 RES1   0.0000
    94 H43      -0.1253   -0.9781    5.4929   H         1 RES1   0.0000
    95 H44       2.4152   -2.5364    6.1674   H         1 RES1   0.0000
    96 H45       0.8963   -3.2985    5.7256   H         1 RES1   0.0000
    97 H46       2.2491   -3.2447    3.7609   H         1 RES1   0.0000
    98 H47       1.0062   -2.0152    3.4983   H         1 RES1   0.0000
    99 H48       2.5158   -0.2539    4.2494   H         1 RES1   0.0000
   100 H49       3.8016   -1.4348    4.5846   H         1 RES1   0.0000
   101 H50       5.0154   -1.3899    1.2396   H         1 RES1   0.0000
   102 H51       5.5395   -1.0222    2.8866   H         1 RES1   0.0000
   103 H52       6.0280   -3.2252    2.7163   H         1 RES1   0.0000
   104 H53       4.4627   -3.3485    3.4953   H         1 RES1   0.0000
   105 H54       4.9994   -3.6681    0.5133   H         1 RES1   0.0000
   106 H55       4.8624   -4.9854    1.6633   H         1 RES1   0.0000
   107 H56       2.5606   -3.0504    1.0706   H         1 RES1   0.0000
   108 H57       2.7559   -4.6818    0.3980   H         1 RES1   0.0000
   109 H58       2.5258   -4.4679    2.1248   H         1 RES1   0.0000
   110 H59       4.0237    1.3352    0.9488   H         1 RES1   0.0000
   111 H60       4.0788   -0.1901    0.0277   H         1 RES1   0.0000
   112 H61       3.3151    2.8127   -0.3982   H         1 RES1   0.0000
   113 H62       2.6793    2.1565   -1.9454   H         1 RES1   0.0000
   114 H63      -0.5380    5.4843   -1.6765   H         1 RES1   0.0000
   115 H64      -0.9855    4.1677   -0.5696   H         1 RES1   0.0000
   116 H65       0.0841    5.3041    1.3022   H         1 RES1   0.0000
   117 H66       0.7652    6.5432    0.2496   H         1 RES1   0.0000
   118 H67      -1.4337    7.4223   -0.2843   H         1 RES1   0.0000
   119 H68      -2.2249    6.0640    0.5077   H         1 RES1   0.0000
   120 H69      -0.5028    8.1429    1.9392   H         1 RES1   0.0000
   121 H70      -2.2630    8.1161    1.9223   H         1 RES1   0.0000
   122 H71      -1.3704    6.8144    2.7053   H         1 RES1   0.0000
   123 H72       1.7039    4.2958   -3.0756   H         1 RES1   0.0000
   124 H73       1.4154    5.8478   -2.2888   H         1 RES1   0.0000
   125 H74       3.9019    4.1269   -1.9216   H         1 RES1   0.0000
   126 H75       3.6649    5.5790   -2.8558   H         1 RES1   0.0000
   127 H76       4.7570    6.2732   -0.9039   H         1 RES1   0.0000
   128 H77       3.0931    6.8200   -0.7412   H         1 RES1   0.0000
   129 H78       4.3426    4.3911    0.6335   H         1 RES1   0.0000
   130 H79       3.9435    5.9212    1.3865   H         1 RES1   0.0000
   131 H80       2.6444    4.8806    0.8194   H         1 RES1   0.0000
   132 C41       0.2434   -5.3839   -5.4023   C.3       1 RES1   0.0000
   133 C42       1.5648   -4.7009   -5.7413   C.3       1 RES1   0.0000
   134 C43       1.8899   -3.5093   -4.8341   C.3       1 RES1   0.0000
   135 C44       2.2337   -3.9921   -3.4217   C.3       1 RES1   0.0000
   136 N5        2.4541   -2.9485   -2.4282   N.am      1 RES1   0.0000
   137 C45       3.8288   -2.7009   -1.9930   C.3       1 RES1   0.0000
   138 C46       4.4957   -1.4063   -2.4695   C.3       1 RES1   0.0000
   139 C47       4.5268   -1.1625   -3.9802   C.3       1 RES1   0.0000
   140 C48       3.3515   -0.3047   -4.4363   C.3       1 RES1   0.0000
   141 C49       1.4628   -2.3715   -1.7607   C.2       1 RES1   0.0000
   142 O7        1.6319   -1.5307   -0.8555   O.2       1 RES1   0.0000
   143 C50       0.0277   -2.7981   -2.0712   C.3       1 RES1   0.0000
   144 O8       -0.8415   -2.1685   -1.1338   O.3       1 RES1   0.0000
   145 C51      -1.7233   -3.0509   -0.4455   C.3       1 RES1   0.0000
   146 C52      -1.9167   -2.4950    0.9723   C.2       1 RES1   0.0000
   147 O9       -1.0066   -1.7733    1.4202   O.2       1 RES1   0.0000
   148 N6       -3.0044   -2.8221    1.6544   N.am      1 RES1   0.0000
   149 C53      -4.0795   -3.6633    1.1390   C.3       1 RES1   0.0000
   150 C54      -5.1208   -2.8921    0.3165   C.3       1 RES1   0.0000
   151 C55      -6.0012   -1.9543    1.1414   C.3       1 RES1   0.0000
   152 C56      -7.0474   -1.2629    0.2731   C.3       1 RES1   0.0000
   153 C57      -3.1138   -2.4105    3.0541   C.3       1 RES1   0.0000
   154 C58      -2.8422   -3.5675    4.0182   C.3       1 RES1   0.0000
   155 C59      -1.4419   -4.1439    3.8612   C.3       1 RES1   0.0000
   156 C60      -1.2032   -5.2499    4.8787   C.3       1 RES1   0.0000
   157 H81       0.0141   -6.1312   -6.1566   H         1 RES1   0.0000
   158 H82       0.2836   -5.8949   -4.4418   H         1 RES1   0.0000
   159 H83      -0.5722   -4.6619   -5.3856   H         1 RES1   0.0000
   160 H84       2.3743   -5.4305   -5.6863   H         1 RES1   0.0000
   161 H85       1.5206   -4.3448   -6.7708   H         1 RES1   0.0000
   162 H86       2.7409   -2.9769   -5.2546   H         1 RES1   0.0000
   163 H87       1.0434   -2.8199   -4.8184   H         1 RES1   0.0000
   164 H88       1.4453   -4.6622   -3.0745   H         1 RES1   0.0000
   165 H89       3.1445   -4.5871   -3.4880   H         1 RES1   0.0000
   166 H90       3.8007   -2.6638   -0.9017   H         1 RES1   0.0000
   167 H91       4.4316   -3.5547   -2.3038   H         1 RES1   0.0000
   168 H92       3.9867   -0.5656   -1.9988   H         1 RES1   0.0000
   169 H93       5.5218   -1.4501   -2.0968   H         1 RES1   0.0000
   170 H94       5.4458   -0.6355   -4.2395   H         1 RES1   0.0000
   171 H95       4.5505   -2.1136   -4.5098   H         1 RES1   0.0000
   172 H96       3.4210    0.6787   -3.9745   H         1 RES1   0.0000
   173 H97       3.3754   -0.1682   -5.5136   H         1 RES1   0.0000
   174 H98       2.3954   -0.7430   -4.1580   H         1 RES1   0.0000
   175 H99      -0.2513   -2.4955   -3.0868   H         1 RES1   0.0000
   176 H100     -0.0493   -3.8865   -1.9922   H         1 RES1   0.0000
   177 H101     -2.6627   -3.1374   -0.9995   H         1 RES1   0.0000
   178 H102     -1.2788   -4.0515   -0.3433   H         1 RES1   0.0000
   179 H103     -3.6625   -4.4703    0.5333   H         1 RES1   0.0000
   180 H104     -4.5777   -4.1188    1.9947   H         1 RES1   0.0000
   181 H105     -4.6194   -2.3217   -0.4693   H         1 RES1   0.0000
   182 H106     -5.7691   -3.6241   -0.1671   H         1 RES1   0.0000
   183 H107     -6.5108   -2.5224    1.9201   H         1 RES1   0.0000
   184 H108     -5.3825   -1.1963    1.6278   H         1 RES1   0.0000
   185 H109     -7.7024   -1.9966   -0.1900   H         1 RES1   0.0000
   186 H110     -7.6610   -0.5954    0.8734   H         1 RES1   0.0000
   187 H111     -6.5772   -0.6768   -0.5164   H         1 RES1   0.0000
   188 H112     -2.3862   -1.6084    3.2070   H         1 RES1   0.0000
   189 H113     -4.1192   -2.0277    3.2365   H         1 RES1   0.0000
   190 H114     -2.9690   -3.1944    5.0349   H         1 RES1   0.0000
   191 H115     -3.5738   -4.3649    3.8815   H         1 RES1   0.0000
   192 H116     -1.3173   -4.5400    2.8509   H         1 RES1   0.0000
   193 H117     -0.7184   -3.3422    3.9951   H         1 RES1   0.0000
   194 H118     -1.9091   -6.0621    4.7258   H         1 RES1   0.0000
   195 H119     -0.1975   -5.6523    4.7969   H         1 RES1   0.0000
   196 H120     -1.3417   -4.8692    5.8871   H         1 RES1   0.0000
@<TRIPOS>BOND
     1     1    12    1
     2     1    14    1
     3     1    17    1
     4     1    77    1
     5     1    79    1
     6     1    82    1
     7     1   142    1
     8     1   144    1
     9     1   147    1
    10     2     3    1
    11     2    27    1
    12     2    28    1
    13     2    29    1
    14     3     4    1
    15     3    30    1
    16     3    31    1
    17     4     5    1
    18     4    32    1
    19     4    33    1
    20     5     6    1
    21     5    34    1
    22     5    35    1
    23     6     7    1
    24     6    11    1
    25     7     8    1
    26     7    36    1
    27     7    37    1
    28     8     9    1
    29     8    38    1
    30     8    39    1
    31     9    10    1
    32     9    40    1
    33     9    41    1
    34    10    42    1
    35    10    43    1
    36    10    44    1
    37    11    12    2
    38    11    13    1
    39    13    14    1
    40    13    45    1
    41    13    46    1
    42    14    15    1
    43    15    16    1
    44    15    47    1
    45    15    48    1
    46    16    17    2
    47    16    18    1
    48    18    19    1
    49    18    23    1
    50    19    20    1
    51    19    49    1
    52    19    50    1
    53    20    21    1
    54    20    51    1
    55    20    52    1
    56    21    22    1
    57    21    53    1
    58    21    54    1
    59    22    55    1
    60    22    56    1
    61    22    57    1
    62    23    24    1
    63    23    58    1
    64    23    59    1
    65    24    25    1
    66    24    60    1
    67    24    61    1
    68    25    26    1
    69    25    62    1
    70    25    63    1
    71    26    64    1
    72    26    65    1
    73    26    66    1
    74    67    68    1
    75    67    92    1
    76    67    93    1
    77    67    94    1
    78    68    69    1
    79    68    95    1
    80    68    96    1
    81    69    70    1
    82    69    97    1
    83    69    98    1
    84    70    71    1
    85    70    99    1
    86    70   100    1
    87    71    72    1
    88    71    76    1
    89    72    73    1
    90    72   101    1
    91    72   102    1
    92    73    74    1
    93    73   103    1
    94    73   104    1
    95    74    75    1
    96    74   105    1
    97    74   106    1
    98    75   107    1
    99    75   108    1
   100    75   109    1
   101    76    77    2
   102    76    78    1
   103    78    79    1
   104    78   110    1
   105    78   111    1
   106    79    80    1
   107    80    81    1
   108    80   112    1
   109    80   113    1
   110    81    82    2
   111    81    83    1
   112    83    84    1
   113    83    88    1
   114    84    85    1
   115    84   114    1
   116    84   115    1
   117    85    86    1
   118    85   116    1
   119    85   117    1
   120    86    87    1
   121    86   118    1
   122    86   119    1
   123    87   120    1
   124    87   121    1
   125    87   122    1
   126    88    89    1
   127    88   123    1
   128    88   124    1
   129    89    90    1
   130    89   125    1
   131    89   126    1
   132    90    91    1
   133    90   127    1
   134    90   128    1
   135    91   129    1
   136    91   130    1
   137    91   131    1
   138   132   133    1
   139   132   157    1
   140   132   158    1
   141   132   159    1
   142   133   134    1
   143   133   160    1
   144   133   161    1
   145   134   135    1
   146   134   162    1
   147   134   163    1
   148   135   136    1
   149   135   164    1
   150   135   165    1
   151   136   137    1
   152   136   141    1
   153   137   138    1
   154   137   166    1
   155   137   167    1
   156   138   139    1
   157   138   168    1
   158   138   169    1
   159   139   140    1
   160   139   170    1
   161   139   171    1
   162   140   172    1
   163   140   173    1
   164   140   174    1
   165   141   142    2
   166   141   143    1
   167   143   144    1
   168   143   175    1
   169   143   176    1
   170   144   145    1
   171   145   146    1
   172   145   177    1
   173   145   178    1
   174   146   147    2
   175   146   148    1
   176   148   149    1
   177   148   153    1
   178   149   150    1
   179   149   179    1
   180   149   180    1
   181   150   151    1
   182   150   181    1
   183   150   182    1
   184   151   152    1
   185   151   183    1
   186   151   184    1
   187   152   185    1
   188   152   186    1
   189   152   187    1
   190   153   154    1
   191   153   188    1
   192   153   189    1
   193   154   155    1
   194   154   190    1
   195   154   191    1
   196   155   156    1
   197   155   192    1
   198   155   193    1
   199   156   194    1
   200   156   195    1
   201   156   196    1
@<TRIPOS>SUBSTRUCTURE
     1 RES1      196 GROUP             0 ****  ****    0  
