@<TRIPOS>MOLECULE
cn9_YICLED_0_nunpairedes_0_charge_3 Charge: 3 Unpaired_Electrons: 1 XTB_Unpaired_Electrons: 0 XTB_Charge: 3
   136   150     1     0     0
SMALL
NoCharges
****
Generated from Architector

@<TRIPOS>ATOM
     1 Ce1       0.0713   -0.0604    0.0963   Ce        1 RES1   0.0000
     2 C1       -0.4550    2.9995    4.5105   C.3       1 RES1   0.0000
     3 N1        0.4561    2.7419    3.4056   N.am      1 RES1   0.0000
     4 C2        0.3596    1.5827    2.7450   C.2       1 RES1   0.0000
     5 O1        0.8053    1.4044    1.5965   O.2       1 RES1   0.0000
     6 C3       -0.2518    0.3441    3.3844   C.ar      1 RES1   0.0000
     7 C4       -0.1399   -0.0548    4.7190   C.ar      1 RES1   0.0000
     8 C5       -0.5912   -1.3185    5.0756   C.ar      1 RES1   0.0000
     9 C6       -1.1135   -2.1699    4.1103   C.ar      1 RES1   0.0000
    10 C7       -1.1488   -1.7187    2.7939   C.ar      1 RES1   0.0000
    11 C8       -1.3668   -2.5526    1.5480   C.2       1 RES1   0.0000
    12 O2       -0.6271   -2.2360    0.5924   O.2       1 RES1   0.0000
    13 N2       -2.2387   -3.5671    1.5142   N.am      1 RES1   0.0000
    14 C9       -3.2802   -3.6587    2.5283   C.3       1 RES1   0.0000
    15 C10      -2.2672   -4.5500    0.4709   C.ar      1 RES1   0.0000
    16 C11      -2.9953   -5.7267    0.6658   C.ar      1 RES1   0.0000
    17 C12      -3.0411   -6.7009   -0.3168   C.ar      1 RES1   0.0000
    18 C13      -2.3447   -6.5404   -1.5021   C.ar      1 RES1   0.0000
    19 C14      -1.6003   -5.3903   -1.6927   C.ar      1 RES1   0.0000
    20 C15      -1.5734   -4.3955   -0.7297   C.ar      1 RES1   0.0000
    21 N3       -0.7364   -0.4913    2.4672   N.ar      1 RES1   0.0000
    22 C16       1.3145    3.8141    2.9918   C.ar      1 RES1   0.0000
    23 C17       1.3700    4.9839    3.7548   C.ar      1 RES1   0.0000
    24 C18       2.2049    6.0277    3.3972   C.ar      1 RES1   0.0000
    25 C19       3.0103    5.9393    2.2778   C.ar      1 RES1   0.0000
    26 C20       2.9859    4.7774    1.5281   C.ar      1 RES1   0.0000
    27 C21       2.1529    3.7256    1.8757   C.ar      1 RES1   0.0000
    28 H1       -1.2035    2.2124    4.5536   H         1 RES1   0.0000
    29 H2       -0.9800    3.9372    4.3256   H         1 RES1   0.0000
    30 H3        0.0672    3.0636    5.4673   H         1 RES1   0.0000
    31 H4        0.3244    0.5747    5.4591   H         1 RES1   0.0000
    32 H5       -0.5152   -1.6515    6.1006   H         1 RES1   0.0000
    33 H6       -1.4207   -3.1654    4.3862   H         1 RES1   0.0000
    34 H7       -3.3805   -2.7035    3.0411   H         1 RES1   0.0000
    35 H8       -3.0743   -4.4404    3.2652   H         1 RES1   0.0000
    36 H9       -4.2285   -3.8826    2.0376   H         1 RES1   0.0000
    37 H10      -3.5282   -5.9156    1.5800   H         1 RES1   0.0000
    38 H11      -3.6251   -7.5908   -0.1509   H         1 RES1   0.0000
    39 H12      -2.3826   -7.2981   -2.2658   H         1 RES1   0.0000
    40 H13      -1.0274   -5.2528   -2.5983   H         1 RES1   0.0000
    41 H14      -1.0017   -3.5061   -0.9324   H         1 RES1   0.0000
    42 H15       0.7868    5.1034    4.6505   H         1 RES1   0.0000
    43 H16       2.2255    6.9179    4.0063   H         1 RES1   0.0000
    44 H17       3.6521    6.7586    1.9943   H         1 RES1   0.0000
    45 H18       3.6203    4.6788    0.6591   H         1 RES1   0.0000
    46 H19       2.1779    2.8393    1.2654   H         1 RES1   0.0000
    47 C22      -1.9126   -2.9915   -4.4106   C.3       1 RES1   0.0000
    48 N4       -0.7304   -2.3900   -3.8099   N.am      1 RES1   0.0000
    49 C23      -0.8560   -1.4274   -2.8869   C.2       1 RES1   0.0000
    50 O3        0.0540   -1.0590   -2.1200   O.2       1 RES1   0.0000
    51 C24      -2.1427   -0.6628   -2.7243   C.ar      1 RES1   0.0000
    52 C25      -3.0537   -0.3523   -3.7330   C.ar      1 RES1   0.0000
    53 C26      -4.1522    0.4250   -3.4076   C.ar      1 RES1   0.0000
    54 C27      -4.2844    0.9143   -2.1166   C.ar      1 RES1   0.0000
    55 C28      -3.2861    0.6333   -1.1848   C.ar      1 RES1   0.0000
    56 C29      -3.1287    1.1787    0.2128   C.2       1 RES1   0.0000
    57 O4       -1.9752    1.1596    0.6857   O.2       1 RES1   0.0000
    58 N5       -4.1566    1.6429    0.9224   N.am      1 RES1   0.0000
    59 C30      -5.5422    1.7308    0.5005   C.3       1 RES1   0.0000
    60 C31      -3.9514    1.9770    2.3014   C.ar      1 RES1   0.0000
    61 C32      -4.3074    3.2330    2.7726   C.ar      1 RES1   0.0000
    62 C33      -4.2957    3.4798    4.1348   C.ar      1 RES1   0.0000
    63 C34      -3.9146    2.4834    5.0180   C.ar      1 RES1   0.0000
    64 C35      -3.5123    1.2447    4.5410   C.ar      1 RES1   0.0000
    65 C36      -3.5365    0.9869    3.1801   C.ar      1 RES1   0.0000
    66 N6       -2.2487   -0.1535   -1.4947   N.ar      1 RES1   0.0000
    67 C37       0.5241   -2.9721   -4.1756   C.ar      1 RES1   0.0000
    68 C38       0.6174   -3.7528   -5.3300   C.ar      1 RES1   0.0000
    69 C39       1.8102   -4.3658   -5.6688   C.ar      1 RES1   0.0000
    70 C40       2.9371   -4.2106   -4.8811   C.ar      1 RES1   0.0000
    71 C41       2.8730   -3.3870   -3.7732   C.ar      1 RES1   0.0000
    72 C42       1.6816   -2.7729   -3.4243   C.ar      1 RES1   0.0000
    73 H20      -2.7878   -2.7852   -3.8000   H         1 RES1   0.0000
    74 H21      -1.7770   -4.0714   -4.4424   H         1 RES1   0.0000
    75 H22      -2.0848   -2.6346   -5.4276   H         1 RES1   0.0000
    76 H23      -2.9055   -0.6662   -4.7524   H         1 RES1   0.0000
    77 H24      -4.9011    0.6536   -4.1519   H         1 RES1   0.0000
    78 H25      -5.1310    1.5346   -1.8914   H         1 RES1   0.0000
    79 H26      -5.8624    0.7972    0.0428   H         1 RES1   0.0000
    80 H27      -5.6981    2.5662   -0.1839   H         1 RES1   0.0000
    81 H28      -6.1492    1.9056    1.3870   H         1 RES1   0.0000
    82 H29      -4.6167    4.0014    2.0827   H         1 RES1   0.0000
    83 H30      -4.6147    4.4415    4.5059   H         1 RES1   0.0000
    84 H31      -3.9435    2.6653    6.0800   H         1 RES1   0.0000
    85 H32      -3.2174    0.4647    5.2293   H         1 RES1   0.0000
    86 H33      -3.2702    0.0148    2.7904   H         1 RES1   0.0000
    87 H34      -0.2194   -3.8790   -5.9940   H         1 RES1   0.0000
    88 H35       1.8566   -4.9747   -6.5571   H         1 RES1   0.0000
    89 H36       3.8543   -4.7202   -5.1254   H         1 RES1   0.0000
    90 H37       3.7454   -3.2233   -3.1564   H         1 RES1   0.0000
    91 H38       1.6616   -2.1340   -2.5627   H         1 RES1   0.0000
    92 C43       2.0524   -3.3857    2.9946   C.3       1 RES1   0.0000
    93 N7        2.3469   -3.3219    1.5734   N.am      1 RES1   0.0000
    94 C44       2.3106   -2.0958    1.0319   C.2       1 RES1   0.0000
    95 O5        1.7812   -1.1484    1.6460   O.2       1 RES1   0.0000
    96 C45       3.0031   -1.6644   -0.2285   C.ar      1 RES1   0.0000
    97 C46       4.2734   -2.0479   -0.6546   C.ar      1 RES1   0.0000
    98 C47       4.9056   -1.2277   -1.5797   C.ar      1 RES1   0.0000
    99 C48       4.2691   -0.0937   -2.0735   C.ar      1 RES1   0.0000
   100 C49       2.9471    0.1504   -1.6911   C.ar      1 RES1   0.0000
   101 C50       2.0034    1.2742   -2.0840   C.2       1 RES1   0.0000
   102 O6        1.0298    1.4643   -1.3243   O.2       1 RES1   0.0000
   103 N8        2.1950    2.0282   -3.1721   N.am      1 RES1   0.0000
   104 C51       3.0551    1.6329   -4.2710   C.3       1 RES1   0.0000
   105 C52       1.4787    3.2682   -3.2883   C.ar      1 RES1   0.0000
   106 C53       0.9977    3.7321   -4.5081   C.ar      1 RES1   0.0000
   107 C54       0.3778    4.9674   -4.5876   C.ar      1 RES1   0.0000
   108 C55       0.1994    5.7388   -3.4539   C.ar      1 RES1   0.0000
   109 C56       0.6486    5.2681   -2.2308   C.ar      1 RES1   0.0000
   110 C57       1.3012    4.0516   -2.1488   C.ar      1 RES1   0.0000
   111 N9        2.3715   -0.6190   -0.7631   N.ar      1 RES1   0.0000
   112 C58       2.3805   -4.5610    0.8939   C.ar      1 RES1   0.0000
   113 C59       2.1308   -4.6207   -0.4750   C.ar      1 RES1   0.0000
   114 C60       2.0642   -5.8405   -1.1220   C.ar      1 RES1   0.0000
   115 C61       2.2003   -7.0190   -0.4108   C.ar      1 RES1   0.0000
   116 C62       2.4105   -6.9679    0.9570   C.ar      1 RES1   0.0000
   117 C63       2.5148   -5.7515    1.6076   C.ar      1 RES1   0.0000
   118 H39       1.8764   -2.3759    3.3522   H         1 RES1   0.0000
   119 H40       2.9118   -3.7977    3.5175   H         1 RES1   0.0000
   120 H41       1.1746   -4.0005    3.1758   H         1 RES1   0.0000
   121 H42       4.7654   -2.9174   -0.2462   H         1 RES1   0.0000
   122 H43       5.9077   -1.4621   -1.9082   H         1 RES1   0.0000
   123 H44       4.8211    0.5795   -2.7078   H         1 RES1   0.0000
   124 H45       3.2480    0.5632   -4.2345   H         1 RES1   0.0000
   125 H46       3.9943    2.1895   -4.2599   H         1 RES1   0.0000
   126 H47       2.5561    1.8530   -5.2127   H         1 RES1   0.0000
   127 H48       1.0936    3.1551   -5.4126   H         1 RES1   0.0000
   128 H49       0.0324    5.3263   -5.5441   H         1 RES1   0.0000
   129 H50      -0.2828    6.7007   -3.5226   H         1 RES1   0.0000
   130 H51       0.5016    5.8488   -1.3326   H         1 RES1   0.0000
   131 H52       1.6747    3.7166   -1.1939   H         1 RES1   0.0000
   132 H53       1.9549   -3.7053   -1.0165   H         1 RES1   0.0000
   133 H54       1.8830   -5.8649   -2.1875   H         1 RES1   0.0000
   134 H55       2.1379   -7.9696   -0.9144   H         1 RES1   0.0000
   135 H56       2.4859   -7.8822    1.5252   H         1 RES1   0.0000
   136 H57       2.6959   -5.7591    2.6679   H         1 RES1   0.0000
@<TRIPOS>BOND
     1     1     5    1
     2     1    12    1
     3     1    21    1
     4     1    50    1
     5     1    57    1
     6     1    66    1
     7     1    95    1
     8     1   102    1
     9     1   111    1
    10     2     3    1
    11     2    28    1
    12     2    29    1
    13     2    30    1
    14     3     4    1
    15     3    22    1
    16     4     5    2
    17     4     6    1
    18     6     7    1
    19     6    21    2
    20     7     8    2
    21     7    31    1
    22     8     9    1
    23     8    32    1
    24     9    10    2
    25     9    33    1
    26    10    11    1
    27    10    21    1
    28    11    12    2
    29    11    13    1
    30    13    14    1
    31    13    15    1
    32    14    34    1
    33    14    35    1
    34    14    36    1
    35    15    16    1
    36    15    20    2
    37    16    17    2
    38    16    37    1
    39    17    18    1
    40    17    38    1
    41    18    19    2
    42    18    39    1
    43    19    20    1
    44    19    40    1
    45    20    41    1
    46    22    23    1
    47    22    27    2
    48    23    24    2
    49    23    42    1
    50    24    25    1
    51    24    43    1
    52    25    26    2
    53    25    44    1
    54    26    27    1
    55    26    45    1
    56    27    46    1
    57    47    48    1
    58    47    73    1
    59    47    74    1
    60    47    75    1
    61    48    49    1
    62    48    67    1
    63    49    50    2
    64    49    51    1
    65    51    52    1
    66    51    66    2
    67    52    53    2
    68    52    76    1
    69    53    54    1
    70    53    77    1
    71    54    55    2
    72    54    78    1
    73    55    56    1
    74    55    66    1
    75    56    57    2
    76    56    58    1
    77    58    59    1
    78    58    60    1
    79    59    79    1
    80    59    80    1
    81    59    81    1
    82    60    61    1
    83    60    65    2
    84    61    62    2
    85    61    82    1
    86    62    63    1
    87    62    83    1
    88    63    64    2
    89    63    84    1
    90    64    65    1
    91    64    85    1
    92    65    86    1
    93    67    68    1
    94    67    72    2
    95    68    69    2
    96    68    87    1
    97    69    70    1
    98    69    88    1
    99    70    71    2
   100    70    89    1
   101    71    72    1
   102    71    90    1
   103    72    91    1
   104    92    93    1
   105    92   118    1
   106    92   119    1
   107    92   120    1
   108    93    94    1
   109    93   112    1
   110    94    95    2
   111    94    96    1
   112    96    97    1
   113    96   111    2
   114    97    98    2
   115    97   121    1
   116    98    99    1
   117    98   122    1
   118    99   100    2
   119    99   123    1
   120   100   101    1
   121   100   111    1
   122   101   102    2
   123   101   103    1
   124   103   104    1
   125   103   105    1
   126   104   124    1
   127   104   125    1
   128   104   126    1
   129   105   106    1
   130   105   110    2
   131   106   107    2
   132   106   127    1
   133   107   108    1
   134   107   128    1
   135   108   109    2
   136   108   129    1
   137   109   110    1
   138   109   130    1
   139   110   131    1
   140   112   113    1
   141   112   117    2
   142   113   114    2
   143   113   132    1
   144   114   115    1
   145   114   133    1
   146   115   116    2
   147   115   134    1
   148   116   117    1
   149   116   135    1
   150   117   136    1
@<TRIPOS>SUBSTRUCTURE
     1 RES1      136 GROUP             0 ****  ****    0  
