@<TRIPOS>MOLECULE
am_c3_9H2O_c0_0_nunpairedes_0_charge_3 Charge: 3 Unpaired_Electrons: 1 XTB_Unpaired_Electrons: 0 XTB_Charge: 3
   148   161     1     0     0
SMALL
NoCharges
****
Generated from Architector

@<TRIPOS>ATOM
     1 Ce1      -0.0303    0.0078   -0.0088   Ce        1 RES1   0.0000
     2 C1        6.1871   -2.4768    1.0345   C.3       1 RES1   0.0000
     3 C2        5.2329   -1.4984    0.3663   C.3       1 RES1   0.0000
     4 N1        3.8970   -2.0442    0.1204   N.am      1 RES1   0.0000
     5 C3        2.7725   -1.4740    0.5805   C.2       1 RES1   0.0000
     6 O1        1.6693   -1.6843    0.0270   O.2       1 RES1   0.0000
     7 C4        2.7129   -0.5470    1.7775   C.ar      1 RES1   0.0000
     8 C5        3.6048   -0.4760    2.8466   C.ar      1 RES1   0.0000
     9 C6        3.3491    0.4415    3.8572   C.ar      1 RES1   0.0000
    10 C7        2.2145    1.2357    3.8083   C.ar      1 RES1   0.0000
    11 C8        1.3096    1.0352    2.7629   C.ar      1 RES1   0.0000
    12 C9        0.0153    1.7782    2.6927   C.ar      1 RES1   0.0000
    13 C10      -0.2762    2.8757    3.5114   C.ar      1 RES1   0.0000
    14 C11      -1.4764    3.5492    3.3358   C.ar      1 RES1   0.0000
    15 C12      -2.3737    3.1266    2.3663   C.ar      1 RES1   0.0000
    16 C13      -2.0429    1.9897    1.6319   C.ar      1 RES1   0.0000
    17 C14      -2.8806    1.3977    0.5227   C.2       1 RES1   0.0000
    18 O2       -2.3177    0.5892   -0.2565   O.2       1 RES1   0.0000
    19 N2       -4.1421    1.7600    0.3086   N.am      1 RES1   0.0000
    20 C15      -4.7862    1.2728   -0.9169   C.3       1 RES1   0.0000
    21 C16      -4.3649    2.0509   -2.1577   C.3       1 RES1   0.0000
    22 C17      -5.0063    2.3963    1.2484   C.ar      1 RES1   0.0000
    23 C18      -5.7268    3.5134    0.8371   C.ar      1 RES1   0.0000
    24 C19      -6.6317    4.1353    1.6843   C.ar      1 RES1   0.0000
    25 C20      -7.4157    5.3328    1.2601   C.3       1 RES1   0.0000
    26 C21      -6.7930    3.6055    2.9612   C.ar      1 RES1   0.0000
    27 C22      -6.1142    2.4665    3.3471   C.ar      1 RES1   0.0000
    28 C23      -5.2174    1.8218    2.5044   C.ar      1 RES1   0.0000
    29 C24      -4.5814    0.5272    2.9113   C.3       1 RES1   0.0000
    30 N3       -0.8712    1.3580    1.7837   N.ar      1 RES1   0.0000
    31 N4        1.5720    0.1599    1.7866   N.ar      1 RES1   0.0000
    32 C25       3.8045   -3.1187   -0.8362   C.ar      1 RES1   0.0000
    33 C26       4.6808   -3.1487   -1.9276   C.ar      1 RES1   0.0000
    34 C27       4.6826   -4.1799   -2.8532   C.ar      1 RES1   0.0000
    35 C28       5.6616   -4.2509   -3.9808   C.3       1 RES1   0.0000
    36 C29       3.7439   -5.1972   -2.7134   C.ar      1 RES1   0.0000
    37 C30       2.8723   -5.1794   -1.6515   C.ar      1 RES1   0.0000
    38 C31       2.8909   -4.1767   -0.6826   C.ar      1 RES1   0.0000
    39 C32       1.9633   -4.3555    0.4749   C.3       1 RES1   0.0000
    40 H1        7.1384   -1.9736    1.1693   H         1 RES1   0.0000
    41 H2        6.3563   -3.3472    0.4098   H         1 RES1   0.0000
    42 H3        5.8259   -2.8173    2.0001   H         1 RES1   0.0000
    43 H4        5.6527   -1.2106   -0.6008   H         1 RES1   0.0000
    44 H5        5.1414   -0.5822    0.9471   H         1 RES1   0.0000
    45 H6        4.4649   -1.1217    2.9165   H         1 RES1   0.0000
    46 H7        4.0281    0.5199    4.6897   H         1 RES1   0.0000
    47 H8        2.0195    1.9519    4.5915   H         1 RES1   0.0000
    48 H9        0.4288    3.2346    4.2457   H         1 RES1   0.0000
    49 H10      -1.6998    4.4200    3.9300   H         1 RES1   0.0000
    50 H11      -3.2926    3.6630    2.1897   H         1 RES1   0.0000
    51 H12      -5.8641    1.3500   -0.7819   H         1 RES1   0.0000
    52 H13      -4.5153    0.2199   -1.0385   H         1 RES1   0.0000
    53 H14      -4.5709    3.1133   -2.0704   H         1 RES1   0.0000
    54 H15      -4.9213    1.6733   -3.0088   H         1 RES1   0.0000
    55 H16      -3.3062    1.9179   -2.3527   H         1 RES1   0.0000
    56 H17      -5.5993    3.9102   -0.1572   H         1 RES1   0.0000
    57 H18      -7.2107    5.6212    0.2324   H         1 RES1   0.0000
    58 H19      -7.1825    6.1749    1.9100   H         1 RES1   0.0000
    59 H20      -8.4818    5.1318    1.3545   H         1 RES1   0.0000
    60 H21      -7.4760    4.0788    3.6491   H         1 RES1   0.0000
    61 H22      -6.3017    2.0595    4.3264   H         1 RES1   0.0000
    62 H23      -4.9484    0.2322    3.8889   H         1 RES1   0.0000
    63 H24      -3.4954    0.5852    2.9624   H         1 RES1   0.0000
    64 H25      -4.8365   -0.2523    2.1948   H         1 RES1   0.0000
    65 H26       5.4153   -2.3753   -2.0859   H         1 RES1   0.0000
    66 H27       6.3653   -3.4230   -3.9871   H         1 RES1   0.0000
    67 H28       5.1268   -4.2657   -4.9295   H         1 RES1   0.0000
    68 H29       6.2256   -5.1803   -3.9044   H         1 RES1   0.0000
    69 H30       3.7228   -6.0100   -3.4232   H         1 RES1   0.0000
    70 H31       2.1771   -5.9989   -1.5440   H         1 RES1   0.0000
    71 H32       1.4884   -5.3315    0.4112   H         1 RES1   0.0000
    72 H33       1.1855   -3.5930    0.4734   H         1 RES1   0.0000
    73 H34       2.4999   -4.2825    1.4177   H         1 RES1   0.0000
    74 C33      -3.2720   -5.7407    1.0456   C.3       1 RES1   0.0000
    75 C34      -3.4907   -4.2817    0.6609   C.3       1 RES1   0.0000
    76 N5       -2.5092   -3.3826    1.2669   N.am      1 RES1   0.0000
    77 C35      -1.6533   -2.6073    0.5892   C.2       1 RES1   0.0000
    78 O3       -1.0895   -1.6367    1.1495   O.2       1 RES1   0.0000
    79 C36      -1.2503   -2.8645   -0.8600   C.ar      1 RES1   0.0000
    80 C37      -1.3224   -4.0764   -1.5496   C.ar      1 RES1   0.0000
    81 C38      -0.7992   -4.1503   -2.8346   C.ar      1 RES1   0.0000
    82 C39      -0.0930   -3.0813   -3.3583   C.ar      1 RES1   0.0000
    83 C40       0.0164   -1.9251   -2.5835   C.ar      1 RES1   0.0000
    84 C41       0.8864   -0.7911   -3.0183   C.ar      1 RES1   0.0000
    85 C42       1.3655   -0.6658   -4.3271   C.ar      1 RES1   0.0000
    86 C43       2.0919    0.4650   -4.6685   C.ar      1 RES1   0.0000
    87 C44       2.3509    1.4386   -3.7147   C.ar      1 RES1   0.0000
    88 C45       1.9222    1.2005   -2.4128   C.ar      1 RES1   0.0000
    89 C46       2.0640    2.1557   -1.2558   C.2       1 RES1   0.0000
    90 O4        1.3718    1.9217   -0.2352   O.2       1 RES1   0.0000
    91 N6        2.8202    3.2518   -1.2961   N.am      1 RES1   0.0000
    92 C47       2.6889    4.1759   -0.1642   C.3       1 RES1   0.0000
    93 C48       1.3449    4.8946   -0.1420   C.3       1 RES1   0.0000
    94 C49       3.8548    3.5358   -2.2301   C.ar      1 RES1   0.0000
    95 C50       3.8859    4.7967   -2.8221   C.ar      1 RES1   0.0000
    96 C51       4.8730    5.1410   -3.7309   C.ar      1 RES1   0.0000
    97 C52       4.9146    6.4790   -4.3892   C.3       1 RES1   0.0000
    98 C53       5.8395    4.1855   -4.0384   C.ar      1 RES1   0.0000
    99 C54       5.8495    2.9648   -3.3988   C.ar      1 RES1   0.0000
   100 C55       4.8755    2.6151   -2.4680   C.ar      1 RES1   0.0000
   101 C56       4.9845    1.3007   -1.7566   C.3       1 RES1   0.0000
   102 N7        1.1999    0.1188   -2.0905   N.ar      1 RES1   0.0000
   103 N8       -0.6163   -1.8137   -1.4083   N.ar      1 RES1   0.0000
   104 C57      -2.6027   -3.2636    2.7044   C.ar      1 RES1   0.0000
   105 C58      -3.8646   -3.1809    3.3017   C.ar      1 RES1   0.0000
   106 C59      -4.0315   -3.1488    4.6766   C.ar      1 RES1   0.0000
   107 C60      -5.3757   -3.1342    5.3301   C.3       1 RES1   0.0000
   108 C61      -2.8960   -3.1507    5.4798   C.ar      1 RES1   0.0000
   109 C62      -1.6486   -3.2188    4.9065   C.ar      1 RES1   0.0000
   110 C63      -1.4661   -3.3002    3.5272   C.ar      1 RES1   0.0000
   111 C64      -0.0656   -3.4869    3.0371   C.3       1 RES1   0.0000
   112 H35      -4.0238   -6.3428    0.5460   H         1 RES1   0.0000
   113 H36      -3.3906   -5.8760    2.1162   H         1 RES1   0.0000
   114 H37      -2.2856   -6.1066    0.7733   H         1 RES1   0.0000
   115 H38      -4.4790   -3.9827    1.0190   H         1 RES1   0.0000
   116 H39      -3.5000   -4.1416   -0.4185   H         1 RES1   0.0000
   117 H40      -1.7357   -4.9678   -1.1101   H         1 RES1   0.0000
   118 H41      -0.8880   -5.0647   -3.3981   H         1 RES1   0.0000
   119 H42       0.4008   -3.1684   -4.3144   H         1 RES1   0.0000
   120 H43       1.1367   -1.4018   -5.0831   H         1 RES1   0.0000
   121 H44       2.4232    0.6080   -5.6838   H         1 RES1   0.0000
   122 H45       2.8523    2.3552   -3.9798   H         1 RES1   0.0000
   123 H46       3.5054    4.8945   -0.2239   H         1 RES1   0.0000
   124 H47       2.7997    3.5916    0.7558   H         1 RES1   0.0000
   125 H48       1.1746    5.4593   -1.0536   H         1 RES1   0.0000
   126 H49       1.3390    5.5888    0.6917   H         1 RES1   0.0000
   127 H50       0.5369    4.1783   -0.0142   H         1 RES1   0.0000
   128 H51       3.1310    5.5261   -2.5786   H         1 RES1   0.0000
   129 H52       4.1273    7.1410   -4.0396   H         1 RES1   0.0000
   130 H53       4.8127    6.3570   -5.4667   H         1 RES1   0.0000
   131 H54       5.8757    6.9553   -4.2018   H         1 RES1   0.0000
   132 H55       6.5960    4.4160   -4.7724   H         1 RES1   0.0000
   133 H56       6.6393    2.2663   -3.6213   H         1 RES1   0.0000
   134 H57       5.9854    1.2224   -1.3374   H         1 RES1   0.0000
   135 H58       4.8349    0.4856   -2.4626   H         1 RES1   0.0000
   136 H59       4.2587    1.1955   -0.9514   H         1 RES1   0.0000
   137 H60      -4.7668   -3.1496    2.7108   H         1 RES1   0.0000
   138 H61      -6.1977   -3.1620    4.6201   H         1 RES1   0.0000
   139 H62      -5.4706   -2.2422    5.9476   H         1 RES1   0.0000
   140 H63      -5.4579   -4.0006    5.9860   H         1 RES1   0.0000
   141 H64      -3.0006   -3.1201    6.5532   H         1 RES1   0.0000
   142 H65      -0.7852   -3.2448    5.5545   H         1 RES1   0.0000
   143 H66       0.5992   -3.6282    3.8860   H         1 RES1   0.0000
   144 H67       0.2776   -2.6174    2.4713   H         1 RES1   0.0000
   145 H68      -0.0036   -4.3635    2.3979   H         1 RES1   0.0000
   146 O5       -0.8329    1.9368   -1.8773   O.3       1 RES1   0.0000
   147 H69      -1.4749    1.5171   -2.4683   H         1 RES1   0.0000
   148 H70      -1.2831    2.7001   -1.4918   H         1 RES1   0.0000
@<TRIPOS>BOND
     1     1     6    1
     2     1    18    1
     3     1    30    1
     4     1    31    1
     5     1    78    1
     6     1    90    1
     7     1   102    1
     8     1   103    1
     9     1   146    1
    10     2     3    1
    11     2    40    1
    12     2    41    1
    13     2    42    1
    14     3     4    1
    15     3    43    1
    16     3    44    1
    17     4     5    1
    18     4    32    1
    19     5     6    2
    20     5     7    1
    21     7     8    1
    22     7    31    2
    23     8     9    2
    24     8    45    1
    25     9    10    1
    26     9    46    1
    27    10    11    2
    28    10    47    1
    29    11    12    1
    30    11    31    1
    31    12    13    1
    32    12    30    2
    33    13    14    2
    34    13    48    1
    35    14    15    1
    36    14    49    1
    37    15    16    2
    38    15    50    1
    39    16    17    1
    40    16    30    1
    41    17    18    2
    42    17    19    1
    43    19    20    1
    44    19    22    1
    45    20    21    1
    46    20    51    1
    47    20    52    1
    48    21    53    1
    49    21    54    1
    50    21    55    1
    51    22    23    1
    52    22    28    2
    53    23    24    2
    54    23    56    1
    55    24    25    1
    56    24    26    1
    57    25    57    1
    58    25    58    1
    59    25    59    1
    60    26    27    2
    61    26    60    1
    62    27    28    1
    63    27    61    1
    64    28    29    1
    65    29    62    1
    66    29    63    1
    67    29    64    1
    68    32    33    1
    69    32    38    2
    70    33    34    2
    71    33    65    1
    72    34    35    1
    73    34    36    1
    74    35    66    1
    75    35    67    1
    76    35    68    1
    77    36    37    2
    78    36    69    1
    79    37    38    1
    80    37    70    1
    81    38    39    1
    82    39    71    1
    83    39    72    1
    84    39    73    1
    85    74    75    1
    86    74   112    1
    87    74   113    1
    88    74   114    1
    89    75    76    1
    90    75   115    1
    91    75   116    1
    92    76    77    1
    93    76   104    1
    94    77    78    2
    95    77    79    1
    96    79    80    1
    97    79   103    2
    98    80    81    2
    99    80   117    1
   100    81    82    1
   101    81   118    1
   102    82    83    2
   103    82   119    1
   104    83    84    1
   105    83   103    1
   106    84    85    1
   107    84   102    2
   108    85    86    2
   109    85   120    1
   110    86    87    1
   111    86   121    1
   112    87    88    2
   113    87   122    1
   114    88    89    1
   115    88   102    1
   116    89    90    2
   117    89    91    1
   118    91    92    1
   119    91    94    1
   120    92    93    1
   121    92   123    1
   122    92   124    1
   123    93   125    1
   124    93   126    1
   125    93   127    1
   126    94    95    1
   127    94   100    2
   128    95    96    2
   129    95   128    1
   130    96    97    1
   131    96    98    1
   132    97   129    1
   133    97   130    1
   134    97   131    1
   135    98    99    2
   136    98   132    1
   137    99   100    1
   138    99   133    1
   139   100   101    1
   140   101   134    1
   141   101   135    1
   142   101   136    1
   143   104   105    1
   144   104   110    2
   145   105   106    2
   146   105   137    1
   147   106   107    1
   148   106   108    1
   149   107   138    1
   150   107   139    1
   151   107   140    1
   152   108   109    2
   153   108   141    1
   154   109   110    1
   155   109   142    1
   156   110   111    1
   157   111   143    1
   158   111   144    1
   159   111   145    1
   160   146   147    1
   161   146   148    1
@<TRIPOS>SUBSTRUCTURE
     1 RES1      148 GROUP             0 ****  ****    0  
