@<TRIPOS>MOLECULE
am_c3_9H2O_c0_0_nunpairedes_0_charge_3 Charge: 3 Unpaired_Electrons: 1 XTB_Unpaired_Electrons: 0 XTB_Charge: 3
   256   267     1     0     0
SMALL
NoCharges
****
Generated from Architector

@<TRIPOS>ATOM
     1 Ce1       0.0267   -0.0465    0.0167   Ce        1 RES1   0.0000
     2 C1       -2.2947    6.3218    2.7132   C.3       1 RES1   0.0000
     3 C2       -3.0937    5.1089    3.1792   C.3       1 RES1   0.0000
     4 C3       -3.6691    4.1944    2.0905   C.3       1 RES1   0.0000
     5 C4       -5.0087    4.6463    1.5087   C.3       1 RES1   0.0000
     6 C5       -4.8993    5.7479    0.4576   C.3       1 RES1   0.0000
     7 C6       -4.1563    5.2787   -0.8026   C.3       1 RES1   0.0000
     8 C7       -2.6707    5.6526   -0.8240   C.3       1 RES1   0.0000
     9 C8       -1.9208    5.0587   -2.0220   C.3       1 RES1   0.0000
    10 N1       -1.8316    3.6024   -1.9559   N.am      1 RES1   0.0000
    11 C9       -2.8793    2.8965   -2.7119   C.3       1 RES1   0.0000
    12 C10      -2.3476    2.2488   -3.9910   C.3       1 RES1   0.0000
    13 C11      -1.8558    3.2549   -5.0296   C.3       1 RES1   0.0000
    14 C12      -2.9507    3.9859   -5.8070   C.3       1 RES1   0.0000
    15 C13      -3.6925    3.0731   -6.7871   C.3       1 RES1   0.0000
    16 C14      -4.4350    3.8669   -7.8640   C.3       1 RES1   0.0000
    17 C15      -5.5847    4.7045   -7.3058   C.3       1 RES1   0.0000
    18 C16      -6.3569    5.4006   -8.4179   C.3       1 RES1   0.0000
    19 C17      -0.9888    2.8304   -1.2626   C.2       1 RES1   0.0000
    20 O1       -1.1584    1.5879   -1.2932   O.2       1 RES1   0.0000
    21 C18       0.2067    3.2959   -0.4326   C.ar      1 RES1   0.0000
    22 C19       0.7002    4.5970   -0.2460   C.ar      1 RES1   0.0000
    23 C20       1.8696    4.7851    0.4612   C.ar      1 RES1   0.0000
    24 C21       2.5570    3.6991    1.0255   C.ar      1 RES1   0.0000
    25 C22       3.7841    3.8316    1.7407   C.ar      1 RES1   0.0000
    26 C23       4.4032    2.7496    2.2708   C.ar      1 RES1   0.0000
    27 C24       3.8476    1.4439    2.1236   C.ar      1 RES1   0.0000
    28 C25       4.4488    0.2778    2.6276   C.ar      1 RES1   0.0000
    29 C26       3.8850   -0.9641    2.4112   C.ar      1 RES1   0.0000
    30 C27       2.6673   -1.0524    1.7170   C.ar      1 RES1   0.0000
    31 C28       1.8094   -2.2602    1.3570   C.2       1 RES1   0.0000
    32 O2        0.9886   -2.0770    0.4325   O.2       1 RES1   0.0000
    33 N2        1.8091   -3.4135    2.0290   N.am      1 RES1   0.0000
    34 C29       0.6860   -4.3372    1.8159   C.3       1 RES1   0.0000
    35 C30       1.0124   -5.5441    0.9375   C.3       1 RES1   0.0000
    36 C31       1.2113   -5.1291   -0.5175   C.3       1 RES1   0.0000
    37 C32       2.0094   -6.1440   -1.3445   C.3       1 RES1   0.0000
    38 C33       2.8046   -5.4287   -2.4378   C.3       1 RES1   0.0000
    39 C34       3.9803   -4.6405   -1.8370   C.3       1 RES1   0.0000
    40 C35       5.3302   -5.3354   -2.0190   C.3       1 RES1   0.0000
    41 C36       6.4023   -4.7516   -1.1050   C.3       1 RES1   0.0000
    42 C37       2.8471   -3.8841    2.9317   C.3       1 RES1   0.0000
    43 C38       4.1044   -4.3642    2.1917   C.3       1 RES1   0.0000
    44 C39       5.0802   -5.1019    3.1088   C.3       1 RES1   0.0000
    45 C40       5.6269   -4.2439    4.2475   C.3       1 RES1   0.0000
    46 C41       6.6750   -4.9730    5.0946   C.3       1 RES1   0.0000
    47 C42       6.1730   -6.2074    5.8500   C.3       1 RES1   0.0000
    48 C43       5.4199   -5.9264    7.1533   C.3       1 RES1   0.0000
    49 C44       4.0024   -5.3893    6.9810   C.3       1 RES1   0.0000
    50 N3        2.0806    0.0571    1.2590   N.ar      1 RES1   0.0000
    51 C45       2.6307    1.2653    1.4232   C.ar      1 RES1   0.0000
    52 C46       1.9647    2.4256    0.8473   C.ar      1 RES1   0.0000
    53 N4        0.8389    2.2604    0.1335   N.ar      1 RES1   0.0000
    54 H1       -1.8644    6.8189    3.5776   H         1 RES1   0.0000
    55 H2       -2.9151    7.0522    2.2080   H         1 RES1   0.0000
    56 H3       -1.4753    6.0378    2.0528   H         1 RES1   0.0000
    57 H4       -3.9148    5.4528    3.8090   H         1 RES1   0.0000
    58 H5       -2.4234    4.5064    3.7940   H         1 RES1   0.0000
    59 H6       -3.8424    3.2178    2.5474   H         1 RES1   0.0000
    60 H7       -2.9401    4.0588    1.2884   H         1 RES1   0.0000
    61 H8       -5.6441    4.9898    2.3268   H         1 RES1   0.0000
    62 H9       -5.5088    3.7815    1.0576   H         1 RES1   0.0000
    63 H10      -4.4117    6.6197    0.8861   H         1 RES1   0.0000
    64 H11      -5.9126    6.0539    0.1923   H         1 RES1   0.0000
    65 H12      -4.6410    5.7171   -1.6744   H         1 RES1   0.0000
    66 H13      -4.2686    4.1953   -0.8720   H         1 RES1   0.0000
    67 H14      -2.1778    5.3207    0.0869   H         1 RES1   0.0000
    68 H15      -2.5843    6.7380   -0.8635   H         1 RES1   0.0000
    69 H16      -0.9301    5.5031   -2.1143   H         1 RES1   0.0000
    70 H17      -2.4583    5.3067   -2.9363   H         1 RES1   0.0000
    71 H18      -3.6577    3.6120   -2.9638   H         1 RES1   0.0000
    72 H19      -3.3176    2.1145   -2.0823   H         1 RES1   0.0000
    73 H20      -3.1458    1.6438   -4.4210   H         1 RES1   0.0000
    74 H21      -1.5285    1.5845   -3.7139   H         1 RES1   0.0000
    75 H22      -1.2473    2.7224   -5.7599   H         1 RES1   0.0000
    76 H23      -1.2091    3.9849   -4.5424   H         1 RES1   0.0000
    77 H24      -2.4769    4.7855   -6.3833   H         1 RES1   0.0000
    78 H25      -3.6654    4.4554   -5.1296   H         1 RES1   0.0000
    79 H26      -4.4067    2.4430   -6.2509   H         1 RES1   0.0000
    80 H27      -2.9692    2.4132   -7.2747   H         1 RES1   0.0000
    81 H28      -4.8327    3.1704   -8.6053   H         1 RES1   0.0000
    82 H29      -3.7293    4.5235   -8.3778   H         1 RES1   0.0000
    83 H30      -5.1943    5.4590   -6.6187   H         1 RES1   0.0000
    84 H31      -6.2622    4.0568   -6.7432   H         1 RES1   0.0000
    85 H32      -5.7054    6.0695   -8.9722   H         1 RES1   0.0000
    86 H33      -7.1756    5.9837   -8.0070   H         1 RES1   0.0000
    87 H34      -6.7679    4.6710   -9.1090   H         1 RES1   0.0000
    88 H35       0.2031    5.4589   -0.6488   H         1 RES1   0.0000
    89 H36       2.2723    5.7796    0.5689   H         1 RES1   0.0000
    90 H37       4.2129    4.8141    1.8492   H         1 RES1   0.0000
    91 H38       5.3317    2.8526    2.8055   H         1 RES1   0.0000
    92 H39       5.3731    0.3519    3.1803   H         1 RES1   0.0000
    93 H40       4.4075   -1.8309    2.7749   H         1 RES1   0.0000
    94 H41      -0.1280   -3.7699    1.3529   H         1 RES1   0.0000
    95 H42       0.3757   -4.6877    2.8042   H         1 RES1   0.0000
    96 H43       0.1956   -6.2607    1.0203   H         1 RES1   0.0000
    97 H44       1.9040   -6.0419    1.3155   H         1 RES1   0.0000
    98 H45       1.7370   -4.1737   -0.5323   H         1 RES1   0.0000
    99 H46       0.2386   -4.9503   -0.9804   H         1 RES1   0.0000
   100 H47       1.3426   -6.8787   -1.7953   H         1 RES1   0.0000
   101 H48       2.7057   -6.6922   -0.7057   H         1 RES1   0.0000
   102 H49       2.1319   -4.7543   -2.9765   H         1 RES1   0.0000
   103 H50       3.1743   -6.1590   -3.1589   H         1 RES1   0.0000
   104 H51       3.8149   -4.4944   -0.7681   H         1 RES1   0.0000
   105 H52       4.0188   -3.6451   -2.2763   H         1 RES1   0.0000
   106 H53       5.6475   -5.2451   -3.0589   H         1 RES1   0.0000
   107 H54       5.2179   -6.3977   -1.7989   H         1 RES1   0.0000
   108 H55       6.4986   -3.6764   -1.2460   H         1 RES1   0.0000
   109 H56       7.3638   -5.2100   -1.3156   H         1 RES1   0.0000
   110 H57       6.1605   -4.9386   -0.0610   H         1 RES1   0.0000
   111 H58       2.4287   -4.7159    3.5015   H         1 RES1   0.0000
   112 H59       3.0943   -3.0971    3.6465   H         1 RES1   0.0000
   113 H60       4.6160   -3.5281    1.7120   H         1 RES1   0.0000
   114 H61       3.8090   -5.0460    1.3965   H         1 RES1   0.0000
   115 H62       5.9169   -5.4558    2.5029   H         1 RES1   0.0000
   116 H63       4.5859   -5.9808    3.5211   H         1 RES1   0.0000
   117 H64       4.8104   -3.9261    4.8952   H         1 RES1   0.0000
   118 H65       6.0995   -3.3477    3.8306   H         1 RES1   0.0000
   119 H66       7.0900   -4.2616    5.8137   H         1 RES1   0.0000
   120 H67       7.4927   -5.2795    4.4388   H         1 RES1   0.0000
   121 H68       7.0479   -6.8087    6.1057   H         1 RES1   0.0000
   122 H69       5.5493   -6.8218    5.1984   H         1 RES1   0.0000
   123 H70       5.9977   -5.2323    7.7666   H         1 RES1   0.0000
   124 H71       5.3567   -6.8688    7.7004   H         1 RES1   0.0000
   125 H72       3.9969   -4.3446    6.6840   H         1 RES1   0.0000
   126 H73       3.4662   -5.4602    7.9231   H         1 RES1   0.0000
   127 H74       3.4615   -5.9688    6.2365   H         1 RES1   0.0000
   128 C47      -0.2370    2.5922   -9.0383   C.3       1 RES1   0.0000
   129 C48       0.7515    2.5556   -7.8799   C.3       1 RES1   0.0000
   130 C49       1.1858    3.9622   -7.4630   C.3       1 RES1   0.0000
   131 C50       2.2257    3.9753   -6.3383   C.3       1 RES1   0.0000
   132 C51       1.6078    3.7196   -4.9618   C.3       1 RES1   0.0000
   133 C52       2.6105    3.7629   -3.8103   C.3       1 RES1   0.0000
   134 C53       3.7054    2.6999   -3.8713   C.3       1 RES1   0.0000
   135 C54       3.3574    1.3500   -3.2359   C.3       1 RES1   0.0000
   136 N5        2.2439    0.5661   -3.7947   N.am      1 RES1   0.0000
   137 C55       2.3166    0.3143   -5.2249   C.3       1 RES1   0.0000
   138 C56       2.6596   -1.1378   -5.5971   C.3       1 RES1   0.0000
   139 C57       4.1639   -1.3926   -5.8188   C.3       1 RES1   0.0000
   140 C58       4.7914   -2.3341   -4.7871   C.3       1 RES1   0.0000
   141 C59       5.2702   -1.6712   -3.4942   C.3       1 RES1   0.0000
   142 C60       6.4674   -0.7380   -3.6808   C.3       1 RES1   0.0000
   143 C61       7.1741   -0.4200   -2.3607   C.3       1 RES1   0.0000
   144 C62       6.3580    0.4559   -1.4139   C.3       1 RES1   0.0000
   145 C63       1.3991    0.0145   -2.9165   C.2       1 RES1   0.0000
   146 O3        1.6086    0.1466   -1.6878   O.2       1 RES1   0.0000
   147 C64       0.0831   -0.6794   -3.2599   C.ar      1 RES1   0.0000
   148 C65      -0.5080   -0.8884   -4.5176   C.ar      1 RES1   0.0000
   149 C66      -1.8205   -1.3037   -4.5857   C.ar      1 RES1   0.0000
   150 C67      -2.5679   -1.5230   -3.4171   C.ar      1 RES1   0.0000
   151 C68      -3.9595   -1.8367   -3.4242   C.ar      1 RES1   0.0000
   152 C69      -4.6522   -1.9695   -2.2678   C.ar      1 RES1   0.0000
   153 C70      -4.0098   -1.8017   -1.0044   C.ar      1 RES1   0.0000
   154 C71      -4.6946   -1.8309    0.2216   C.ar      1 RES1   0.0000
   155 C72      -4.0347   -1.6112    1.4136   C.ar      1 RES1   0.0000
   156 C73      -2.6488   -1.3935    1.3951   C.ar      1 RES1   0.0000
   157 C74      -1.6727   -1.2186    2.5531   C.2       1 RES1   0.0000
   158 O4       -0.5808   -0.6936    2.2514   O.2       1 RES1   0.0000
   159 N6       -1.8574   -1.7000    3.7910   N.am      1 RES1   0.0000
   160 C75      -0.6431   -1.9930    4.5772   C.3       1 RES1   0.0000
   161 C76      -0.2677   -1.0008    5.6896   C.3       1 RES1   0.0000
   162 C77       1.0400   -0.2497    5.4406   C.3       1 RES1   0.0000
   163 C78       2.2785   -1.0316    5.8752   C.3       1 RES1   0.0000
   164 C79       3.5039   -0.1187    5.9337   C.3       1 RES1   0.0000
   165 C80       4.8023   -0.8512    6.2817   C.3       1 RES1   0.0000
   166 C81       4.8679   -1.3020    7.7432   C.3       1 RES1   0.0000
   167 C82       6.1536   -2.0653    8.0333   C.3       1 RES1   0.0000
   168 C83      -3.1388   -2.0381    4.4158   C.3       1 RES1   0.0000
   169 C84      -4.0421   -0.8234    4.7355   C.3       1 RES1   0.0000
   170 C85      -3.8234   -0.2405    6.1461   C.3       1 RES1   0.0000
   171 C86      -4.1242    1.2548    6.3436   C.3       1 RES1   0.0000
   172 C87      -3.6158    2.2164    5.2616   C.3       1 RES1   0.0000
   173 C88      -2.1990    1.9690    4.7318   C.3       1 RES1   0.0000
   174 C89      -1.0572    2.7529    5.3883   C.3       1 RES1   0.0000
   175 C90      -1.0835    2.7335    6.9103   C.3       1 RES1   0.0000
   176 N7       -1.9930   -1.3406    0.2279   N.ar      1 RES1   0.0000
   177 C91      -2.6212   -1.5255   -0.9449   C.ar      1 RES1   0.0000
   178 C92      -1.8783   -1.3696   -2.1906   C.ar      1 RES1   0.0000
   179 N8       -0.5977   -0.9747   -2.1468   N.ar      1 RES1   0.0000
   180 H75      -0.5572    1.5883   -9.3043   H         1 RES1   0.0000
   181 H76       0.2264    3.0428   -9.9087   H         1 RES1   0.0000
   182 H77      -1.1131    3.1786   -8.7783   H         1 RES1   0.0000
   183 H78       1.6305    1.9755   -8.1726   H         1 RES1   0.0000
   184 H79       0.2887    2.0408   -7.0299   H         1 RES1   0.0000
   185 H80       0.3101    4.5362   -7.1534   H         1 RES1   0.0000
   186 H81       1.6112    4.4568   -8.3372   H         1 RES1   0.0000
   187 H82       2.7145    4.9513   -6.3207   H         1 RES1   0.0000
   188 H83       2.9898    3.2326   -6.5706   H         1 RES1   0.0000
   189 H84       1.0801    2.7655   -4.9504   H         1 RES1   0.0000
   190 H85       0.8671    4.5037   -4.7865   H         1 RES1   0.0000
   191 H86       2.0704    3.6557   -2.8638   H         1 RES1   0.0000
   192 H87       3.0806    4.7472   -3.8142   H         1 RES1   0.0000
   193 H88       4.5566    3.0607   -3.2886   H         1 RES1   0.0000
   194 H89       4.0663    2.5934   -4.8934   H         1 RES1   0.0000
   195 H90       3.1209    1.5219   -2.1832   H         1 RES1   0.0000
   196 H91       4.2647    0.7459   -3.2826   H         1 RES1   0.0000
   197 H92       3.1021    0.9607   -5.6094   H         1 RES1   0.0000
   198 H93       1.3929    0.6348   -5.7092   H         1 RES1   0.0000
   199 H94       2.1296   -1.3830   -6.5183   H         1 RES1   0.0000
   200 H95       2.2835   -1.8109   -4.8236   H         1 RES1   0.0000
   201 H96       4.7161   -0.4530   -5.8304   H         1 RES1   0.0000
   202 H97       4.3094   -1.8383   -6.8034   H         1 RES1   0.0000
   203 H98       5.6510   -2.8331   -5.2387   H         1 RES1   0.0000
   204 H99       4.0639   -3.1095   -4.5319   H         1 RES1   0.0000
   205 H100      5.5971   -2.4685   -2.8270   H         1 RES1   0.0000
   206 H101      4.4397   -1.1624   -2.9972   H         1 RES1   0.0000
   207 H102      6.1859    0.1954   -4.1748   H         1 RES1   0.0000
   208 H103      7.1822   -1.2409   -4.3340   H         1 RES1   0.0000
   209 H104      8.1141    0.0869   -2.5835   H         1 RES1   0.0000
   210 H105      7.4219   -1.3544   -1.8537   H         1 RES1   0.0000
   211 H106      6.1383    1.4153   -1.8771   H         1 RES1   0.0000
   212 H107      6.9233    0.6427   -0.5040   H         1 RES1   0.0000
   213 H108      5.4187   -0.0208   -1.1353   H         1 RES1   0.0000
   214 H109      0.0269   -0.7089   -5.4316   H         1 RES1   0.0000
   215 H110     -2.2967   -1.4241   -5.5467   H         1 RES1   0.0000
   216 H111     -4.4531   -1.9514   -4.3742   H         1 RES1   0.0000
   217 H112     -5.7075   -2.1833   -2.2856   H         1 RES1   0.0000
   218 H113     -5.7582   -2.0119    0.2265   H         1 RES1   0.0000
   219 H114     -4.6042   -1.5776    2.3229   H         1 RES1   0.0000
   220 H115      0.1848   -2.0585    3.8678   H         1 RES1   0.0000
   221 H116     -0.7991   -2.9829    5.0043   H         1 RES1   0.0000
   222 H117     -0.1918   -1.5175    6.6465   H         1 RES1   0.0000
   223 H118     -1.0630   -0.2737    5.8079   H         1 RES1   0.0000
   224 H119      1.0150    0.6723    6.0241   H         1 RES1   0.0000
   225 H120      1.1172    0.0158    4.3809   H         1 RES1   0.0000
   226 H121      2.4666   -1.8636    5.1910   H         1 RES1   0.0000
   227 H122      2.1017   -1.4589    6.8631   H         1 RES1   0.0000
   228 H123      3.3234    0.6529    6.6839   H         1 RES1   0.0000
   229 H124      3.6132    0.3855    4.9654   H         1 RES1   0.0000
   230 H125      5.6451   -0.1818    6.0898   H         1 RES1   0.0000
   231 H126      4.9168   -1.7229    5.6313   H         1 RES1   0.0000
   232 H127      4.0151   -1.9446    7.9737   H         1 RES1   0.0000
   233 H128      4.8134   -0.4254    8.3923   H         1 RES1   0.0000
   234 H129      6.2169   -2.9530    7.4101   H         1 RES1   0.0000
   235 H130      6.1822   -2.3776    9.0725   H         1 RES1   0.0000
   236 H131      7.0225   -1.4425    7.8408   H         1 RES1   0.0000
   237 H132     -2.9196   -2.5564    5.3504   H         1 RES1   0.0000
   238 H133     -3.6833   -2.7325    3.7690   H         1 RES1   0.0000
   239 H134     -5.0772   -1.1628    4.6648   H         1 RES1   0.0000
   240 H135     -3.9027   -0.0572    3.9734   H         1 RES1   0.0000
   241 H136     -2.7986   -0.4069    6.4628   H         1 RES1   0.0000
   242 H137     -4.4454   -0.7843    6.8580   H         1 RES1   0.0000
   243 H138     -3.7113    1.5326    7.3170   H         1 RES1   0.0000
   244 H139     -5.2008    1.4091    6.4148   H         1 RES1   0.0000
   245 H140     -3.6801    3.2310    5.6519   H         1 RES1   0.0000
   246 H141     -4.3065    2.1630    4.4140   H         1 RES1   0.0000
   247 H142     -2.2037    2.2288    3.6713   H         1 RES1   0.0000
   248 H143     -1.9775    0.9088    4.7796   H         1 RES1   0.0000
   249 H144     -1.0925    3.7937    5.0638   H         1 RES1   0.0000
   250 H145     -0.1135    2.3420    5.0147   H         1 RES1   0.0000
   251 H146     -1.9325    3.3013    7.2826   H         1 RES1   0.0000
   252 H147     -0.1827    3.1971    7.3088   H         1 RES1   0.0000
   253 H148     -1.1562    1.7165    7.2843   H         1 RES1   0.0000
   254 O5       -1.6005    1.7203    1.3887   O.3       1 RES1   0.0000
   255 H149     -2.5164    2.0100    1.2718   H         1 RES1   0.0000
   256 H150     -1.2948    2.1696    2.1957   H         1 RES1   0.0000
@<TRIPOS>BOND
     1     1    20    1
     2     1    32    1
     3     1    50    1
     4     1    53    1
     5     1   146    1
     6     1   158    1
     7     1   176    1
     8     1   179    1
     9     1   254    1
    10     2     3    1
    11     2    54    1
    12     2    55    1
    13     2    56    1
    14     3     4    1
    15     3    57    1
    16     3    58    1
    17     4     5    1
    18     4    59    1
    19     4    60    1
    20     5     6    1
    21     5    61    1
    22     5    62    1
    23     6     7    1
    24     6    63    1
    25     6    64    1
    26     7     8    1
    27     7    65    1
    28     7    66    1
    29     8     9    1
    30     8    67    1
    31     8    68    1
    32     9    10    1
    33     9    69    1
    34     9    70    1
    35    10    11    1
    36    10    19    1
    37    11    12    1
    38    11    71    1
    39    11    72    1
    40    12    13    1
    41    12    73    1
    42    12    74    1
    43    13    14    1
    44    13    75    1
    45    13    76    1
    46    14    15    1
    47    14    77    1
    48    14    78    1
    49    15    16    1
    50    15    79    1
    51    15    80    1
    52    16    17    1
    53    16    81    1
    54    16    82    1
    55    17    18    1
    56    17    83    1
    57    17    84    1
    58    18    85    1
    59    18    86    1
    60    18    87    1
    61    19    20    2
    62    19    21    1
    63    21    22    1
    64    21    53    2
    65    22    23    2
    66    22    88    1
    67    23    24    1
    68    23    89    1
    69    24    25    1
    70    24    52    2
    71    25    26    2
    72    25    90    1
    73    26    27    1
    74    26    91    1
    75    27    28    1
    76    27    51    2
    77    28    29    2
    78    28    92    1
    79    29    30    1
    80    29    93    1
    81    30    31    1
    82    30    50    2
    83    31    32    2
    84    31    33    1
    85    33    34    1
    86    33    42    1
    87    34    35    1
    88    34    94    1
    89    34    95    1
    90    35    36    1
    91    35    96    1
    92    35    97    1
    93    36    37    1
    94    36    98    1
    95    36    99    1
    96    37    38    1
    97    37   100    1
    98    37   101    1
    99    38    39    1
   100    38   102    1
   101    38   103    1
   102    39    40    1
   103    39   104    1
   104    39   105    1
   105    40    41    1
   106    40   106    1
   107    40   107    1
   108    41   108    1
   109    41   109    1
   110    41   110    1
   111    42    43    1
   112    42   111    1
   113    42   112    1
   114    43    44    1
   115    43   113    1
   116    43   114    1
   117    44    45    1
   118    44   115    1
   119    44   116    1
   120    45    46    1
   121    45   117    1
   122    45   118    1
   123    46    47    1
   124    46   119    1
   125    46   120    1
   126    47    48    1
   127    47   121    1
   128    47   122    1
   129    48    49    1
   130    48   123    1
   131    48   124    1
   132    49   125    1
   133    49   126    1
   134    49   127    1
   135    50    51    1
   136    51    52    1
   137    52    53    1
   138   128   129    1
   139   128   180    1
   140   128   181    1
   141   128   182    1
   142   129   130    1
   143   129   183    1
   144   129   184    1
   145   130   131    1
   146   130   185    1
   147   130   186    1
   148   131   132    1
   149   131   187    1
   150   131   188    1
   151   132   133    1
   152   132   189    1
   153   132   190    1
   154   133   134    1
   155   133   191    1
   156   133   192    1
   157   134   135    1
   158   134   193    1
   159   134   194    1
   160   135   136    1
   161   135   195    1
   162   135   196    1
   163   136   137    1
   164   136   145    1
   165   137   138    1
   166   137   197    1
   167   137   198    1
   168   138   139    1
   169   138   199    1
   170   138   200    1
   171   139   140    1
   172   139   201    1
   173   139   202    1
   174   140   141    1
   175   140   203    1
   176   140   204    1
   177   141   142    1
   178   141   205    1
   179   141   206    1
   180   142   143    1
   181   142   207    1
   182   142   208    1
   183   143   144    1
   184   143   209    1
   185   143   210    1
   186   144   211    1
   187   144   212    1
   188   144   213    1
   189   145   146    2
   190   145   147    1
   191   147   148    1
   192   147   179    2
   193   148   149    2
   194   148   214    1
   195   149   150    1
   196   149   215    1
   197   150   151    1
   198   150   178    2
   199   151   152    2
   200   151   216    1
   201   152   153    1
   202   152   217    1
   203   153   154    1
   204   153   177    2
   205   154   155    2
   206   154   218    1
   207   155   156    1
   208   155   219    1
   209   156   157    1
   210   156   176    2
   211   157   158    2
   212   157   159    1
   213   159   160    1
   214   159   168    1
   215   160   161    1
   216   160   220    1
   217   160   221    1
   218   161   162    1
   219   161   222    1
   220   161   223    1
   221   162   163    1
   222   162   224    1
   223   162   225    1
   224   163   164    1
   225   163   226    1
   226   163   227    1
   227   164   165    1
   228   164   228    1
   229   164   229    1
   230   165   166    1
   231   165   230    1
   232   165   231    1
   233   166   167    1
   234   166   232    1
   235   166   233    1
   236   167   234    1
   237   167   235    1
   238   167   236    1
   239   168   169    1
   240   168   237    1
   241   168   238    1
   242   169   170    1
   243   169   239    1
   244   169   240    1
   245   170   171    1
   246   170   241    1
   247   170   242    1
   248   171   172    1
   249   171   243    1
   250   171   244    1
   251   172   173    1
   252   172   245    1
   253   172   246    1
   254   173   174    1
   255   173   247    1
   256   173   248    1
   257   174   175    1
   258   174   249    1
   259   174   250    1
   260   175   251    1
   261   175   252    1
   262   175   253    1
   263   176   177    1
   264   177   178    1
   265   178   179    1
   266   254   255    1
   267   254   256    1
@<TRIPOS>SUBSTRUCTURE
     1 RES1      256 GROUP             0 ****  ****    0  
