@<TRIPOS>MOLECULE
tri_tri_mer_capped_0_nunpairedes_0_charge_3 Charge: 3 Unpaired_Electrons: 1 XTB_Unpaired_Electrons: 0 XTB_Charge: 3
   412   417     1     0     0
SMALL
NoCharges
****
Generated from Architector

@<TRIPOS>ATOM
     1 Ce1       0.2378    0.2013    0.2336   Ce        1 RES1   0.0000
     2 C1        5.4745   -0.9489    8.0108   C.3       1 RES1   0.0000
     3 C2        6.5783   -1.7448    7.3307   C.3       1 RES1   0.0000
     4 C3        6.1390   -2.3608    6.0044   C.3       1 RES1   0.0000
     5 C4        5.0897   -3.4603    6.1709   C.3       1 RES1   0.0000
     6 C5        4.8543   -4.2224    4.8658   C.3       1 RES1   0.0000
     7 C6        3.6954   -5.2340    4.9352   C.3       1 RES1   0.0000
     8 C7        2.5145   -4.9369    4.0019   C.3       1 RES1   0.0000
     9 C8        1.5840   -3.8443    4.5543   C.3       1 RES1   0.0000
    10 N1        0.6522   -3.2864    3.5768   N.am      1 RES1   0.0000
    11 C9       -0.6720   -3.8726    3.4691   C.3       1 RES1   0.0000
    12 C10      -0.7159   -5.0124    2.4484   C.3       1 RES1   0.0000
    13 C11      -1.9435   -5.8926    2.6621   C.3       1 RES1   0.0000
    14 C12      -3.2679   -5.1684    2.3793   C.3       1 RES1   0.0000
    15 C13      -4.3480   -5.4983    3.4223   C.3       1 RES1   0.0000
    16 C14      -5.7426   -5.2344    2.8566   C.3       1 RES1   0.0000
    17 C15      -4.0959   -4.7076    4.7122   C.3       1 RES1   0.0000
    18 C16      -4.8260   -5.2751    5.9365   C.3       1 RES1   0.0000
    19 C17      -3.8712   -5.6644    7.0690   C.3       1 RES1   0.0000
    20 C18      -3.0043   -6.8967    6.7614   C.3       1 RES1   0.0000
    21 C19      -3.8096   -8.1832    6.9387   C.3       1 RES1   0.0000
    22 C20      -1.7630   -6.9332    7.6589   C.3       1 RES1   0.0000
    23 C21       0.9755   -2.3122    2.7359   C.2       1 RES1   0.0000
    24 O1        0.2359   -1.8767    1.8319   O.2       1 RES1   0.0000
    25 C22       2.3498   -1.7019    2.9591   C.3       1 RES1   0.0000
    26 O2        2.6219   -0.7926    1.9204   O.3       1 RES1   0.0000
    27 C23       3.1800    0.4239    2.3402   C.3       1 RES1   0.0000
    28 C24       2.1193    1.5061    2.1807   C.2       1 RES1   0.0000
    29 O3        0.9228    1.1436    2.0925   O.2       1 RES1   0.0000
    30 N2        2.4245    2.7857    2.2771   N.am      1 RES1   0.0000
    31 C25       1.3123    3.6767    2.6125   C.3       1 RES1   0.0000
    32 C26       0.3977    4.2464    1.5151   C.3       1 RES1   0.0000
    33 C27      -0.7272    3.4199    0.8634   C.3       1 RES1   0.0000
    34 C28      -1.7336    4.3886    0.1891   C.3       1 RES1   0.0000
    35 C29      -1.5070    4.7714   -1.2903   C.3       1 RES1   0.0000
    36 C30      -2.5309    4.0988   -2.2278   C.3       1 RES1   0.0000
    37 C31      -3.3423    4.9984   -3.1721   C.3       1 RES1   0.0000
    38 C32      -2.5487    5.5053   -4.3668   C.3       1 RES1   0.0000
    39 C33       3.8169    3.2303    2.3144   C.3       1 RES1   0.0000
    40 C34       4.6575    2.6757    1.1405   C.3       1 RES1   0.0000
    41 C35       5.4311    3.7310    0.3414   C.3       1 RES1   0.0000
    42 C36       6.8601    3.9841    0.8245   C.3       1 RES1   0.0000
    43 C37       7.2421    5.4676    0.7195   C.3       1 RES1   0.0000
    44 C38       7.0786    5.9758   -0.7125   C.3       1 RES1   0.0000
    45 C39       6.4612    6.3411    1.7103   C.3       1 RES1   0.0000
    46 C40       6.9261    6.1491    3.1514   C.3       1 RES1   0.0000
    47 C41       5.9628    6.7830    4.1547   C.3       1 RES1   0.0000
    48 C42       6.3999    6.6157    5.6192   C.3       1 RES1   0.0000
    49 C43       6.2505    5.1671    6.0889   C.3       1 RES1   0.0000
    50 C44       5.5828    7.5312    6.5345   C.3       1 RES1   0.0000
    51 H1        5.8429   -0.4980    8.9267   H         1 RES1   0.0000
    52 H2        4.6324   -1.5837    8.2683   H         1 RES1   0.0000
    53 H3        5.1188   -0.1521    7.3611   H         1 RES1   0.0000
    54 H4        6.9183   -2.5315    8.0019   H         1 RES1   0.0000
    55 H5        7.4273   -1.0862    7.1495   H         1 RES1   0.0000
    56 H6        7.0107   -2.7879    5.5073   H         1 RES1   0.0000
    57 H7        5.7460   -1.5729    5.3538   H         1 RES1   0.0000
    58 H8        4.1478   -3.0270    6.5123   H         1 RES1   0.0000
    59 H9        5.4281   -4.1573    6.9381   H         1 RES1   0.0000
    60 H10       5.7780   -4.7437    4.6088   H         1 RES1   0.0000
    61 H11       4.6809   -3.4948    4.0683   H         1 RES1   0.0000
    62 H12       3.3287   -5.3022    5.9592   H         1 RES1   0.0000
    63 H13       4.0846   -6.2177    4.6744   H         1 RES1   0.0000
    64 H14       2.8940   -4.6502    3.0201   H         1 RES1   0.0000
    65 H15       1.9496   -5.8603    3.8795   H         1 RES1   0.0000
    66 H16       2.1818   -3.0459    4.9939   H         1 RES1   0.0000
    67 H17       0.9879   -4.2696    5.3605   H         1 RES1   0.0000
    68 H18      -1.3556   -3.0738    3.1686   H         1 RES1   0.0000
    69 H19      -0.9691   -4.2293    4.4566   H         1 RES1   0.0000
    70 H20       0.1737   -5.6325    2.5602   H         1 RES1   0.0000
    71 H21      -0.7134   -4.5824    1.4440   H         1 RES1   0.0000
    72 H22      -1.9310   -6.2376    3.6988   H         1 RES1   0.0000
    73 H23      -1.8662   -6.7754    2.0249   H         1 RES1   0.0000
    74 H24      -3.6327   -5.4438    1.3876   H         1 RES1   0.0000
    75 H25      -3.1139   -4.0864    2.3802   H         1 RES1   0.0000
    76 H26      -4.2798   -6.5651    3.6548   H         1 RES1   0.0000
    77 H27      -5.8455   -4.2005    2.5299   H         1 RES1   0.0000
    78 H28      -6.5106   -5.4324    3.5999   H         1 RES1   0.0000
    79 H29      -5.9278   -5.8840    2.0033   H         1 RES1   0.0000
    80 H30      -4.3743   -3.6637    4.5553   H         1 RES1   0.0000
    81 H31      -3.0270   -4.7202    4.9210   H         1 RES1   0.0000
    82 H32      -5.3976   -6.1533    5.6435   H         1 RES1   0.0000
    83 H33      -5.5369   -4.5451    6.3222   H         1 RES1   0.0000
    84 H34      -4.4515   -5.8769    7.9687   H         1 RES1   0.0000
    85 H35      -3.2204   -4.8151    7.2979   H         1 RES1   0.0000
    86 H36      -2.6650   -6.8488    5.7179   H         1 RES1   0.0000
    87 H37      -4.1374   -8.2887    7.9710   H         1 RES1   0.0000
    88 H38      -3.2060   -9.0525    6.6817   H         1 RES1   0.0000
    89 H39      -4.6929   -8.1726    6.3038   H         1 RES1   0.0000
    90 H40      -2.0508   -6.9697    8.7077   H         1 RES1   0.0000
    91 H41      -1.1414   -6.0486    7.5077   H         1 RES1   0.0000
    92 H42      -1.1656   -7.8192    7.4438   H         1 RES1   0.0000
    93 H43       3.1278   -2.4751    2.9854   H         1 RES1   0.0000
    94 H44       2.3371   -1.1935    3.9314   H         1 RES1   0.0000
    95 H45       4.0824    0.5799    1.7570   H         1 RES1   0.0000
    96 H46       3.4571    0.4000    3.4040   H         1 RES1   0.0000
    97 H47       1.7782    4.5239    3.1178   H         1 RES1   0.0000
    98 H48       0.6911    3.1429    3.3336   H         1 RES1   0.0000
    99 H49       1.0023    4.6494    0.7210   H         1 RES1   0.0000
   100 H50      -0.1007    5.0837    2.0082   H         1 RES1   0.0000
   101 H51      -1.2405    2.8462    1.6416   H         1 RES1   0.0000
   102 H52      -0.3162    2.6902    0.1202   H         1 RES1   0.0000
   103 H53      -1.7515    5.3040    0.7798   H         1 RES1   0.0000
   104 H54      -2.7299    3.9576    0.2742   H         1 RES1   0.0000
   105 H55      -0.5002    4.4884   -1.6004   H         1 RES1   0.0000
   106 H56      -1.5910    5.8558   -1.3924   H         1 RES1   0.0000
   107 H57      -3.2692    3.5924   -1.6010   H         1 RES1   0.0000
   108 H58      -2.0204    3.3485   -2.8403   H         1 RES1   0.0000
   109 H59      -3.7680    5.8437   -2.6298   H         1 RES1   0.0000
   110 H60      -4.1844    4.4039   -3.5408   H         1 RES1   0.0000
   111 H61      -1.7682    6.1866   -4.0442   H         1 RES1   0.0000
   112 H62      -3.2043    6.0197   -5.0658   H         1 RES1   0.0000
   113 H63      -2.0801    4.6757   -4.8912   H         1 RES1   0.0000
   114 H64       4.2492    2.9292    3.2762   H         1 RES1   0.0000
   115 H65       3.8256    4.3197    2.2722   H         1 RES1   0.0000
   116 H66       3.9696    2.1649    0.4613   H         1 RES1   0.0000
   117 H67       5.3980    1.9691    1.5164   H         1 RES1   0.0000
   118 H68       4.8960    4.6700    0.4015   H         1 RES1   0.0000
   119 H69       5.4580    3.4243   -0.7041   H         1 RES1   0.0000
   120 H70       7.5640    3.3822    0.2478   H         1 RES1   0.0000
   121 H71       6.9567    3.6612    1.8578   H         1 RES1   0.0000
   122 H72       8.2979    5.5537    0.9855   H         1 RES1   0.0000
   123 H73       6.0331    6.1117   -0.9815   H         1 RES1   0.0000
   124 H74       7.5260    5.2879   -1.4242   H         1 RES1   0.0000
   125 H75       7.5752    6.9333   -0.8237   H         1 RES1   0.0000
   126 H76       5.3890    6.1337    1.6561   H         1 RES1   0.0000
   127 H77       6.5902    7.3896    1.4434   H         1 RES1   0.0000
   128 H78       7.9166    6.5866    3.2752   H         1 RES1   0.0000
   129 H79       7.0145    5.0867    3.3696   H         1 RES1   0.0000
   130 H80       4.9676    6.3385    4.0378   H         1 RES1   0.0000
   131 H81       5.8748    7.8484    3.9289   H         1 RES1   0.0000
   132 H82       7.4553    6.9002    5.6943   H         1 RES1   0.0000
   133 H83       5.2046    4.8589    6.0346   H         1 RES1   0.0000
   134 H84       6.5818    5.0831    7.1212   H         1 RES1   0.0000
   135 H85       6.8522    4.4888    5.4862   H         1 RES1   0.0000
   136 H86       4.5249    7.2685    6.4917   H         1 RES1   0.0000
   137 H87       5.6966    8.5721    6.2397   H         1 RES1   0.0000
   138 H88       5.9239    7.4312    7.5631   H         1 RES1   0.0000
   139 C45       1.7267   -3.5208   -8.9773   C.3       1 RES1   0.0000
   140 C46       0.3943   -4.2568   -9.0151   C.3       1 RES1   0.0000
   141 C47      -0.6024   -3.7849   -7.9595   C.3       1 RES1   0.0000
   142 C48      -0.1484   -4.0514   -6.5235   C.3       1 RES1   0.0000
   143 C49      -1.3334   -4.0476   -5.5635   C.3       1 RES1   0.0000
   144 C50      -0.9856   -4.4194   -4.1240   C.3       1 RES1   0.0000
   145 C51      -0.3251   -3.2925   -3.3247   C.3       1 RES1   0.0000
   146 C52       1.2095   -3.1419   -3.4334   C.3       1 RES1   0.0000
   147 N3        1.6981   -2.7148   -2.1324   N.am      1 RES1   0.0000
   148 C53       1.8843   -3.7409   -1.0774   C.3       1 RES1   0.0000
   149 C54       1.1503   -5.0756   -1.2417   C.3       1 RES1   0.0000
   150 C55       2.0392   -6.2901   -0.9612   C.3       1 RES1   0.0000
   151 C56       2.4289   -6.5365    0.5019   C.3       1 RES1   0.0000
   152 C57       3.8694   -7.0787    0.5881   C.3       1 RES1   0.0000
   153 C58       4.0950   -7.9432    1.8288   C.3       1 RES1   0.0000
   154 C59       4.8755   -5.9177    0.5230   C.3       1 RES1   0.0000
   155 C60       6.2576   -6.2707   -0.0500   C.3       1 RES1   0.0000
   156 C61       6.4098   -5.9816   -1.5503   C.3       1 RES1   0.0000
   157 C62       5.7910   -6.9873   -2.5323   C.3       1 RES1   0.0000
   158 C63       6.4381   -8.3623   -2.3905   C.3       1 RES1   0.0000
   159 C64       5.9809   -6.4853   -3.9670   C.3       1 RES1   0.0000
   160 C65       1.8176   -1.4498   -1.7415   C.2       1 RES1   0.0000
   161 O4        1.8218   -1.1425   -0.5298   O.2       1 RES1   0.0000
   162 C66       2.1254   -0.2849   -2.6928   C.3       1 RES1   0.0000
   163 O5        1.6982    0.8998   -2.0162   O.3       1 RES1   0.0000
   164 C67       1.9855    2.1255   -2.6902   C.3       1 RES1   0.0000
   165 C68       2.0348    3.2044   -1.5973   C.2       1 RES1   0.0000
   166 O6        1.8310    2.7859   -0.4485   O.2       1 RES1   0.0000
   167 N4        2.2873    4.4827   -1.9194   N.am      1 RES1   0.0000
   168 C69       2.7152    5.4132   -0.8566   C.3       1 RES1   0.0000
   169 C70       1.7916    6.5461   -0.3606   C.3       1 RES1   0.0000
   170 C71       2.1846    6.9936    1.0548   C.3       1 RES1   0.0000
   171 C72       1.2320    8.0406    1.6639   C.3       1 RES1   0.0000
   172 C73       0.4854    7.6636    2.9570   C.3       1 RES1   0.0000
   173 C74       1.3413    7.0891    4.0912   C.3       1 RES1   0.0000
   174 C75       0.7449    7.3082    5.4877   C.3       1 RES1   0.0000
   175 C76      -0.5290    6.5217    5.7794   C.3       1 RES1   0.0000
   176 C77       2.4904    4.8906   -3.3114   C.3       1 RES1   0.0000
   177 C78       1.3512    5.6786   -3.9818   C.3       1 RES1   0.0000
   178 C79       1.1773    7.0665   -3.3722   C.3       1 RES1   0.0000
   179 C80       0.5697    8.1531   -4.2529   C.3       1 RES1   0.0000
   180 C81       0.6422    9.5363   -3.5663   C.3       1 RES1   0.0000
   181 C82      -0.1762    9.5495   -2.2631   C.3       1 RES1   0.0000
   182 C83       2.0742   10.0232   -3.2804   C.3       1 RES1   0.0000
   183 C84       2.9693   10.0965   -4.5298   C.3       1 RES1   0.0000
   184 C85       4.3308    9.4108   -4.3615   C.3       1 RES1   0.0000
   185 C86       4.9195    8.9417   -5.7015   C.3       1 RES1   0.0000
   186 C87       4.2658    7.6379   -6.1668   C.3       1 RES1   0.0000
   187 C88       6.4335    8.7477   -5.5974   C.3       1 RES1   0.0000
   188 H89       2.3736   -3.8849   -9.7711   H         1 RES1   0.0000
   189 H90       2.2361   -3.6738   -8.0289   H         1 RES1   0.0000
   190 H91       1.5814   -2.4525   -9.1241   H         1 RES1   0.0000
   191 H92       0.5691   -5.3261   -8.8923   H         1 RES1   0.0000
   192 H93      -0.0564   -4.1149   -9.9971   H         1 RES1   0.0000
   193 H94      -1.5422   -4.3129   -8.1258   H         1 RES1   0.0000
   194 H95      -0.7995   -2.7199   -8.0994   H         1 RES1   0.0000
   195 H96       0.5817   -3.3053   -6.2090   H         1 RES1   0.0000
   196 H97       0.3345   -5.0283   -6.4811   H         1 RES1   0.0000
   197 H98      -2.0693   -4.7630   -5.9302   H         1 RES1   0.0000
   198 H99      -1.8144   -3.0675   -5.5692   H         1 RES1   0.0000
   199 H100     -0.3700   -5.3175   -4.1291   H         1 RES1   0.0000
   200 H101     -1.9125   -4.6779   -3.6069   H         1 RES1   0.0000
   201 H102     -0.5629   -3.4332   -2.2688   H         1 RES1   0.0000
   202 H103     -0.8098   -2.3613   -3.6100   H         1 RES1   0.0000
   203 H104      1.4953   -2.4228   -4.2016   H         1 RES1   0.0000
   204 H105      1.6960   -4.0842   -3.6889   H         1 RES1   0.0000
   205 H106      1.6108   -3.2642   -0.1335   H         1 RES1   0.0000
   206 H107      2.9620   -3.9300   -1.0465   H         1 RES1   0.0000
   207 H108      0.8072   -5.1962   -2.2622   H         1 RES1   0.0000
   208 H109      0.2766   -5.1043   -0.5917   H         1 RES1   0.0000
   209 H110      2.9464   -6.1796   -1.5561   H         1 RES1   0.0000
   210 H111      1.5111   -7.1683   -1.3335   H         1 RES1   0.0000
   211 H112      1.7446   -7.2615    0.9463   H         1 RES1   0.0000
   212 H113      2.3474   -5.6076    1.0709   H         1 RES1   0.0000
   213 H114      4.0287   -7.7222   -0.2804   H         1 RES1   0.0000
   214 H115      3.8105   -7.4275    2.7438   H         1 RES1   0.0000
   215 H116      5.1426   -8.2238    1.9136   H         1 RES1   0.0000
   216 H117      3.5179   -8.8617    1.7573   H         1 RES1   0.0000
   217 H118      5.0000   -5.5085    1.5299   H         1 RES1   0.0000
   218 H119      4.4608   -5.1154   -0.0936   H         1 RES1   0.0000
   219 H120      6.4989   -7.3126    0.1551   H         1 RES1   0.0000
   220 H121      7.0091   -5.6655    0.4663   H         1 RES1   0.0000
   221 H122      7.4781   -5.9363   -1.7728   H         1 RES1   0.0000
   222 H123      5.9936   -4.9883   -1.7513   H         1 RES1   0.0000
   223 H124      4.7139   -7.0836   -2.3445   H         1 RES1   0.0000
   224 H125      7.5195   -8.2798   -2.4746   H         1 RES1   0.0000
   225 H126      6.0857   -9.0287   -3.1743   H         1 RES1   0.0000
   226 H127      6.2036   -8.8125   -1.4294   H         1 RES1   0.0000
   227 H128      7.0404   -6.4213   -4.2061   H         1 RES1   0.0000
   228 H129      5.5401   -5.4981   -4.1060   H         1 RES1   0.0000
   229 H130      5.5177   -7.1700   -4.6747   H         1 RES1   0.0000
   230 H131      1.6555   -0.3766   -3.6701   H         1 RES1   0.0000
   231 H132      3.2235   -0.2807   -2.8117   H         1 RES1   0.0000
   232 H133      1.1951    2.3516   -3.4215   H         1 RES1   0.0000
   233 H134      2.9731    2.0723   -3.1757   H         1 RES1   0.0000
   234 H135      3.6562    5.8579   -1.1940   H         1 RES1   0.0000
   235 H136      2.9394    4.7680   -0.0084   H         1 RES1   0.0000
   236 H137      0.7526    6.2239   -0.3781   H         1 RES1   0.0000
   237 H138      1.8910    7.4129   -1.0030   H         1 RES1   0.0000
   238 H139      3.1881    7.4138    1.0095   H         1 RES1   0.0000
   239 H140      2.2273    6.1353    1.7129   H         1 RES1   0.0000
   240 H141      0.4754    8.2937    0.9229   H         1 RES1   0.0000
   241 H142      1.7950    8.9447    1.8821   H         1 RES1   0.0000
   242 H143     -0.3359    6.9754    2.7488   H         1 RES1   0.0000
   243 H144      0.0219    8.5767    3.3368   H         1 RES1   0.0000
   244 H145      2.3289    7.5519    4.0599   H         1 RES1   0.0000
   245 H146      1.4800    6.0123    3.9719   H         1 RES1   0.0000
   246 H147      0.5471    8.3678    5.6396   H         1 RES1   0.0000
   247 H148      1.4931    7.0204    6.2270   H         1 RES1   0.0000
   248 H149     -1.3391    6.8206    5.1216   H         1 RES1   0.0000
   249 H150     -0.8433    6.7072    6.8035   H         1 RES1   0.0000
   250 H151     -0.3706    5.4502    5.6694   H         1 RES1   0.0000
   251 H152      2.6493    4.0013   -3.9139   H         1 RES1   0.0000
   252 H153      3.3999    5.4925   -3.3836   H         1 RES1   0.0000
   253 H154      0.4279    5.0944   -3.9534   H         1 RES1   0.0000
   254 H155      1.6510    5.7889   -5.0260   H         1 RES1   0.0000
   255 H156      2.1744    7.4089   -3.0976   H         1 RES1   0.0000
   256 H157      0.5584    6.9839   -2.4871   H         1 RES1   0.0000
   257 H158     -0.4833    7.9456   -4.4534   H         1 RES1   0.0000
   258 H159      1.0881    8.1670   -5.2131   H         1 RES1   0.0000
   259 H160      0.1809   10.2533   -4.2567   H         1 RES1   0.0000
   260 H161      0.3467    9.0509   -1.4454   H         1 RES1   0.0000
   261 H162     -1.1358    9.0514   -2.4059   H         1 RES1   0.0000
   262 H163     -0.3606   10.5731   -1.9404   H         1 RES1   0.0000
   263 H164      2.5453    9.3853   -2.5260   H         1 RES1   0.0000
   264 H165      1.9954   11.0115   -2.8259   H         1 RES1   0.0000
   265 H166      3.1345   11.1358   -4.8106   H         1 RES1   0.0000
   266 H167      2.4600    9.6424   -5.3783   H         1 RES1   0.0000
   267 H168      4.2343    8.5427   -3.7038   H         1 RES1   0.0000
   268 H169      5.0311   10.0993   -3.8860   H         1 RES1   0.0000
   269 H170      4.7163    9.7205   -6.4451   H         1 RES1   0.0000
   270 H171      4.6196    6.7982   -5.5674   H         1 RES1   0.0000
   271 H172      4.5291    7.4419   -7.2021   H         1 RES1   0.0000
   272 H173      3.1809    7.6900   -6.0982   H         1 RES1   0.0000
   273 H174      6.6820    8.0292   -4.8165   H         1 RES1   0.0000
   274 H175      6.9220    9.6892   -5.3598   H         1 RES1   0.0000
   275 H176      6.8429    8.3747   -6.5342   H         1 RES1   0.0000
   276 C89      -8.6624    3.4241    0.6359   C.3       1 RES1   0.0000
   277 C90      -8.6061    4.9442    0.5523   C.3       1 RES1   0.0000
   278 C91      -7.1890    5.4923    0.7174   C.3       1 RES1   0.0000
   279 C92      -6.6596    5.2117    2.1212   C.3       1 RES1   0.0000
   280 C93      -5.1994    5.5941    2.3510   C.3       1 RES1   0.0000
   281 C94      -4.6726    4.9337    3.6299   C.3       1 RES1   0.0000
   282 C95      -3.7733    3.7244    3.3679   C.3       1 RES1   0.0000
   283 C96      -4.3931    2.5219    2.6330   C.3       1 RES1   0.0000
   284 N5       -3.4118    1.4397    2.5321   N.am      1 RES1   0.0000
   285 C97      -2.8658    0.9903    3.8113   C.3       1 RES1   0.0000
   286 C98      -1.4917    1.5994    4.1016   C.3       1 RES1   0.0000
   287 C99      -1.1864    1.7529    5.5974   C.3       1 RES1   0.0000
   288 C100     -0.1865    0.7273    6.1519   C.3       1 RES1   0.0000
   289 C101     -0.8091   -0.1866    7.2169   C.3       1 RES1   0.0000
   290 C102      0.2899   -0.8008    8.0800   C.3       1 RES1   0.0000
   291 C103     -1.6843   -1.2893    6.5957   C.3       1 RES1   0.0000
   292 C104     -2.9018   -1.6844    7.4423   C.3       1 RES1   0.0000
   293 C105     -4.1398   -0.7910    7.2604   C.3       1 RES1   0.0000
   294 C106     -4.3248    0.3442    8.2811   C.3       1 RES1   0.0000
   295 C107     -4.7885   -0.2109    9.6267   C.3       1 RES1   0.0000
   296 C108     -5.3511    1.3725    7.7938   C.3       1 RES1   0.0000
   297 C109     -2.8736    0.9121    1.4405   C.2       1 RES1   0.0000
   298 O7       -1.8826    0.1499    1.4837   O.2       1 RES1   0.0000
   299 C110     -3.4650    1.1615    0.0502   C.3       1 RES1   0.0000
   300 O8       -2.4029    0.8965   -0.8602   O.3       1 RES1   0.0000
   301 C111     -2.8315    0.8046   -2.2138   C.3       1 RES1   0.0000
   302 C112     -1.5823    0.4403   -3.0244   C.2       1 RES1   0.0000
   303 O9       -0.6513   -0.0746   -2.3740   O.2       1 RES1   0.0000
   304 N6       -1.5543    0.6331   -4.3472   N.am      1 RES1   0.0000
   305 C113     -0.5361   -0.0458   -5.1612   C.3       1 RES1   0.0000
   306 C114      0.5950    0.7998   -5.7668   C.3       1 RES1   0.0000
   307 C115      1.5132   -0.0458   -6.6684   C.3       1 RES1   0.0000
   308 C116      2.7856    0.6960   -7.1110   C.3       1 RES1   0.0000
   309 C117      3.9016    0.8356   -6.0668   C.3       1 RES1   0.0000
   310 C118      4.6067   -0.4773   -5.7076   C.3       1 RES1   0.0000
   311 C119      5.9932   -0.2774   -5.0836   C.3       1 RES1   0.0000
   312 C120      5.9897    0.4298   -3.7320   C.3       1 RES1   0.0000
   313 C121     -2.7002    1.1601   -5.0939   C.3       1 RES1   0.0000
   314 C122     -2.3652    2.1372   -6.2320   C.3       1 RES1   0.0000
   315 C123     -1.9785    1.5102   -7.5831   C.3       1 RES1   0.0000
   316 C124     -2.9280    1.8576   -8.7340   C.3       1 RES1   0.0000
   317 C125     -3.0696    0.7239   -9.7637   C.3       1 RES1   0.0000
   318 C126     -1.7450    0.3930  -10.4528   C.3       1 RES1   0.0000
   319 C127     -3.6827   -0.5594   -9.1776   C.3       1 RES1   0.0000
   320 C128     -4.9924   -0.3111   -8.4324   C.3       1 RES1   0.0000
   321 C129     -5.6432   -1.5889   -7.9054   C.3       1 RES1   0.0000
   322 C130     -6.9236   -1.3173   -7.1012   C.3       1 RES1   0.0000
   323 C131     -6.6205   -0.6147   -5.7761   C.3       1 RES1   0.0000
   324 C132     -7.6670   -2.6272   -6.8357   C.3       1 RES1   0.0000
   325 H177     -9.6709    3.0709    0.4510   H         1 RES1   0.0000
   326 H178     -8.3677    3.0682    1.6188   H         1 RES1   0.0000
   327 H179     -8.0009    2.9776   -0.1037   H         1 RES1   0.0000
   328 H180     -9.2480    5.3737    1.3197   H         1 RES1   0.0000
   329 H181     -8.9966    5.2592   -0.4135   H         1 RES1   0.0000
   330 H182     -7.1840    6.5681    0.5315   H         1 RES1   0.0000
   331 H183     -6.5373    5.0262   -0.0293   H         1 RES1   0.0000
   332 H184     -6.7492    4.1446    2.3272   H         1 RES1   0.0000
   333 H185     -7.2807    5.7410    2.8471   H         1 RES1   0.0000
   334 H186     -5.1089    6.6778    2.4170   H         1 RES1   0.0000
   335 H187     -4.5894    5.2737    1.5024   H         1 RES1   0.0000
   336 H188     -5.5114    4.6488    4.2638   H         1 RES1   0.0000
   337 H189     -4.0716    5.6456    4.1995   H         1 RES1   0.0000
   338 H190     -3.4046    3.4058    4.3391   H         1 RES1   0.0000
   339 H191     -2.9272    4.0693    2.7753   H         1 RES1   0.0000
   340 H192     -4.7372    2.8205    1.6449   H         1 RES1   0.0000
   341 H193     -5.2602    2.1441    3.1789   H         1 RES1   0.0000
   342 H194     -2.7854   -0.0961    3.7749   H         1 RES1   0.0000
   343 H195     -3.5807    1.2649    4.5835   H         1 RES1   0.0000
   344 H196     -1.4483    2.5888    3.6521   H         1 RES1   0.0000
   345 H197     -0.7391    0.9813    3.6086   H         1 RES1   0.0000
   346 H198     -2.1149    1.6840    6.1642   H         1 RES1   0.0000
   347 H199     -0.7945    2.7556    5.7751   H         1 RES1   0.0000
   348 H200      0.6592    1.2548    6.6012   H         1 RES1   0.0000
   349 H201      0.2052    0.1183    5.3314   H         1 RES1   0.0000
   350 H202     -1.4352    0.4327    7.8639   H         1 RES1   0.0000
   351 H203      0.9881   -1.3703    7.4664   H         1 RES1   0.0000
   352 H204     -0.1383   -1.4693    8.8207   H         1 RES1   0.0000
   353 H205      0.8415   -0.0239    8.6047   H         1 RES1   0.0000
   354 H206     -1.0577   -2.1754    6.4557   H         1 RES1   0.0000
   355 H207     -2.0347   -0.9888    5.6063   H         1 RES1   0.0000
   356 H208     -3.1880   -2.6970    7.1565   H         1 RES1   0.0000
   357 H209     -2.6165   -1.7263    8.4914   H         1 RES1   0.0000
   358 H210     -5.0284   -1.4229    7.3200   H         1 RES1   0.0000
   359 H211     -4.1101   -0.3694    6.2531   H         1 RES1   0.0000
   360 H212     -3.3711    0.8654    8.4277   H         1 RES1   0.0000
   361 H213     -5.7262   -0.7527    9.5166   H         1 RES1   0.0000
   362 H214     -4.9511    0.5992   10.3339   H         1 RES1   0.0000
   363 H215     -4.0537   -0.8912   10.0491   H         1 RES1   0.0000
   364 H216     -6.3181    0.9036    7.6234   H         1 RES1   0.0000
   365 H217     -5.0353    1.8583    6.8699   H         1 RES1   0.0000
   366 H218     -5.4868    2.1458    8.5478   H         1 RES1   0.0000
   367 H219     -3.8555    2.1779   -0.0958   H         1 RES1   0.0000
   368 H220     -4.2960    0.4525   -0.0980   H         1 RES1   0.0000
   369 H221     -3.3129    1.7398   -2.5097   H         1 RES1   0.0000
   370 H222     -3.5630   -0.0088   -2.3443   H         1 RES1   0.0000
   371 H223     -1.0734   -0.5550   -5.9637   H         1 RES1   0.0000
   372 H224     -0.0945   -0.8096   -4.5234   H         1 RES1   0.0000
   373 H225      1.1948    1.2437   -4.9755   H         1 RES1   0.0000
   374 H226      0.1888    1.6079   -6.3668   H         1 RES1   0.0000
   375 H227      0.9617   -0.3307   -7.5681   H         1 RES1   0.0000
   376 H228      1.8018   -0.9739   -6.1692   H         1 RES1   0.0000
   377 H229      2.5093    1.6926   -7.4617   H         1 RES1   0.0000
   378 H230      3.2001    0.1711   -7.9726   H         1 RES1   0.0000
   379 H231      3.5097    1.3176   -5.1671   H         1 RES1   0.0000
   380 H232      4.6520    1.5055   -6.4899   H         1 RES1   0.0000
   381 H233      4.7467   -1.0605   -6.6190   H         1 RES1   0.0000
   382 H234      3.9891   -1.0783   -5.0327   H         1 RES1   0.0000
   383 H235      6.6181    0.2944   -5.7717   H         1 RES1   0.0000
   384 H236      6.4602   -1.2579   -4.9646   H         1 RES1   0.0000
   385 H237      5.6136    1.4477   -3.8163   H         1 RES1   0.0000
   386 H238      7.0059    0.4875   -3.3523   H         1 RES1   0.0000
   387 H239      5.3916   -0.1144   -2.9996   H         1 RES1   0.0000
   388 H240     -3.3362    1.7006   -4.3987   H         1 RES1   0.0000
   389 H241     -3.2750    0.3169   -5.4900   H         1 RES1   0.0000
   390 H242     -1.6001    2.8327   -5.8831   H         1 RES1   0.0000
   391 H243     -3.2752    2.7213   -6.3754   H         1 RES1   0.0000
   392 H244     -1.9574    0.4282   -7.4867   H         1 RES1   0.0000
   393 H245     -0.9816    1.8271   -7.8829   H         1 RES1   0.0000
   394 H246     -2.5706    2.7512   -9.2461   H         1 RES1   0.0000
   395 H247     -3.9168    2.0991   -8.3480   H         1 RES1   0.0000
   396 H248     -3.7593    1.0900  -10.5305   H         1 RES1   0.0000
   397 H249     -1.0213   -0.0314   -9.7583   H         1 RES1   0.0000
   398 H250     -1.3073    1.2775  -10.9096   H         1 RES1   0.0000
   399 H251     -1.9184   -0.3410  -11.2356   H         1 RES1   0.0000
   400 H252     -2.9699   -1.0617   -8.5156   H         1 RES1   0.0000
   401 H253     -3.8734   -1.2523   -9.9996   H         1 RES1   0.0000
   402 H254     -5.6904    0.1815   -9.1100   H         1 RES1   0.0000
   403 H255     -4.8178    0.3599   -7.5910   H         1 RES1   0.0000
   404 H256     -4.9386   -2.1384   -7.2727   H         1 RES1   0.0000
   405 H257     -5.8944   -2.2305   -8.7511   H         1 RES1   0.0000
   406 H258     -7.5691   -0.6629   -7.6968   H         1 RES1   0.0000
   407 H259     -5.9561   -1.2285   -5.1667   H         1 RES1   0.0000
   408 H260     -7.5435   -0.4565   -5.2243   H         1 RES1   0.0000
   409 H261     -6.1552    0.3567   -5.9378   H         1 RES1   0.0000
   410 H262     -7.0457   -3.3058   -6.2526   H         1 RES1   0.0000
   411 H263     -7.9219   -3.1162   -7.7724   H         1 RES1   0.0000
   412 H264     -8.5892   -2.4469   -6.2868   H         1 RES1   0.0000
@<TRIPOS>BOND
     1     1    24    1
     2     1    26    1
     3     1    29    1
     4     1   161    1
     5     1   163    1
     6     1   166    1
     7     1   298    1
     8     1   300    1
     9     1   303    1
    10     2     3    1
    11     2    51    1
    12     2    52    1
    13     2    53    1
    14     3     4    1
    15     3    54    1
    16     3    55    1
    17     4     5    1
    18     4    56    1
    19     4    57    1
    20     5     6    1
    21     5    58    1
    22     5    59    1
    23     6     7    1
    24     6    60    1
    25     6    61    1
    26     7     8    1
    27     7    62    1
    28     7    63    1
    29     8     9    1
    30     8    64    1
    31     8    65    1
    32     9    10    1
    33     9    66    1
    34     9    67    1
    35    10    11    1
    36    10    23    1
    37    11    12    1
    38    11    68    1
    39    11    69    1
    40    12    13    1
    41    12    70    1
    42    12    71    1
    43    13    14    1
    44    13    72    1
    45    13    73    1
    46    14    15    1
    47    14    74    1
    48    14    75    1
    49    15    16    1
    50    15    17    1
    51    15    76    1
    52    16    77    1
    53    16    78    1
    54    16    79    1
    55    17    18    1
    56    17    80    1
    57    17    81    1
    58    18    19    1
    59    18    82    1
    60    18    83    1
    61    19    20    1
    62    19    84    1
    63    19    85    1
    64    20    21    1
    65    20    22    1
    66    20    86    1
    67    21    87    1
    68    21    88    1
    69    21    89    1
    70    22    90    1
    71    22    91    1
    72    22    92    1
    73    23    24    2
    74    23    25    1
    75    25    26    1
    76    25    93    1
    77    25    94    1
    78    26    27    1
    79    27    28    1
    80    27    95    1
    81    27    96    1
    82    28    29    2
    83    28    30    1
    84    30    31    1
    85    30    39    1
    86    31    32    1
    87    31    97    1
    88    31    98    1
    89    32    33    1
    90    32    99    1
    91    32   100    1
    92    33    34    1
    93    33   101    1
    94    33   102    1
    95    34    35    1
    96    34   103    1
    97    34   104    1
    98    35    36    1
    99    35   105    1
   100    35   106    1
   101    36    37    1
   102    36   107    1
   103    36   108    1
   104    37    38    1
   105    37   109    1
   106    37   110    1
   107    38   111    1
   108    38   112    1
   109    38   113    1
   110    39    40    1
   111    39   114    1
   112    39   115    1
   113    40    41    1
   114    40   116    1
   115    40   117    1
   116    41    42    1
   117    41   118    1
   118    41   119    1
   119    42    43    1
   120    42   120    1
   121    42   121    1
   122    43    44    1
   123    43    45    1
   124    43   122    1
   125    44   123    1
   126    44   124    1
   127    44   125    1
   128    45    46    1
   129    45   126    1
   130    45   127    1
   131    46    47    1
   132    46   128    1
   133    46   129    1
   134    47    48    1
   135    47   130    1
   136    47   131    1
   137    48    49    1
   138    48    50    1
   139    48   132    1
   140    49   133    1
   141    49   134    1
   142    49   135    1
   143    50   136    1
   144    50   137    1
   145    50   138    1
   146   139   140    1
   147   139   188    1
   148   139   189    1
   149   139   190    1
   150   140   141    1
   151   140   191    1
   152   140   192    1
   153   141   142    1
   154   141   193    1
   155   141   194    1
   156   142   143    1
   157   142   195    1
   158   142   196    1
   159   143   144    1
   160   143   197    1
   161   143   198    1
   162   144   145    1
   163   144   199    1
   164   144   200    1
   165   145   146    1
   166   145   201    1
   167   145   202    1
   168   146   147    1
   169   146   203    1
   170   146   204    1
   171   147   148    1
   172   147   160    1
   173   148   149    1
   174   148   205    1
   175   148   206    1
   176   149   150    1
   177   149   207    1
   178   149   208    1
   179   150   151    1
   180   150   209    1
   181   150   210    1
   182   151   152    1
   183   151   211    1
   184   151   212    1
   185   152   153    1
   186   152   154    1
   187   152   213    1
   188   153   214    1
   189   153   215    1
   190   153   216    1
   191   154   155    1
   192   154   217    1
   193   154   218    1
   194   155   156    1
   195   155   219    1
   196   155   220    1
   197   156   157    1
   198   156   221    1
   199   156   222    1
   200   157   158    1
   201   157   159    1
   202   157   223    1
   203   158   224    1
   204   158   225    1
   205   158   226    1
   206   159   227    1
   207   159   228    1
   208   159   229    1
   209   160   161    2
   210   160   162    1
   211   162   163    1
   212   162   230    1
   213   162   231    1
   214   163   164    1
   215   164   165    1
   216   164   232    1
   217   164   233    1
   218   165   166    2
   219   165   167    1
   220   167   168    1
   221   167   176    1
   222   168   169    1
   223   168   234    1
   224   168   235    1
   225   169   170    1
   226   169   236    1
   227   169   237    1
   228   170   171    1
   229   170   238    1
   230   170   239    1
   231   171   172    1
   232   171   240    1
   233   171   241    1
   234   172   173    1
   235   172   242    1
   236   172   243    1
   237   173   174    1
   238   173   244    1
   239   173   245    1
   240   174   175    1
   241   174   246    1
   242   174   247    1
   243   175   248    1
   244   175   249    1
   245   175   250    1
   246   176   177    1
   247   176   251    1
   248   176   252    1
   249   177   178    1
   250   177   253    1
   251   177   254    1
   252   178   179    1
   253   178   255    1
   254   178   256    1
   255   179   180    1
   256   179   257    1
   257   179   258    1
   258   180   181    1
   259   180   182    1
   260   180   259    1
   261   181   260    1
   262   181   261    1
   263   181   262    1
   264   182   183    1
   265   182   263    1
   266   182   264    1
   267   183   184    1
   268   183   265    1
   269   183   266    1
   270   184   185    1
   271   184   267    1
   272   184   268    1
   273   185   186    1
   274   185   187    1
   275   185   269    1
   276   186   270    1
   277   186   271    1
   278   186   272    1
   279   187   273    1
   280   187   274    1
   281   187   275    1
   282   276   277    1
   283   276   325    1
   284   276   326    1
   285   276   327    1
   286   277   278    1
   287   277   328    1
   288   277   329    1
   289   278   279    1
   290   278   330    1
   291   278   331    1
   292   279   280    1
   293   279   332    1
   294   279   333    1
   295   280   281    1
   296   280   334    1
   297   280   335    1
   298   281   282    1
   299   281   336    1
   300   281   337    1
   301   282   283    1
   302   282   338    1
   303   282   339    1
   304   283   284    1
   305   283   340    1
   306   283   341    1
   307   284   285    1
   308   284   297    1
   309   285   286    1
   310   285   342    1
   311   285   343    1
   312   286   287    1
   313   286   344    1
   314   286   345    1
   315   287   288    1
   316   287   346    1
   317   287   347    1
   318   288   289    1
   319   288   348    1
   320   288   349    1
   321   289   290    1
   322   289   291    1
   323   289   350    1
   324   290   351    1
   325   290   352    1
   326   290   353    1
   327   291   292    1
   328   291   354    1
   329   291   355    1
   330   292   293    1
   331   292   356    1
   332   292   357    1
   333   293   294    1
   334   293   358    1
   335   293   359    1
   336   294   295    1
   337   294   296    1
   338   294   360    1
   339   295   361    1
   340   295   362    1
   341   295   363    1
   342   296   364    1
   343   296   365    1
   344   296   366    1
   345   297   298    2
   346   297   299    1
   347   299   300    1
   348   299   367    1
   349   299   368    1
   350   300   301    1
   351   301   302    1
   352   301   369    1
   353   301   370    1
   354   302   303    2
   355   302   304    1
   356   304   305    1
   357   304   313    1
   358   305   306    1
   359   305   371    1
   360   305   372    1
   361   306   307    1
   362   306   373    1
   363   306   374    1
   364   307   308    1
   365   307   375    1
   366   307   376    1
   367   308   309    1
   368   308   377    1
   369   308   378    1
   370   309   310    1
   371   309   379    1
   372   309   380    1
   373   310   311    1
   374   310   381    1
   375   310   382    1
   376   311   312    1
   377   311   383    1
   378   311   384    1
   379   312   385    1
   380   312   386    1
   381   312   387    1
   382   313   314    1
   383   313   388    1
   384   313   389    1
   385   314   315    1
   386   314   390    1
   387   314   391    1
   388   315   316    1
   389   315   392    1
   390   315   393    1
   391   316   317    1
   392   316   394    1
   393   316   395    1
   394   317   318    1
   395   317   319    1
   396   317   396    1
   397   318   397    1
   398   318   398    1
   399   318   399    1
   400   319   320    1
   401   319   400    1
   402   319   401    1
   403   320   321    1
   404   320   402    1
   405   320   403    1
   406   321   322    1
   407   321   404    1
   408   321   405    1
   409   322   323    1
   410   322   324    1
   411   322   406    1
   412   323   407    1
   413   323   408    1
   414   323   409    1
   415   324   410    1
   416   324   411    1
   417   324   412    1
@<TRIPOS>SUBSTRUCTURE
     1 RES1      412 GROUP             0 ****  ****    0  
