@<TRIPOS>MOLECULE
am_c3_9H2O_c0_0_nunpairedes_0_charge_2 Charge: 2 Unpaired_Electrons: 1 XTB_Unpaired_Electrons: 0 XTB_Charge: 2
    50    56     1     0     0
SMALL
NoCharges
****
Generated from Architector

@<TRIPOS>ATOM
     1 Ce1       0.0014    0.1342    0.2782   Ce        1 RES1   0.0000
     2 C1       -2.9364   -1.3640    0.7437   C.3       1 RES1   0.0000
     3 C2       -2.2431   -2.2241   -0.3257   C.3       1 RES1   0.0000
     4 O1       -0.8143   -2.0710   -0.2458   O.3       1 RES1   0.0000
     5 C3       -0.1581   -3.2031    0.3561   C.3       1 RES1   0.0000
     6 C4        1.3386   -2.9254    0.5836   C.3       1 RES1   0.0000
     7 O2        1.4979   -1.5734    1.0011   O.3       1 RES1   0.0000
     8 C5        2.8496   -1.2401    1.3338   C.3       1 RES1   0.0000
     9 C6        2.8218    0.1345    2.0210   C.3       1 RES1   0.0000
    10 O3        1.9851    1.0259    1.2764   O.3       1 RES1   0.0000
    11 C7        2.5775    2.1742    0.6543   C.3       1 RES1   0.0000
    12 C8        2.5661    1.9898   -0.8719   C.3       1 RES1   0.0000
    13 O4        1.2790    1.4955   -1.2772   O.3       1 RES1   0.0000
    14 C9        0.5826    2.3244   -2.2183   C.3       1 RES1   0.0000
    15 C10      -0.7196    1.6144   -2.6129   C.3       1 RES1   0.0000
    16 O5       -1.3428    1.1362   -1.4231   O.3       1 RES1   0.0000
    17 C11      -2.7742    1.1528   -1.4575   C.3       1 RES1   0.0000
    18 C12      -3.2738    0.9370   -0.0144   C.3       1 RES1   0.0000
    19 O6       -2.4577   -0.0193    0.6685   O.3       1 RES1   0.0000
    20 H1       -2.6812   -1.7064    1.7562   H         1 RES1   0.0000
    21 H2       -4.0234   -1.3953    0.6199   H         1 RES1   0.0000
    22 H3       -2.5335   -1.8691   -1.3220   H         1 RES1   0.0000
    23 H4       -2.5209   -3.2742   -0.2147   H         1 RES1   0.0000
    24 H5       -0.2550   -4.0686   -0.3174   H         1 RES1   0.0000
    25 H6       -0.6239   -3.4243    1.3244   H         1 RES1   0.0000
    26 H7        1.9263   -3.1011   -0.3279   H         1 RES1   0.0000
    27 H8        1.7010   -3.6060    1.3662   H         1 RES1   0.0000
    28 H9        3.4661   -1.2180    0.4202   H         1 RES1   0.0000
    29 H10       3.2542   -1.9929    2.0223   H         1 RES1   0.0000
    30 H11       3.8318    0.5370    2.1261   H         1 RES1   0.0000
    31 H12       2.3876    0.0268    3.0244   H         1 RES1   0.0000
    32 H13       3.5966    2.3418    1.0211   H         1 RES1   0.0000
    33 H14       1.9626    3.0400    0.9393   H         1 RES1   0.0000
    34 H15       3.3169    1.2380   -1.1569   H         1 RES1   0.0000
    35 H16       2.7918    2.9373   -1.3674   H         1 RES1   0.0000
    36 H17       1.2076    2.4671   -3.1108   H         1 RES1   0.0000
    37 H18       0.3599    3.3015   -1.7660   H         1 RES1   0.0000
    38 H19      -0.5216    0.7693   -3.2849   H         1 RES1   0.0000
    39 H20      -1.3670    2.3317   -3.1278   H         1 RES1   0.0000
    40 H21      -3.1388    0.3655   -2.1340   H         1 RES1   0.0000
    41 H22      -3.1276    2.1239   -1.8267   H         1 RES1   0.0000
    42 H23      -4.3207    0.6177   -0.0251   H         1 RES1   0.0000
    43 H24      -3.2008    1.8728    0.5599   H         1 RES1   0.0000
    44 N1       -0.6209    1.2965    2.3393   N.3       1 RES1   0.0000
    45 O7       -0.9169    1.8675    3.3313   O.2       1 RES1   0.0000
    46 O8       -0.3565    0.0779    2.3386   O.co2     1 RES1   0.0000
    47 O9       -0.5514    1.8922    1.2422   O.co2     1 RES1   0.0000
    48 O10       1.2707   -1.1202   -1.8464   O.3       1 RES1   0.0000
    49 H25       2.1699   -1.0079   -2.1831   H         1 RES1   0.0000
    50 H26       0.8868   -1.8030   -2.4083   H         1 RES1   0.0000
@<TRIPOS>BOND
     1     1     4    1
     2     1     7    1
     3     1    10    1
     4     1    13    1
     5     1    16    1
     6     1    19    1
     7     1    46    1
     8     1    47    1
     9     1    48    1
    10     2     3    1
    11     2    19    1
    12     2    20    1
    13     2    21    1
    14     3     4    1
    15     3    22    1
    16     3    23    1
    17     4     5    1
    18     5     6    1
    19     5    24    1
    20     5    25    1
    21     6     7    1
    22     6    26    1
    23     6    27    1
    24     7     8    1
    25     8     9    1
    26     8    28    1
    27     8    29    1
    28     9    10    1
    29     9    30    1
    30     9    31    1
    31    10    11    1
    32    11    12    1
    33    11    32    1
    34    11    33    1
    35    12    13    1
    36    12    34    1
    37    12    35    1
    38    13    14    1
    39    14    15    1
    40    14    36    1
    41    14    37    1
    42    15    16    1
    43    15    38    1
    44    15    39    1
    45    16    17    1
    46    17    18    1
    47    17    40    1
    48    17    41    1
    49    18    19    1
    50    18    42    1
    51    18    43    1
    52    44    45    2
    53    44    46    1
    54    44    47    1
    55    48    49    1
    56    48    50    1
@<TRIPOS>SUBSTRUCTURE
     1 RES1       50 GROUP             0 ****  ****    0  
