@<TRIPOS>MOLECULE
am_c3_9H2O_c0_0_nunpairedes_0_charge_3 Charge: 3 Unpaired_Electrons: 1 XTB_Unpaired_Electrons: 0 XTB_Charge: 3
   322   327     1     0     0
SMALL
NoCharges
****
Generated from Architector

@<TRIPOS>ATOM
     1 Ce1       0.0291   -0.0228    0.0144   Ce        1 RES1   0.0000
     2 C1       -6.1757    6.3207    2.4205   C.3       1 RES1   0.0000
     3 C2       -6.2969    7.0815    3.7381   C.3       1 RES1   0.0000
     4 C3       -6.4443    6.2123    4.9931   C.3       1 RES1   0.0000
     5 C4       -7.7961    5.4985    5.1443   C.3       1 RES1   0.0000
     6 C5       -7.8311    4.0847    4.5545   C.3       1 RES1   0.0000
     7 C6       -7.1482    3.0465    5.4497   C.3       1 RES1   0.0000
     8 C7       -6.9603    1.6705    4.7820   C.3       1 RES1   0.0000
     9 C8       -6.3171    0.6974    5.7883   C.3       1 RES1   0.0000
    10 C9       -6.4940   -0.8049    5.5117   C.3       1 RES1   0.0000
    11 C10      -5.3961   -1.4820    4.6853   C.3       1 RES1   0.0000
    12 C11      -5.5400   -3.0008    4.7339   C.3       1 RES1   0.0000
    13 C12      -6.2403    1.7713    3.4188   C.3       1 RES1   0.0000
    14 C13      -4.9101    2.5429    3.3980   C.3       1 RES1   0.0000
    15 C14      -3.7302    1.7287    3.9472   C.3       1 RES1   0.0000
    16 N1       -2.4837    1.8647    3.2060   N.am      1 RES1   0.0000
    17 C15      -1.3976    2.6292    3.7924   C.3       1 RES1   0.0000
    18 C16      -2.2368    1.2219    2.0792   C.2       1 RES1   0.0000
    19 O1       -1.0905    1.1608    1.5868   O.2       1 RES1   0.0000
    20 C17      -3.3633    0.5015    1.3260   C.3       1 RES1   0.0000
    21 O2       -2.9757    0.3524   -0.0339   O.3       1 RES1   0.0000
    22 C18      -3.4777    1.3484   -0.9242   C.3       1 RES1   0.0000
    23 C19      -2.4191    1.5639   -2.0226   C.2       1 RES1   0.0000
    24 O3       -1.2528    1.2110   -1.7657   O.2       1 RES1   0.0000
    25 N2       -2.7415    2.2294   -3.1305   N.am      1 RES1   0.0000
    26 C20      -1.6866    2.8804   -3.8938   C.3       1 RES1   0.0000
    27 C21      -4.0590    2.3672   -3.7471   C.3       1 RES1   0.0000
    28 C22      -4.2414    1.5396   -5.0376   C.3       1 RES1   0.0000
    29 C23      -4.4224    0.0246   -4.8404   C.3       1 RES1   0.0000
    30 C24      -3.3256   -0.8560   -5.4773   C.3       1 RES1   0.0000
    31 C25      -1.9656   -0.6187   -4.7999   C.3       1 RES1   0.0000
    32 C26      -0.7706   -0.5991   -5.7536   C.3       1 RES1   0.0000
    33 C27       0.4558    0.0195   -5.0781   C.3       1 RES1   0.0000
    34 C28       1.7466   -0.2245   -5.8569   C.3       1 RES1   0.0000
    35 C29      -3.8267   -2.3188   -5.4402   C.3       1 RES1   0.0000
    36 C30      -2.7828   -3.4208   -5.6281   C.3       1 RES1   0.0000
    37 C31      -3.3254   -4.8113   -5.2635   C.3       1 RES1   0.0000
    38 C32      -3.3080   -5.1462   -3.7654   C.3       1 RES1   0.0000
    39 C33      -1.8867   -5.3666   -3.2521   C.3       1 RES1   0.0000
    40 C34      -1.7647   -5.6385   -1.7560   C.3       1 RES1   0.0000
    41 H1       -5.9873    7.0228    1.6100   H         1 RES1   0.0000
    42 H2       -7.0905    5.7812    2.1907   H         1 RES1   0.0000
    43 H3       -5.3471    5.6128    2.4579   H         1 RES1   0.0000
    44 H4       -7.1476    7.7610    3.6757   H         1 RES1   0.0000
    45 H5       -5.4008    7.6963    3.8600   H         1 RES1   0.0000
    46 H6       -6.3093    6.8734    5.8510   H         1 RES1   0.0000
    47 H7       -5.6277    5.4862    5.0222   H         1 RES1   0.0000
    48 H8       -8.5628    6.1063    4.6629   H         1 RES1   0.0000
    49 H9       -8.0596    5.4427    6.2023   H         1 RES1   0.0000
    50 H10      -7.3556    4.1156    3.5761   H         1 RES1   0.0000
    51 H11      -8.8698    3.7833    4.4066   H         1 RES1   0.0000
    52 H12      -7.7683    2.9078    6.3387   H         1 RES1   0.0000
    53 H13      -6.1838    3.4254    5.7942   H         1 RES1   0.0000
    54 H14      -7.9630    1.2840    4.5661   H         1 RES1   0.0000
    55 H15      -6.7977    0.8943    6.7481   H         1 RES1   0.0000
    56 H16      -5.2584    0.9207    5.9162   H         1 RES1   0.0000
    57 H17      -7.4591   -0.9790    5.0342   H         1 RES1   0.0000
    58 H18      -6.5154   -1.3171    6.4757   H         1 RES1   0.0000
    59 H19      -4.4146   -1.2096    5.0911   H         1 RES1   0.0000
    60 H20      -5.4397   -1.1547    3.6402   H         1 RES1   0.0000
    61 H21      -5.4268   -3.3547    5.7546   H         1 RES1   0.0000
    62 H22      -4.7832   -3.4875    4.1196   H         1 RES1   0.0000
    63 H23      -6.5228   -3.3012    4.3810   H         1 RES1   0.0000
    64 H24      -6.9213    2.2748    2.7293   H         1 RES1   0.0000
    65 H25      -6.0819    0.7627    3.0310   H         1 RES1   0.0000
    66 H26      -5.0249    3.4602    3.9687   H         1 RES1   0.0000
    67 H27      -4.6940    2.8442    2.3707   H         1 RES1   0.0000
    68 H28      -4.0005    0.6719    3.9537   H         1 RES1   0.0000
    69 H29      -3.5239    2.0304    4.9725   H         1 RES1   0.0000
    70 H30      -1.4664    2.5995    4.8722   H         1 RES1   0.0000
    71 H31      -1.4403    3.6665    3.4677   H         1 RES1   0.0000
    72 H32      -0.4478    2.1991    3.4832   H         1 RES1   0.0000
    73 H33      -4.3300    0.9992    1.3985   H         1 RES1   0.0000
    74 H34      -3.4416   -0.5118    1.7356   H         1 RES1   0.0000
    75 H35      -3.5634    2.3226   -0.4180   H         1 RES1   0.0000
    76 H36      -4.4713    1.0576   -1.2901   H         1 RES1   0.0000
    77 H37      -0.7310    2.7026   -3.4130   H         1 RES1   0.0000
    78 H38      -1.8886    3.9524   -3.9134   H         1 RES1   0.0000
    79 H39      -1.6623    2.5129   -4.9163   H         1 RES1   0.0000
    80 H40      -4.1865    3.4231   -4.0003   H         1 RES1   0.0000
    81 H41      -4.8442    2.0902   -3.0469   H         1 RES1   0.0000
    82 H42      -3.4226    1.7233   -5.7304   H         1 RES1   0.0000
    83 H43      -5.1387    1.9421   -5.5111   H         1 RES1   0.0000
    84 H44      -5.3738   -0.2744   -5.2810   H         1 RES1   0.0000
    85 H45      -4.4850   -0.2062   -3.7767   H         1 RES1   0.0000
    86 H46      -3.2354   -0.5566   -6.5251   H         1 RES1   0.0000
    87 H47      -1.7886   -1.3610   -4.0223   H         1 RES1   0.0000
    88 H48      -1.9918    0.3419   -4.2979   H         1 RES1   0.0000
    89 H49      -1.0068   -0.0204   -6.6478   H         1 RES1   0.0000
    90 H50      -0.5390   -1.6087   -6.0848   H         1 RES1   0.0000
    91 H51       0.5413   -0.3796   -4.0587   H         1 RES1   0.0000
    92 H52       0.2998    1.0996   -4.9988   H         1 RES1   0.0000
    93 H53       2.0755   -1.2559   -5.7707   H         1 RES1   0.0000
    94 H54       2.5487    0.4171   -5.4955   H         1 RES1   0.0000
    95 H55       1.5925   -0.0045   -6.9092   H         1 RES1   0.0000
    96 H56      -4.5707   -2.4335   -6.2299   H         1 RES1   0.0000
    97 H57      -4.3431   -2.4837   -4.4935   H         1 RES1   0.0000
    98 H58      -1.9003   -3.2195   -5.0250   H         1 RES1   0.0000
    99 H59      -2.4624   -3.4261   -6.6704   H         1 RES1   0.0000
   100 H60      -2.7292   -5.5671   -5.7759   H         1 RES1   0.0000
   101 H61      -4.3467   -4.8964   -5.6375   H         1 RES1   0.0000
   102 H62      -3.8798   -6.0626   -3.6056   H         1 RES1   0.0000
   103 H63      -3.8057   -4.3610   -3.1989   H         1 RES1   0.0000
   104 H64      -1.2783   -4.4951   -3.4900   H         1 RES1   0.0000
   105 H65      -1.4752   -6.2174   -3.7940   H         1 RES1   0.0000
   106 H66      -1.9211   -4.7344   -1.1694   H         1 RES1   0.0000
   107 H67      -0.7696   -6.0120   -1.5285   H         1 RES1   0.0000
   108 H68      -2.4762   -6.3925   -1.4358   H         1 RES1   0.0000
   109 C35       5.1798    6.9398    0.5003   C.3       1 RES1   0.0000
   110 C36       4.9219    8.4350    0.3353   C.3       1 RES1   0.0000
   111 C37       4.3458    8.8577   -1.0219   C.3       1 RES1   0.0000
   112 C38       5.3306    8.8251   -2.2003   C.3       1 RES1   0.0000
   113 C39       5.3349    7.5192   -2.9999   C.3       1 RES1   0.0000
   114 C40       4.0958    7.3559   -3.8830   C.3       1 RES1   0.0000
   115 C41       4.0490    6.0171   -4.6363   C.3       1 RES1   0.0000
   116 C42       2.8334    5.9916   -5.5762   C.3       1 RES1   0.0000
   117 C43       2.8504    4.8883   -6.6494   C.3       1 RES1   0.0000
   118 C44       1.8836    3.7285   -6.4008   C.3       1 RES1   0.0000
   119 C45       1.6774    2.9032   -7.6653   C.3       1 RES1   0.0000
   120 C46       4.1607    4.7929   -3.7064   C.3       1 RES1   0.0000
   121 C47       3.2897    4.7828   -2.4449   C.3       1 RES1   0.0000
   122 C48       1.8049    4.4986   -2.6992   C.3       1 RES1   0.0000
   123 N3        1.1698    3.8694   -1.5537   N.am      1 RES1   0.0000
   124 C49       0.4769    4.6933   -0.5763   C.3       1 RES1   0.0000
   125 C50       1.2586    2.5755   -1.2795   C.2       1 RES1   0.0000
   126 O4        0.7487    2.1059   -0.2453   O.2       1 RES1   0.0000
   127 C51       2.0203    1.6623   -2.2477   C.3       1 RES1   0.0000
   128 O5        1.7756    0.2862   -1.9487   O.3       1 RES1   0.0000
   129 C52       2.9589   -0.4843   -1.7544   C.3       1 RES1   0.0000
   130 C53       3.4022   -0.2943   -0.2865   C.2       1 RES1   0.0000
   131 O6        2.5418    0.1943    0.4731   O.2       1 RES1   0.0000
   132 N4        4.6428   -0.5558    0.1172   N.am      1 RES1   0.0000
   133 C54       5.0551   -0.0819    1.4317   C.3       1 RES1   0.0000
   134 C55       5.6506   -1.3345   -0.5916   C.3       1 RES1   0.0000
   135 C56       5.5616   -2.8446   -0.2854   C.3       1 RES1   0.0000
   136 C57       4.4100   -3.4324   -1.0906   C.3       1 RES1   0.0000
   137 C58       3.9950   -4.9153   -0.9129   C.3       1 RES1   0.0000
   138 C59       2.9092   -4.9430    0.1771   C.3       1 RES1   0.0000
   139 C60       2.1718   -6.2422    0.4807   C.3       1 RES1   0.0000
   140 C61       1.2328   -6.0483    1.6752   C.3       1 RES1   0.0000
   141 C62       0.2058   -7.1678    1.8018   C.3       1 RES1   0.0000
   142 C63       3.5610   -5.3391   -2.3248   C.3       1 RES1   0.0000
   143 C64       3.0383   -6.7388   -2.6237   C.3       1 RES1   0.0000
   144 C65       2.9302   -6.9695   -4.1433   C.3       1 RES1   0.0000
   145 C66       2.4694   -5.7658   -4.9776   C.3       1 RES1   0.0000
   146 C67       1.1725   -5.1047   -4.4906   C.3       1 RES1   0.0000
   147 C68       1.2512   -3.5794   -4.4214   C.3       1 RES1   0.0000
   148 H69       5.5058    6.7353    1.5191   H         1 RES1   0.0000
   149 H70       5.9567    6.5960   -0.1772   H         1 RES1   0.0000
   150 H71       4.2701    6.3681    0.3121   H         1 RES1   0.0000
   151 H72       5.8523    8.9763    0.5103   H         1 RES1   0.0000
   152 H73       4.2175    8.7460    1.1123   H         1 RES1   0.0000
   153 H74       3.9903    9.8828   -0.9071   H         1 RES1   0.0000
   154 H75       3.4702    8.2433   -1.2436   H         1 RES1   0.0000
   155 H76       6.3349    9.0092   -1.8175   H         1 RES1   0.0000
   156 H77       5.0969    9.6429   -2.8843   H         1 RES1   0.0000
   157 H78       5.4207    6.6848   -2.3069   H         1 RES1   0.0000
   158 H79       6.2165    7.5032   -3.6440   H         1 RES1   0.0000
   159 H80       4.1058    8.1568   -4.6256   H         1 RES1   0.0000
   160 H81       3.1853    7.4848   -3.2934   H         1 RES1   0.0000
   161 H82       4.9366    5.9869   -5.2773   H         1 RES1   0.0000
   162 H83       2.8196    6.9538   -6.0885   H         1 RES1   0.0000
   163 H84       1.9092    5.9308   -5.0018   H         1 RES1   0.0000
   164 H85       3.8616    4.4971   -6.7691   H         1 RES1   0.0000
   165 H86       2.5701    5.3344   -7.6032   H         1 RES1   0.0000
   166 H87       0.9148    4.1245   -6.0806   H         1 RES1   0.0000
   167 H88       2.2668    3.0816   -5.6035   H         1 RES1   0.0000
   168 H89       1.3046    3.5349   -8.4661   H         1 RES1   0.0000
   169 H90       0.9548    2.1093   -7.4966   H         1 RES1   0.0000
   170 H91       2.6144    2.4608   -7.9934   H         1 RES1   0.0000
   171 H92       5.1960    4.7333   -3.3665   H         1 RES1   0.0000
   172 H93       3.9706    3.8904   -4.2900   H         1 RES1   0.0000
   173 H94       3.4038    5.7261   -1.9186   H         1 RES1   0.0000
   174 H95       3.6713    4.0039   -1.7792   H         1 RES1   0.0000
   175 H96       1.7125    3.8432   -3.5654   H         1 RES1   0.0000
   176 H97       1.2587    5.4154   -2.9155   H         1 RES1   0.0000
   177 H98       0.5615    5.7380   -0.8518   H         1 RES1   0.0000
   178 H99       0.9010    4.5406    0.4156   H         1 RES1   0.0000
   179 H100     -0.5755    4.4086   -0.5391   H         1 RES1   0.0000
   180 H101      3.0860    1.9007   -2.1615   H         1 RES1   0.0000
   181 H102      1.7112    1.8187   -3.2888   H         1 RES1   0.0000
   182 H103      3.7432   -0.1768   -2.4549   H         1 RES1   0.0000
   183 H104      2.6634   -1.5134   -1.9830   H         1 RES1   0.0000
   184 H105      4.1771    0.2106    2.0031   H         1 RES1   0.0000
   185 H106      5.7090    0.7828    1.3058   H         1 RES1   0.0000
   186 H107      5.6053   -0.8612    1.9519   H         1 RES1   0.0000
   187 H108      6.6246   -0.9450   -0.2912   H         1 RES1   0.0000
   188 H109      5.5436   -1.1835   -1.6660   H         1 RES1   0.0000
   189 H110      5.4417   -3.0133    0.7850   H         1 RES1   0.0000
   190 H111      6.4986   -3.3057   -0.5911   H         1 RES1   0.0000
   191 H112      4.6633   -3.2616   -2.1396   H         1 RES1   0.0000
   192 H113      3.5175   -2.8460   -0.8715   H         1 RES1   0.0000
   193 H114      4.8408   -5.5268   -0.5903   H         1 RES1   0.0000
   194 H115      2.1512   -4.1870   -0.0623   H         1 RES1   0.0000
   195 H116      3.3966   -4.6257    1.0997   H         1 RES1   0.0000
   196 H117      2.8745   -7.0454    0.6867   H         1 RES1   0.0000
   197 H118      1.5679   -6.5370   -0.3734   H         1 RES1   0.0000
   198 H119      0.7022   -5.0945    1.5489   H         1 RES1   0.0000
   199 H120      1.8107   -5.9789    2.6006   H         1 RES1   0.0000
   200 H121     -0.3953   -7.2365    0.8982   H         1 RES1   0.0000
   201 H122     -0.4582   -6.9851    2.6442   H         1 RES1   0.0000
   202 H123      0.6937   -8.1241    1.9574   H         1 RES1   0.0000
   203 H124      4.4357   -5.1963   -2.9643   H         1 RES1   0.0000
   204 H125      2.7981   -4.6291   -2.6291   H         1 RES1   0.0000
   205 H126      2.0531   -6.8914   -2.1860   H         1 RES1   0.0000
   206 H127      3.7010   -7.4900   -2.1962   H         1 RES1   0.0000
   207 H128      2.2476   -7.8036   -4.3090   H         1 RES1   0.0000
   208 H129      3.9065   -7.2689   -4.5254   H         1 RES1   0.0000
   209 H130      3.2695   -5.0263   -4.9985   H         1 RES1   0.0000
   210 H131      2.3361   -6.1097   -6.0019   H         1 RES1   0.0000
   211 H132      0.9241   -5.4943   -3.5072   H         1 RES1   0.0000
   212 H133      0.3529   -5.3686   -5.1558   H         1 RES1   0.0000
   213 H134      2.2179   -3.2402   -4.0505   H         1 RES1   0.0000
   214 H135      0.4867   -3.1727   -3.7579   H         1 RES1   0.0000
   215 H136      1.1131   -3.1540   -5.4091   H         1 RES1   0.0000
   216 C69      -3.0093   -9.1824   -2.7382   C.3       1 RES1   0.0000
   217 C70      -4.1892   -9.4494   -3.6654   C.3       1 RES1   0.0000
   218 C71      -5.4326   -8.6092   -3.3602   C.3       1 RES1   0.0000
   219 C72      -6.0618   -8.8873   -1.9860   C.3       1 RES1   0.0000
   220 C73      -5.8635   -7.7731   -0.9520   C.3       1 RES1   0.0000
   221 C74      -6.6483   -6.4913   -1.2543   C.3       1 RES1   0.0000
   222 C75      -6.9265   -5.6415    0.0003   C.3       1 RES1   0.0000
   223 C76      -7.7472   -4.3960   -0.3675   C.3       1 RES1   0.0000
   224 C77      -8.4606   -3.7162    0.8148   C.3       1 RES1   0.0000
   225 C78      -7.8132   -2.4246    1.3148   C.3       1 RES1   0.0000
   226 C79      -8.6975   -1.7356    2.3467   C.3       1 RES1   0.0000
   227 C80      -5.6676   -5.3478    0.8343   C.3       1 RES1   0.0000
   228 C81      -4.5052   -4.6748    0.0917   C.3       1 RES1   0.0000
   229 C82      -4.4663   -3.1544    0.2544   C.3       1 RES1   0.0000
   230 N5       -3.3802   -2.5361   -0.4989   N.am      1 RES1   0.0000
   231 C83      -3.6685   -2.0715   -1.8418   C.3       1 RES1   0.0000
   232 C84      -2.1377   -2.3963   -0.0739   C.2       1 RES1   0.0000
   233 O7       -1.2574   -1.8004   -0.7419   O.2       1 RES1   0.0000
   234 C85      -1.7204   -2.9450    1.2858   C.3       1 RES1   0.0000
   235 O8       -1.3901   -1.8059    2.0863   O.3       1 RES1   0.0000
   236 C86      -0.5130   -2.1236    3.1553   C.3       1 RES1   0.0000
   237 C87       0.9164   -2.1404    2.6020   C.2       1 RES1   0.0000
   238 O9        1.0607   -1.7040    1.4372   O.2       1 RES1   0.0000
   239 N6        1.9161   -2.5934    3.3389   N.am      1 RES1   0.0000
   240 C88       3.2637   -2.5340    2.8078   C.3       1 RES1   0.0000
   241 C89       1.8408   -3.1839    4.6708   C.3       1 RES1   0.0000
   242 C90       2.3358   -2.2572    5.7888   C.3       1 RES1   0.0000
   243 C91       1.3127   -1.1929    6.2127   C.3       1 RES1   0.0000
   244 C92       1.7961    0.2637    6.1755   C.3       1 RES1   0.0000
   245 C93       2.1646    0.7222    4.7558   C.3       1 RES1   0.0000
   246 C94       2.5593    2.1957    4.6988   C.3       1 RES1   0.0000
   247 C95       3.1121    2.6268    3.3412   C.3       1 RES1   0.0000
   248 C96       3.2969    4.1400    3.2894   C.3       1 RES1   0.0000
   249 C97       0.7062    1.1457    6.8196   C.3       1 RES1   0.0000
   250 C98       1.2477    2.2192    7.7648   C.3       1 RES1   0.0000
   251 C99       0.1719    2.7904    8.6896   C.3       1 RES1   0.0000
   252 C100     -1.0505    3.3830    7.9894   C.3       1 RES1   0.0000
   253 C101     -0.7244    4.5566    7.0696   C.3       1 RES1   0.0000
   254 C102     -1.9859    5.2736    6.6057   C.3       1 RES1   0.0000
   255 H137     -2.1836   -9.8439   -2.9909   H         1 RES1   0.0000
   256 H138     -3.2759   -9.3586   -1.6987   H         1 RES1   0.0000
   257 H139     -2.6657   -8.1561   -2.8423   H         1 RES1   0.0000
   258 H140     -4.4494  -10.5068   -3.6108   H         1 RES1   0.0000
   259 H141     -3.8803   -9.2441   -4.6935   H         1 RES1   0.0000
   260 H142     -6.1642   -8.8115   -4.1428   H         1 RES1   0.0000
   261 H143     -5.1726   -7.5535   -3.4385   H         1 RES1   0.0000
   262 H144     -5.6347   -9.8067   -1.5848   H         1 RES1   0.0000
   263 H145     -7.1318   -9.0647   -2.0998   H         1 RES1   0.0000
   264 H146     -4.7989   -7.5456   -0.8734   H         1 RES1   0.0000
   265 H147     -6.1997   -8.1579    0.0131   H         1 RES1   0.0000
   266 H148     -7.6175   -6.7721   -1.6703   H         1 RES1   0.0000
   267 H149     -6.1389   -5.8996   -2.0193   H         1 RES1   0.0000
   268 H150     -7.5641   -6.2536    0.6462   H         1 RES1   0.0000
   269 H151     -8.5097   -4.7230   -1.0735   H         1 RES1   0.0000
   270 H152     -7.1279   -3.6710   -0.8973   H         1 RES1   0.0000
   271 H153     -8.5414   -4.4172    1.6470   H         1 RES1   0.0000
   272 H154     -9.4781   -3.4684    0.5101   H         1 RES1   0.0000
   273 H155     -7.6628   -1.7446    0.4695   H         1 RES1   0.0000
   274 H156     -6.8379   -2.6373    1.7609   H         1 RES1   0.0000
   275 H157     -9.6574   -1.4820    1.9080   H         1 RES1   0.0000
   276 H158     -8.2333   -0.8205    2.7065   H         1 RES1   0.0000
   277 H159     -8.8797   -2.3934    3.1923   H         1 RES1   0.0000
   278 H160     -5.3026   -6.3023    1.2173   H         1 RES1   0.0000
   279 H161     -5.9458   -4.7489    1.7021   H         1 RES1   0.0000
   280 H162     -4.5679   -4.9197   -0.9648   H         1 RES1   0.0000
   281 H163     -3.5660   -5.0859    0.4636   H         1 RES1   0.0000
   282 H164     -4.3745   -2.8881    1.3086   H         1 RES1   0.0000
   283 H165     -5.4007   -2.7258   -0.1032   H         1 RES1   0.0000
   284 H166     -4.7157   -2.2453   -2.0722   H         1 RES1   0.0000
   285 H167     -3.0379   -2.5964   -2.5580   H         1 RES1   0.0000
   286 H168     -3.4446   -1.0100   -1.9248   H         1 RES1   0.0000
   287 H169     -0.8298   -3.5651    1.1050   H         1 RES1   0.0000
   288 H170     -2.4816   -3.5498    1.7884   H         1 RES1   0.0000
   289 H171     -0.7972   -3.0714    3.6245   H         1 RES1   0.0000
   290 H172     -0.6244   -1.3141    3.8828   H         1 RES1   0.0000
   291 H173      3.2207   -2.1537    1.7907   H         1 RES1   0.0000
   292 H174      3.8769   -1.8854    3.4267   H         1 RES1   0.0000
   293 H175      3.7034   -3.5310    2.8167   H         1 RES1   0.0000
   294 H176      2.4743   -4.0743    4.6471   H         1 RES1   0.0000
   295 H177      0.8261   -3.5129    4.8841   H         1 RES1   0.0000
   296 H178      3.2749   -1.7869    5.5014   H         1 RES1   0.0000
   297 H179      2.5661   -2.8940    6.6414   H         1 RES1   0.0000
   298 H180      1.0017   -1.4112    7.2334   H         1 RES1   0.0000
   299 H181      0.4190   -1.2654    5.5936   H         1 RES1   0.0000
   300 H182      2.6979    0.3419    6.7871   H         1 RES1   0.0000
   301 H183      1.3359    0.5417    4.0597   H         1 RES1   0.0000
   302 H184      3.0123    0.1355    4.3994   H         1 RES1   0.0000
   303 H185      3.3146    2.3881    5.4612   H         1 RES1   0.0000
   304 H186      1.6936    2.8165    4.9269   H         1 RES1   0.0000
   305 H187      2.4361    2.3013    2.5389   H         1 RES1   0.0000
   306 H188      4.0819    2.1527    3.1769   H         1 RES1   0.0000
   307 H189      2.3455    4.6508    3.4187   H         1 RES1   0.0000
   308 H190      3.7325    4.4481    2.3425   H         1 RES1   0.0000
   309 H191      3.9624    4.4636    4.0852   H         1 RES1   0.0000
   310 H192      0.0310    0.5141    7.3997   H         1 RES1   0.0000
   311 H193      0.1132    1.6101    6.0333   H         1 RES1   0.0000
   312 H194      1.7186    3.0218    7.1991   H         1 RES1   0.0000
   313 H195      2.0187    1.7723    8.3952   H         1 RES1   0.0000
   314 H196      0.6304    3.5654    9.3041   H         1 RES1   0.0000
   315 H197     -0.1647    1.9980    9.3610   H         1 RES1   0.0000
   316 H198     -1.7357    3.7314    8.7629   H         1 RES1   0.0000
   317 H199     -1.5733    2.6029    7.4289   H         1 RES1   0.0000
   318 H200     -0.1556    4.2113    6.2025   H         1 RES1   0.0000
   319 H201     -0.0933    5.2612    7.6100   H         1 RES1   0.0000
   320 H202     -2.6730    4.5847    6.1175   H         1 RES1   0.0000
   321 H203     -1.7438    6.0694    5.9078   H         1 RES1   0.0000
   322 H204     -2.4995    5.7171    7.4529   H         1 RES1   0.0000
@<TRIPOS>BOND
     1     1    19    1
     2     1    21    1
     3     1    24    1
     4     1   126    1
     5     1   128    1
     6     1   131    1
     7     1   233    1
     8     1   235    1
     9     1   238    1
    10     2     3    1
    11     2    41    1
    12     2    42    1
    13     2    43    1
    14     3     4    1
    15     3    44    1
    16     3    45    1
    17     4     5    1
    18     4    46    1
    19     4    47    1
    20     5     6    1
    21     5    48    1
    22     5    49    1
    23     6     7    1
    24     6    50    1
    25     6    51    1
    26     7     8    1
    27     7    52    1
    28     7    53    1
    29     8     9    1
    30     8    13    1
    31     8    54    1
    32     9    10    1
    33     9    55    1
    34     9    56    1
    35    10    11    1
    36    10    57    1
    37    10    58    1
    38    11    12    1
    39    11    59    1
    40    11    60    1
    41    12    61    1
    42    12    62    1
    43    12    63    1
    44    13    14    1
    45    13    64    1
    46    13    65    1
    47    14    15    1
    48    14    66    1
    49    14    67    1
    50    15    16    1
    51    15    68    1
    52    15    69    1
    53    16    17    1
    54    16    18    1
    55    17    70    1
    56    17    71    1
    57    17    72    1
    58    18    19    2
    59    18    20    1
    60    20    21    1
    61    20    73    1
    62    20    74    1
    63    21    22    1
    64    22    23    1
    65    22    75    1
    66    22    76    1
    67    23    24    2
    68    23    25    1
    69    25    26    1
    70    25    27    1
    71    26    77    1
    72    26    78    1
    73    26    79    1
    74    27    28    1
    75    27    80    1
    76    27    81    1
    77    28    29    1
    78    28    82    1
    79    28    83    1
    80    29    30    1
    81    29    84    1
    82    29    85    1
    83    30    31    1
    84    30    35    1
    85    30    86    1
    86    31    32    1
    87    31    87    1
    88    31    88    1
    89    32    33    1
    90    32    89    1
    91    32    90    1
    92    33    34    1
    93    33    91    1
    94    33    92    1
    95    34    93    1
    96    34    94    1
    97    34    95    1
    98    35    36    1
    99    35    96    1
   100    35    97    1
   101    36    37    1
   102    36    98    1
   103    36    99    1
   104    37    38    1
   105    37   100    1
   106    37   101    1
   107    38    39    1
   108    38   102    1
   109    38   103    1
   110    39    40    1
   111    39   104    1
   112    39   105    1
   113    40   106    1
   114    40   107    1
   115    40   108    1
   116   109   110    1
   117   109   148    1
   118   109   149    1
   119   109   150    1
   120   110   111    1
   121   110   151    1
   122   110   152    1
   123   111   112    1
   124   111   153    1
   125   111   154    1
   126   112   113    1
   127   112   155    1
   128   112   156    1
   129   113   114    1
   130   113   157    1
   131   113   158    1
   132   114   115    1
   133   114   159    1
   134   114   160    1
   135   115   116    1
   136   115   120    1
   137   115   161    1
   138   116   117    1
   139   116   162    1
   140   116   163    1
   141   117   118    1
   142   117   164    1
   143   117   165    1
   144   118   119    1
   145   118   166    1
   146   118   167    1
   147   119   168    1
   148   119   169    1
   149   119   170    1
   150   120   121    1
   151   120   171    1
   152   120   172    1
   153   121   122    1
   154   121   173    1
   155   121   174    1
   156   122   123    1
   157   122   175    1
   158   122   176    1
   159   123   124    1
   160   123   125    1
   161   124   177    1
   162   124   178    1
   163   124   179    1
   164   125   126    2
   165   125   127    1
   166   127   128    1
   167   127   180    1
   168   127   181    1
   169   128   129    1
   170   129   130    1
   171   129   182    1
   172   129   183    1
   173   130   131    2
   174   130   132    1
   175   132   133    1
   176   132   134    1
   177   133   184    1
   178   133   185    1
   179   133   186    1
   180   134   135    1
   181   134   187    1
   182   134   188    1
   183   135   136    1
   184   135   189    1
   185   135   190    1
   186   136   137    1
   187   136   191    1
   188   136   192    1
   189   137   138    1
   190   137   142    1
   191   137   193    1
   192   138   139    1
   193   138   194    1
   194   138   195    1
   195   139   140    1
   196   139   196    1
   197   139   197    1
   198   140   141    1
   199   140   198    1
   200   140   199    1
   201   141   200    1
   202   141   201    1
   203   141   202    1
   204   142   143    1
   205   142   203    1
   206   142   204    1
   207   143   144    1
   208   143   205    1
   209   143   206    1
   210   144   145    1
   211   144   207    1
   212   144   208    1
   213   145   146    1
   214   145   209    1
   215   145   210    1
   216   146   147    1
   217   146   211    1
   218   146   212    1
   219   147   213    1
   220   147   214    1
   221   147   215    1
   222   216   217    1
   223   216   255    1
   224   216   256    1
   225   216   257    1
   226   217   218    1
   227   217   258    1
   228   217   259    1
   229   218   219    1
   230   218   260    1
   231   218   261    1
   232   219   220    1
   233   219   262    1
   234   219   263    1
   235   220   221    1
   236   220   264    1
   237   220   265    1
   238   221   222    1
   239   221   266    1
   240   221   267    1
   241   222   223    1
   242   222   227    1
   243   222   268    1
   244   223   224    1
   245   223   269    1
   246   223   270    1
   247   224   225    1
   248   224   271    1
   249   224   272    1
   250   225   226    1
   251   225   273    1
   252   225   274    1
   253   226   275    1
   254   226   276    1
   255   226   277    1
   256   227   228    1
   257   227   278    1
   258   227   279    1
   259   228   229    1
   260   228   280    1
   261   228   281    1
   262   229   230    1
   263   229   282    1
   264   229   283    1
   265   230   231    1
   266   230   232    1
   267   231   284    1
   268   231   285    1
   269   231   286    1
   270   232   233    2
   271   232   234    1
   272   234   235    1
   273   234   287    1
   274   234   288    1
   275   235   236    1
   276   236   237    1
   277   236   289    1
   278   236   290    1
   279   237   238    2
   280   237   239    1
   281   239   240    1
   282   239   241    1
   283   240   291    1
   284   240   292    1
   285   240   293    1
   286   241   242    1
   287   241   294    1
   288   241   295    1
   289   242   243    1
   290   242   296    1
   291   242   297    1
   292   243   244    1
   293   243   298    1
   294   243   299    1
   295   244   245    1
   296   244   249    1
   297   244   300    1
   298   245   246    1
   299   245   301    1
   300   245   302    1
   301   246   247    1
   302   246   303    1
   303   246   304    1
   304   247   248    1
   305   247   305    1
   306   247   306    1
   307   248   307    1
   308   248   308    1
   309   248   309    1
   310   249   250    1
   311   249   310    1
   312   249   311    1
   313   250   251    1
   314   250   312    1
   315   250   313    1
   316   251   252    1
   317   251   314    1
   318   251   315    1
   319   252   253    1
   320   252   316    1
   321   252   317    1
   322   253   254    1
   323   253   318    1
   324   253   319    1
   325   254   320    1
   326   254   321    1
   327   254   322    1
@<TRIPOS>SUBSTRUCTURE
     1 RES1      322 GROUP             0 ****  ****    0  
