@<TRIPOS>MOLECULE
tri_tri_mer_capped_0_nunpairedes_0_charge_3 Charge: 3 Unpaired_Electrons: 1 XTB_Unpaired_Electrons: 0 XTB_Charge: 3
   286   291     1     0     0
SMALL
NoCharges
****
Generated from Architector

@<TRIPOS>ATOM
     1 Ce1       0.2889    0.8225   -0.1114   Ce        1 RES1   0.0000
     2 C1        2.1703   -9.6163   -5.5258   C.3       1 RES1   0.0000
     3 C2        2.3956   -8.4768   -4.5373   C.3       1 RES1   0.0000
     4 C3        3.3505   -8.9293   -3.4355   C.3       1 RES1   0.0000
     5 C4        1.0783   -7.9911   -3.9177   C.3       1 RES1   0.0000
     6 C5        0.1254   -7.3492   -4.9403   C.3       1 RES1   0.0000
     7 C6       -0.3222   -5.9460   -4.5365   C.3       1 RES1   0.0000
     8 C7       -1.1627   -5.8624   -3.2568   C.3       1 RES1   0.0000
     9 C8       -2.5414   -6.4976   -3.3996   C.3       1 RES1   0.0000
    10 C9       -1.2732   -4.3757   -2.8904   C.3       1 RES1   0.0000
    11 C10      -2.0534   -4.0799   -1.6145   C.3       1 RES1   0.0000
    12 C11      -1.3544   -4.6595   -0.3756   C.3       1 RES1   0.0000
    13 C12      -1.0124   -3.5827    0.6590   C.3       1 RES1   0.0000
    14 N1        0.3997   -3.2942    0.9069   N.am      1 RES1   0.0000
    15 C13       1.0731   -4.0477    1.9387   C.3       1 RES1   0.0000
    16 C14       0.8502   -2.1019    0.5542   C.2       1 RES1   0.0000
    17 O1        0.1846   -1.3512   -0.1848   O.2       1 RES1   0.0000
    18 C15       2.2264   -1.6528    1.0741   C.3       1 RES1   0.0000
    19 O2        2.2495   -0.2316    1.1806   O.3       1 RES1   0.0000
    20 C16       2.4738    0.2770    2.4950   C.3       1 RES1   0.0000
    21 C17       1.6045    1.5252    2.7108   C.2       1 RES1   0.0000
    22 O3        0.6536    1.7414    1.9285   O.2       1 RES1   0.0000
    23 N2        1.8827    2.3065    3.7422   N.am      1 RES1   0.0000
    24 C18       3.0994    2.2533    4.5291   C.3       1 RES1   0.0000
    25 C19       0.9764    3.4039    4.0600   C.3       1 RES1   0.0000
    26 C20      -0.2135    2.9689    4.9218   C.3       1 RES1   0.0000
    27 C21       0.0889    2.6986    6.3984   C.3       1 RES1   0.0000
    28 C22       0.5745    1.2874    6.7309   C.3       1 RES1   0.0000
    29 C23      -0.4191    0.1185    6.6155   C.3       1 RES1   0.0000
    30 C24       0.4143   -1.1404    6.8971   C.3       1 RES1   0.0000
    31 C25      -1.5971    0.1859    7.6039   C.3       1 RES1   0.0000
    32 C26      -2.8799    0.8866    7.1376   C.3       1 RES1   0.0000
    33 C27      -3.6403    0.1600    6.0223   C.3       1 RES1   0.0000
    34 C28      -5.1319    0.5364    5.9808   C.3       1 RES1   0.0000
    35 C29      -5.8675   -0.2821    4.9181   C.3       1 RES1   0.0000
    36 C30      -5.3582    2.0234    5.7146   C.3       1 RES1   0.0000
    37 H1        3.1012   -9.8682   -6.0260   H         1 RES1   0.0000
    38 H2        1.8116  -10.5025   -5.0096   H         1 RES1   0.0000
    39 H3        1.4439   -9.3462   -6.2879   H         1 RES1   0.0000
    40 H4        2.8485   -7.6329   -5.0746   H         1 RES1   0.0000
    41 H5        2.8961   -9.7213   -2.8464   H         1 RES1   0.0000
    42 H6        4.2701   -9.3147   -3.8633   H         1 RES1   0.0000
    43 H7        3.6036   -8.1086   -2.7688   H         1 RES1   0.0000
    44 H8        0.5862   -8.8276   -3.4181   H         1 RES1   0.0000
    45 H9        1.3315   -7.2617   -3.1442   H         1 RES1   0.0000
    46 H10       0.6407   -7.2543   -5.8972   H         1 RES1   0.0000
    47 H11      -0.7449   -7.9823   -5.1115   H         1 RES1   0.0000
    48 H12       0.5788   -5.3407   -4.3866   H         1 RES1   0.0000
    49 H13      -0.8782   -5.4947   -5.3607   H         1 RES1   0.0000
    50 H14      -0.6311   -6.4017   -2.4674   H         1 RES1   0.0000
    51 H15      -3.1689   -5.9270   -4.0799   H         1 RES1   0.0000
    52 H16      -2.4598   -7.5109   -3.7750   H         1 RES1   0.0000
    53 H17      -3.0354   -6.5605   -2.4331   H         1 RES1   0.0000
    54 H18      -0.2651   -3.9597   -2.7780   H         1 RES1   0.0000
    55 H19      -1.7414   -3.8551   -3.7299   H         1 RES1   0.0000
    56 H20      -2.1280   -2.9922   -1.5219   H         1 RES1   0.0000
    57 H21      -3.0651   -4.4733   -1.7057   H         1 RES1   0.0000
    58 H22      -1.9939   -5.4111    0.0868   H         1 RES1   0.0000
    59 H23      -0.4439   -5.1567   -0.6979   H         1 RES1   0.0000
    60 H24      -1.4430   -2.6426    0.3200   H         1 RES1   0.0000
    61 H25      -1.4453   -3.8346    1.6234   H         1 RES1   0.0000
    62 H26       0.5549   -4.9837    2.0724   H         1 RES1   0.0000
    63 H27       2.1015   -4.2558    1.6801   H         1 RES1   0.0000
    64 H28       1.0777   -3.4893    2.8768   H         1 RES1   0.0000
    65 H29       2.4456   -2.1060    2.0411   H         1 RES1   0.0000
    66 H30       2.9949   -1.9629    0.3519   H         1 RES1   0.0000
    67 H31       2.1608   -0.4630    3.2463   H         1 RES1   0.0000
    68 H32       3.5415    0.5070    2.6208   H         1 RES1   0.0000
    69 H33       3.4463    1.2374    4.6999   H         1 RES1   0.0000
    70 H34       3.8888    2.8296    4.0355   H         1 RES1   0.0000
    71 H35       2.8997    2.7111    5.4969   H         1 RES1   0.0000
    72 H36       1.5511    4.1791    4.5669   H         1 RES1   0.0000
    73 H37       0.6050    3.8034    3.1161   H         1 RES1   0.0000
    74 H38      -0.9194    3.7943    4.8722   H         1 RES1   0.0000
    75 H39      -0.6869    2.0984    4.4688   H         1 RES1   0.0000
    76 H40       0.8408    3.4144    6.7425   H         1 RES1   0.0000
    77 H41      -0.8069    2.9026    6.9825   H         1 RES1   0.0000
    78 H42       1.4246    1.0467    6.0891   H         1 RES1   0.0000
    79 H43       0.9396    1.3021    7.7610   H         1 RES1   0.0000
    80 H44      -0.8069    0.0654    5.5905   H         1 RES1   0.0000
    81 H45       0.9521   -1.0277    7.8360   H         1 RES1   0.0000
    82 H46      -0.1981   -2.0339    6.9812   H         1 RES1   0.0000
    83 H47       1.1493   -1.3050    6.1101   H         1 RES1   0.0000
    84 H48      -1.8693   -0.8368    7.8761   H         1 RES1   0.0000
    85 H49      -1.2538    0.6684    8.5208   H         1 RES1   0.0000
    86 H50      -3.5352    0.9403    8.0091   H         1 RES1   0.0000
    87 H51      -2.6690    1.9081    6.8259   H         1 RES1   0.0000
    88 H52      -3.1806    0.3711    5.0490   H         1 RES1   0.0000
    89 H53      -3.5745   -0.9180    6.1982   H         1 RES1   0.0000
    90 H54      -5.5649    0.2943    6.9568   H         1 RES1   0.0000
    91 H55      -5.4789   -0.0511    3.9244   H         1 RES1   0.0000
    92 H56      -5.7634   -1.3500    5.0982   H         1 RES1   0.0000
    93 H57      -6.9275   -0.0411    4.9277   H         1 RES1   0.0000
    94 H58      -4.9103    2.3121    4.7645   H         1 RES1   0.0000
    95 H59      -6.4248    2.2353    5.6695   H         1 RES1   0.0000
    96 H60      -4.9332    2.6382    6.5026   H         1 RES1   0.0000
    97 C31       7.4566   -4.9393    4.8988   C.3       1 RES1   0.0000
    98 C32       6.2609   -4.7747    3.9643   C.3       1 RES1   0.0000
    99 C33       6.2828   -5.8819    2.9099   C.3       1 RES1   0.0000
   100 C34       6.2488   -3.4073    3.2623   C.3       1 RES1   0.0000
   101 C35       6.1174   -2.2097    4.2037   C.3       1 RES1   0.0000
   102 C36       5.8023   -0.9080    3.4565   C.3       1 RES1   0.0000
   103 C37       7.0261   -0.2738    2.7813   C.3       1 RES1   0.0000
   104 C38       7.8902    0.4856    3.7852   C.3       1 RES1   0.0000
   105 C39       6.6530    0.5872    1.5572   C.3       1 RES1   0.0000
   106 C40       5.9925    1.9374    1.8470   C.3       1 RES1   0.0000
   107 C41       6.0086    2.9107    0.6593   C.3       1 RES1   0.0000
   108 C42       4.8361    2.8240   -0.3255   C.3       1 RES1   0.0000
   109 N3        4.7014    1.5713   -1.0741   N.am      1 RES1   0.0000
   110 C43       5.8674    1.0237   -1.7424   C.3       1 RES1   0.0000
   111 C44       3.4915    1.0544   -1.2367   C.2       1 RES1   0.0000
   112 O4        2.4482    1.5898   -0.8038   O.2       1 RES1   0.0000
   113 C45       3.3886   -0.2692   -2.0064   C.3       1 RES1   0.0000
   114 O5        2.0585   -0.7360   -1.8758   O.3       1 RES1   0.0000
   115 C46       1.4480   -1.2822   -3.0329   C.3       1 RES1   0.0000
   116 C47       0.1225   -0.5513   -3.2766   C.2       1 RES1   0.0000
   117 O6       -0.2862    0.2726   -2.4317   O.2       1 RES1   0.0000
   118 N4       -0.5238   -0.8098   -4.4053   N.am      1 RES1   0.0000
   119 C48      -0.1604   -1.8391   -5.3620   C.3       1 RES1   0.0000
   120 C49      -1.6901   -0.0008   -4.7523   C.3       1 RES1   0.0000
   121 C50      -1.3965    1.4965   -4.8847   C.3       1 RES1   0.0000
   122 C51      -0.4998    1.8923   -6.0613   C.3       1 RES1   0.0000
   123 C52       0.9994    1.6236   -5.9027   C.3       1 RES1   0.0000
   124 C53       1.7285    2.3501   -4.7606   C.3       1 RES1   0.0000
   125 C54       3.2034    1.9370   -4.7998   C.3       1 RES1   0.0000
   126 C55       1.6418    3.8827   -4.8822   C.3       1 RES1   0.0000
   127 C56       0.7615    4.5727   -3.8425   C.3       1 RES1   0.0000
   128 C57       1.2640    4.4041   -2.4012   C.3       1 RES1   0.0000
   129 C58       1.1197    5.6894   -1.5726   C.3       1 RES1   0.0000
   130 C59       1.6630    5.4524   -0.1640   C.3       1 RES1   0.0000
   131 C60      -0.3209    6.1888   -1.4927   C.3       1 RES1   0.0000
   132 H61       7.4673   -5.9452    5.3129   H         1 RES1   0.0000
   133 H62       8.3879   -4.7851    4.3567   H         1 RES1   0.0000
   134 H63       7.4130   -4.2385    5.7290   H         1 RES1   0.0000
   135 H64       5.3409   -4.8785    4.5558   H         1 RES1   0.0000
   136 H65       7.1923   -5.8222    2.3157   H         1 RES1   0.0000
   137 H66       6.2485   -6.8611    3.3792   H         1 RES1   0.0000
   138 H67       5.4249   -5.7972    2.2453   H         1 RES1   0.0000
   139 H68       7.1646   -3.3145    2.6754   H         1 RES1   0.0000
   140 H69       5.4043   -3.4000    2.5613   H         1 RES1   0.0000
   141 H70       5.3215   -2.4139    4.9224   H         1 RES1   0.0000
   142 H71       7.0366   -2.0923    4.7728   H         1 RES1   0.0000
   143 H72       5.0506   -1.1303    2.6912   H         1 RES1   0.0000
   144 H73       5.3664   -0.1940    4.1578   H         1 RES1   0.0000
   145 H74       7.6326   -1.0900    2.3797   H         1 RES1   0.0000
   146 H75       7.3222    1.2314    4.3356   H         1 RES1   0.0000
   147 H76       8.3144   -0.2005    4.5109   H         1 RES1   0.0000
   148 H77       8.7129    0.9853    3.2818   H         1 RES1   0.0000
   149 H78       7.5761    0.7816    1.0083   H         1 RES1   0.0000
   150 H79       6.0019   -0.0064    0.9090   H         1 RES1   0.0000
   151 H80       4.9604    1.7996    2.1690   H         1 RES1   0.0000
   152 H81       6.5350    2.4145    2.6624   H         1 RES1   0.0000
   153 H82       5.9706    3.9310    1.0493   H         1 RES1   0.0000
   154 H83       6.9622    2.8189    0.1398   H         1 RES1   0.0000
   155 H84       3.8899    2.9565    0.2115   H         1 RES1   0.0000
   156 H85       4.9412    3.6407   -1.0503   H         1 RES1   0.0000
   157 H86       6.6977    1.7094   -1.6097   H         1 RES1   0.0000
   158 H87       6.1502    0.0564   -1.3244   H         1 RES1   0.0000
   159 H88       5.6931    0.9075   -2.8127   H         1 RES1   0.0000
   160 H89       3.6545   -0.0969   -3.0566   H         1 RES1   0.0000
   161 H90       4.0888   -1.0189   -1.6039   H         1 RES1   0.0000
   162 H91       2.0945   -1.1773   -3.9124   H         1 RES1   0.0000
   163 H92       1.2579   -2.3527   -2.8597   H         1 RES1   0.0000
   164 H93       0.5282   -2.5657   -4.9442   H         1 RES1   0.0000
   165 H94      -1.0619   -2.3716   -5.6642   H         1 RES1   0.0000
   166 H95       0.2751   -1.4059   -6.2647   H         1 RES1   0.0000
   167 H96      -2.0728   -0.3740   -5.7017   H         1 RES1   0.0000
   168 H97      -2.4525   -0.1549   -3.9796   H         1 RES1   0.0000
   169 H98      -2.3670    1.9698   -5.0427   H         1 RES1   0.0000
   170 H99      -0.9788    1.8663   -3.9492   H         1 RES1   0.0000
   171 H100     -0.8461    1.3690   -6.9559   H         1 RES1   0.0000
   172 H101     -0.6444    2.9578   -6.2483   H         1 RES1   0.0000
   173 H102      1.1686    0.5496   -5.7935   H         1 RES1   0.0000
   174 H103      1.4766    1.9277   -6.8365   H         1 RES1   0.0000
   175 H104      1.3072    2.0331   -3.7959   H         1 RES1   0.0000
   176 H105      3.6939    2.3763   -5.6653   H         1 RES1   0.0000
   177 H106      3.7178    2.2855   -3.9070   H         1 RES1   0.0000
   178 H107      3.3210    0.8565   -4.8759   H         1 RES1   0.0000
   179 H108      2.6458    4.3012   -4.7975   H         1 RES1   0.0000
   180 H109      1.2860    4.1435   -5.8790   H         1 RES1   0.0000
   181 H110      0.7666    5.6346   -4.0882   H         1 RES1   0.0000
   182 H111     -0.2678    4.2293   -3.9332   H         1 RES1   0.0000
   183 H112      0.7464    3.5700   -1.8788   H         1 RES1   0.0000
   184 H113      2.3273    4.1507   -2.4226   H         1 RES1   0.0000
   185 H114      1.7238    6.4651   -2.0577   H         1 RES1   0.0000
   186 H115      1.1494    4.5982    0.2936   H         1 RES1   0.0000
   187 H116      2.7316    5.2470   -0.1917   H         1 RES1   0.0000
   188 H117      1.5027    6.3321    0.4553   H         1 RES1   0.0000
   189 H118     -0.9406    5.4489   -0.9912   H         1 RES1   0.0000
   190 H119     -0.3617    7.1161   -0.9247   H         1 RES1   0.0000
   191 H120     -0.7344    6.3848   -2.4788   H         1 RES1   0.0000
   192 C61       2.7722   -5.1370   -1.8428   C.3       1 RES1   0.0000
   193 C62       3.4224   -5.1908   -0.4644   C.3       1 RES1   0.0000
   194 C63       4.8761   -4.7350   -0.5767   C.3       1 RES1   0.0000
   195 C64       3.3067   -6.5841    0.1741   C.3       1 RES1   0.0000
   196 C65       1.8582   -7.0037    0.4854   C.3       1 RES1   0.0000
   197 C66       1.5863   -7.1830    1.9860   C.3       1 RES1   0.0000
   198 C67       0.0810   -7.1587    2.3469   C.3       1 RES1   0.0000
   199 C68      -0.4721   -8.5838    2.3147   C.3       1 RES1   0.0000
   200 C69      -0.2054   -6.4612    3.7047   C.3       1 RES1   0.0000
   201 C70      -1.5207   -5.6548    3.7231   C.3       1 RES1   0.0000
   202 C71      -1.5954   -4.5742    4.8254   C.3       1 RES1   0.0000
   203 C72      -1.3053   -3.1093    4.4333   C.3       1 RES1   0.0000
   204 N5       -2.2125   -2.4801    3.4671   N.am      1 RES1   0.0000
   205 C73      -3.5958   -2.8744    3.6355   C.3       1 RES1   0.0000
   206 C74      -1.7840   -1.5036    2.6548   C.2       1 RES1   0.0000
   207 O7       -0.6137   -1.1198    2.5709   O.2       1 RES1   0.0000
   208 C75      -2.8376   -0.8952    1.7167   C.3       1 RES1   0.0000
   209 O8       -2.2413    0.0473    0.8324   O.3       1 RES1   0.0000
   210 C76      -3.2453    0.5776   -0.0230   C.3       1 RES1   0.0000
   211 C77      -2.6534    1.7543   -0.7962   C.2       1 RES1   0.0000
   212 O9       -1.4829    2.1085   -0.5307   O.2       1 RES1   0.0000
   213 N6       -3.3900    2.3964   -1.6889   N.am      1 RES1   0.0000
   214 C78      -2.7836    3.5369   -2.3563   C.3       1 RES1   0.0000
   215 C79      -4.7346    2.0491   -2.1394   C.3       1 RES1   0.0000
   216 C80      -5.6437    3.2887   -2.2478   C.3       1 RES1   0.0000
   217 C81      -7.1198    2.9771   -1.9678   C.3       1 RES1   0.0000
   218 C82      -7.5108    3.2069   -0.5054   C.3       1 RES1   0.0000
   219 C83      -6.6915    2.3919    0.5029   C.3       1 RES1   0.0000
   220 C84      -7.1979    0.9500    0.5827   C.3       1 RES1   0.0000
   221 C85      -6.7015    3.0519    1.8881   C.3       1 RES1   0.0000
   222 C86      -5.7216    4.2253    2.0007   C.3       1 RES1   0.0000
   223 C87      -4.2491    3.8239    1.8505   C.3       1 RES1   0.0000
   224 C88      -3.2745    4.8498    2.4435   C.3       1 RES1   0.0000
   225 C89      -1.8671    4.5910    1.9036   C.3       1 RES1   0.0000
   226 C90      -3.2801    4.7965    3.9687   C.3       1 RES1   0.0000
   227 H121      2.8301   -4.1212   -2.2302   H         1 RES1   0.0000
   228 H122      3.2857   -5.8016   -2.5299   H         1 RES1   0.0000
   229 H123      1.7264   -5.4319   -1.8026   H         1 RES1   0.0000
   230 H124      2.9013   -4.4602    0.1623   H         1 RES1   0.0000
   231 H125      5.4621   -5.4718   -1.1180   H         1 RES1   0.0000
   232 H126      4.9241   -3.7913   -1.1196   H         1 RES1   0.0000
   233 H127      5.3255   -4.5865    0.4026   H         1 RES1   0.0000
   234 H128      3.7643   -7.2971   -0.5105   H         1 RES1   0.0000
   235 H129      3.8929   -6.6019    1.0964   H         1 RES1   0.0000
   236 H130      1.1828   -6.2541    0.0706   H         1 RES1   0.0000
   237 H131      1.6359   -7.9379   -0.0249   H         1 RES1   0.0000
   238 H132      2.0039   -8.1394    2.3019   H         1 RES1   0.0000
   239 H133      2.1295   -6.4225    2.5484   H         1 RES1   0.0000
   240 H134     -0.4641   -6.6161    1.5634   H         1 RES1   0.0000
   241 H135     -0.0426   -9.1930    3.1082   H         1 RES1   0.0000
   242 H136     -1.5581   -8.5830    2.4132   H         1 RES1   0.0000
   243 H137     -0.2195   -9.0557    1.3662   H         1 RES1   0.0000
   244 H138     -0.2487   -7.2144    4.4911   H         1 RES1   0.0000
   245 H139      0.6218   -5.7998    3.9751   H         1 RES1   0.0000
   246 H140     -1.6878   -5.1895    2.7521   H         1 RES1   0.0000
   247 H141     -2.3390   -6.3593    3.8651   H         1 RES1   0.0000
   248 H142     -2.5717   -4.6279    5.3021   H         1 RES1   0.0000
   249 H143     -0.8691   -4.8316    5.5991   H         1 RES1   0.0000
   250 H144     -1.3603   -2.5211    5.3495   H         1 RES1   0.0000
   251 H145     -0.2934   -3.0042    4.0453   H         1 RES1   0.0000
   252 H146     -3.7447   -3.8833    3.2423   H         1 RES1   0.0000
   253 H147     -3.8212   -2.8910    4.7050   H         1 RES1   0.0000
   254 H148     -4.2985   -2.2020    3.1545   H         1 RES1   0.0000
   255 H149     -3.2920   -1.7010    1.1219   H         1 RES1   0.0000
   256 H150     -3.6241   -0.3853    2.2909   H         1 RES1   0.0000
   257 H151     -3.6105   -0.2103   -0.6987   H         1 RES1   0.0000
   258 H152     -4.0951    0.9478    0.5739   H         1 RES1   0.0000
   259 H153     -1.7025    3.4238   -2.2944   H         1 RES1   0.0000
   260 H154     -3.1065    3.5666   -3.3926   H         1 RES1   0.0000
   261 H155     -3.0808    4.4675   -1.8719   H         1 RES1   0.0000
   262 H156     -4.6501    1.5711   -3.1230   H         1 RES1   0.0000
   263 H157     -5.1705    1.3137   -1.4684   H         1 RES1   0.0000
   264 H158     -5.3238    4.0479   -1.5334   H         1 RES1   0.0000
   265 H159     -5.5469    3.7036   -3.2513   H         1 RES1   0.0000
   266 H160     -7.7238    3.6392   -2.5862   H         1 RES1   0.0000
   267 H161     -7.3519    1.9572   -2.2737   H         1 RES1   0.0000
   268 H162     -7.3948    4.2704   -0.2892   H         1 RES1   0.0000
   269 H163     -8.5677    2.9694   -0.3794   H         1 RES1   0.0000
   270 H164     -5.6500    2.3792    0.1801   H         1 RES1   0.0000
   271 H165     -8.1995    0.9368    1.0025   H         1 RES1   0.0000
   272 H166     -7.2452    0.4810   -0.4002   H         1 RES1   0.0000
   273 H167     -6.5590    0.3417    1.2266   H         1 RES1   0.0000
   274 H168     -7.7109    3.3983    2.1169   H         1 RES1   0.0000
   275 H169     -6.4400    2.3048    2.6429   H         1 RES1   0.0000
   276 H170     -5.9591    4.9904    1.2584   H         1 RES1   0.0000
   277 H171     -5.8683    4.6770    2.9800   H         1 RES1   0.0000
   278 H172     -4.0720    2.8629    2.3446   H         1 RES1   0.0000
   279 H173     -4.0013    3.6956    0.7918   H         1 RES1   0.0000
   280 H174     -3.5827    5.8524    2.1305   H         1 RES1   0.0000
   281 H175     -1.5616    3.5555    2.0782   H         1 RES1   0.0000
   282 H176     -1.8291    4.7784    0.8324   H         1 RES1   0.0000
   283 H177     -1.1549    5.2582    2.3827   H         1 RES1   0.0000
   284 H178     -3.0197    3.7977    4.3132   H         1 RES1   0.0000
   285 H179     -4.2560    5.0475    4.3726   H         1 RES1   0.0000
   286 H180     -2.5650    5.5075    4.3758   H         1 RES1   0.0000
@<TRIPOS>BOND
     1     1    17    1
     2     1    19    1
     3     1    22    1
     4     1   112    1
     5     1   114    1
     6     1   117    1
     7     1   207    1
     8     1   209    1
     9     1   212    1
    10     2     3    1
    11     2    37    1
    12     2    38    1
    13     2    39    1
    14     3     4    1
    15     3     5    1
    16     3    40    1
    17     4    41    1
    18     4    42    1
    19     4    43    1
    20     5     6    1
    21     5    44    1
    22     5    45    1
    23     6     7    1
    24     6    46    1
    25     6    47    1
    26     7     8    1
    27     7    48    1
    28     7    49    1
    29     8     9    1
    30     8    10    1
    31     8    50    1
    32     9    51    1
    33     9    52    1
    34     9    53    1
    35    10    11    1
    36    10    54    1
    37    10    55    1
    38    11    12    1
    39    11    56    1
    40    11    57    1
    41    12    13    1
    42    12    58    1
    43    12    59    1
    44    13    14    1
    45    13    60    1
    46    13    61    1
    47    14    15    1
    48    14    16    1
    49    15    62    1
    50    15    63    1
    51    15    64    1
    52    16    17    2
    53    16    18    1
    54    18    19    1
    55    18    65    1
    56    18    66    1
    57    19    20    1
    58    20    21    1
    59    20    67    1
    60    20    68    1
    61    21    22    2
    62    21    23    1
    63    23    24    1
    64    23    25    1
    65    24    69    1
    66    24    70    1
    67    24    71    1
    68    25    26    1
    69    25    72    1
    70    25    73    1
    71    26    27    1
    72    26    74    1
    73    26    75    1
    74    27    28    1
    75    27    76    1
    76    27    77    1
    77    28    29    1
    78    28    78    1
    79    28    79    1
    80    29    30    1
    81    29    31    1
    82    29    80    1
    83    30    81    1
    84    30    82    1
    85    30    83    1
    86    31    32    1
    87    31    84    1
    88    31    85    1
    89    32    33    1
    90    32    86    1
    91    32    87    1
    92    33    34    1
    93    33    88    1
    94    33    89    1
    95    34    35    1
    96    34    36    1
    97    34    90    1
    98    35    91    1
    99    35    92    1
   100    35    93    1
   101    36    94    1
   102    36    95    1
   103    36    96    1
   104    97    98    1
   105    97   132    1
   106    97   133    1
   107    97   134    1
   108    98    99    1
   109    98   100    1
   110    98   135    1
   111    99   136    1
   112    99   137    1
   113    99   138    1
   114   100   101    1
   115   100   139    1
   116   100   140    1
   117   101   102    1
   118   101   141    1
   119   101   142    1
   120   102   103    1
   121   102   143    1
   122   102   144    1
   123   103   104    1
   124   103   105    1
   125   103   145    1
   126   104   146    1
   127   104   147    1
   128   104   148    1
   129   105   106    1
   130   105   149    1
   131   105   150    1
   132   106   107    1
   133   106   151    1
   134   106   152    1
   135   107   108    1
   136   107   153    1
   137   107   154    1
   138   108   109    1
   139   108   155    1
   140   108   156    1
   141   109   110    1
   142   109   111    1
   143   110   157    1
   144   110   158    1
   145   110   159    1
   146   111   112    2
   147   111   113    1
   148   113   114    1
   149   113   160    1
   150   113   161    1
   151   114   115    1
   152   115   116    1
   153   115   162    1
   154   115   163    1
   155   116   117    2
   156   116   118    1
   157   118   119    1
   158   118   120    1
   159   119   164    1
   160   119   165    1
   161   119   166    1
   162   120   121    1
   163   120   167    1
   164   120   168    1
   165   121   122    1
   166   121   169    1
   167   121   170    1
   168   122   123    1
   169   122   171    1
   170   122   172    1
   171   123   124    1
   172   123   173    1
   173   123   174    1
   174   124   125    1
   175   124   126    1
   176   124   175    1
   177   125   176    1
   178   125   177    1
   179   125   178    1
   180   126   127    1
   181   126   179    1
   182   126   180    1
   183   127   128    1
   184   127   181    1
   185   127   182    1
   186   128   129    1
   187   128   183    1
   188   128   184    1
   189   129   130    1
   190   129   131    1
   191   129   185    1
   192   130   186    1
   193   130   187    1
   194   130   188    1
   195   131   189    1
   196   131   190    1
   197   131   191    1
   198   192   193    1
   199   192   227    1
   200   192   228    1
   201   192   229    1
   202   193   194    1
   203   193   195    1
   204   193   230    1
   205   194   231    1
   206   194   232    1
   207   194   233    1
   208   195   196    1
   209   195   234    1
   210   195   235    1
   211   196   197    1
   212   196   236    1
   213   196   237    1
   214   197   198    1
   215   197   238    1
   216   197   239    1
   217   198   199    1
   218   198   200    1
   219   198   240    1
   220   199   241    1
   221   199   242    1
   222   199   243    1
   223   200   201    1
   224   200   244    1
   225   200   245    1
   226   201   202    1
   227   201   246    1
   228   201   247    1
   229   202   203    1
   230   202   248    1
   231   202   249    1
   232   203   204    1
   233   203   250    1
   234   203   251    1
   235   204   205    1
   236   204   206    1
   237   205   252    1
   238   205   253    1
   239   205   254    1
   240   206   207    2
   241   206   208    1
   242   208   209    1
   243   208   255    1
   244   208   256    1
   245   209   210    1
   246   210   211    1
   247   210   257    1
   248   210   258    1
   249   211   212    2
   250   211   213    1
   251   213   214    1
   252   213   215    1
   253   214   259    1
   254   214   260    1
   255   214   261    1
   256   215   216    1
   257   215   262    1
   258   215   263    1
   259   216   217    1
   260   216   264    1
   261   216   265    1
   262   217   218    1
   263   217   266    1
   264   217   267    1
   265   218   219    1
   266   218   268    1
   267   218   269    1
   268   219   220    1
   269   219   221    1
   270   219   270    1
   271   220   271    1
   272   220   272    1
   273   220   273    1
   274   221   222    1
   275   221   274    1
   276   221   275    1
   277   222   223    1
   278   222   276    1
   279   222   277    1
   280   223   224    1
   281   223   278    1
   282   223   279    1
   283   224   225    1
   284   224   226    1
   285   224   280    1
   286   225   281    1
   287   225   282    1
   288   225   283    1
   289   226   284    1
   290   226   285    1
   291   226   286    1
@<TRIPOS>SUBSTRUCTURE
     1 RES1      286 GROUP             0 ****  ****    0  
