@<TRIPOS>MOLECULE
am_c3_9H2O_c0_0_nunpairedes_0_charge_3 Charge: 3 Unpaired_Electrons: 1 XTB_Unpaired_Electrons: 0 XTB_Charge: 3
   232   237     1     0     0
SMALL
NoCharges
****
Generated from Architector

@<TRIPOS>ATOM
     1 Ce1      -0.0778    0.0580    0.3108   Ce        1 RES1   0.0000
     2 C1       -2.9321   -0.1497   -6.0551   C.3       1 RES1   0.0000
     3 C2       -1.9024   -1.2523   -5.8599   C.3       1 RES1   0.0000
     4 C3       -2.4850   -2.6523   -6.0627   C.3       1 RES1   0.0000
     5 C4       -3.6548   -3.0080   -5.1423   C.3       1 RES1   0.0000
     6 C5       -3.2560   -3.0558   -3.6667   C.3       1 RES1   0.0000
     7 C6       -4.3921   -3.5432   -2.7655   C.3       1 RES1   0.0000
     8 C7       -5.4563   -2.4913   -2.4521   C.3       1 RES1   0.0000
     9 C8       -5.0699   -1.4347   -1.4074   C.3       1 RES1   0.0000
    10 N1       -4.4077   -0.2549   -1.9576   N.am      1 RES1   0.0000
    11 C9       -5.1937    0.5473   -2.8864   C.3       1 RES1   0.0000
    12 C10      -6.0940    1.5443   -2.1625   C.3       1 RES1   0.0000
    13 C11      -3.2644    0.1720   -1.4416   C.2       1 RES1   0.0000
    14 O1       -2.6427   -0.3847   -0.5166   O.2       1 RES1   0.0000
    15 C12      -2.6041    1.4173   -2.0488   C.3       1 RES1   0.0000
    16 O2       -1.6095    1.8768   -1.1410   O.3       1 RES1   0.0000
    17 C13      -2.1639    2.8085   -0.2048   C.3       1 RES1   0.0000
    18 C14      -1.3855    2.7841    1.1204   C.2       1 RES1   0.0000
    19 O3       -1.0798    1.6516    1.5557   O.2       1 RES1   0.0000
    20 N2       -1.2009    3.8891    1.8235   N.am      1 RES1   0.0000
    21 C15      -1.3426    5.2660    1.3664   C.3       1 RES1   0.0000
    22 C16      -0.0294    6.0399    1.5183   C.3       1 RES1   0.0000
    23 C17      -0.9068    3.7556    3.2537   C.3       1 RES1   0.0000
    24 C18      -2.2285    3.8122    4.0275   C.3       1 RES1   0.0000
    25 C19      -2.0485    3.7181    5.5452   C.3       1 RES1   0.0000
    26 C20      -1.8395    2.3049    6.0978   C.3       1 RES1   0.0000
    27 C21      -3.0992    1.4397    6.2448   C.3       1 RES1   0.0000
    28 C22      -3.6154    0.7780    4.9572   C.3       1 RES1   0.0000
    29 C23      -4.8255    1.4603    4.3141   C.3       1 RES1   0.0000
    30 C24      -5.0866    0.8917    2.9194   C.3       1 RES1   0.0000
    31 H1       -2.4503    0.8243   -6.0402   H         1 RES1   0.0000
    32 H2       -3.4304   -0.2657   -7.0126   H         1 RES1   0.0000
    33 H3       -3.6861   -0.1788   -5.2738   H         1 RES1   0.0000
    34 H4       -1.1029   -1.1105   -6.5882   H         1 RES1   0.0000
    35 H5       -1.4541   -1.1697   -4.8623   H         1 RES1   0.0000
    36 H6       -2.8233   -2.7348   -7.0968   H         1 RES1   0.0000
    37 H7       -1.6926   -3.3933   -5.9208   H         1 RES1   0.0000
    38 H8       -4.4717   -2.3039   -5.2975   H         1 RES1   0.0000
    39 H9       -4.0191   -3.9949   -5.4347   H         1 RES1   0.0000
    40 H10      -2.4166   -3.7506   -3.5772   H         1 RES1   0.0000
    41 H11      -2.9122   -2.0748   -3.3304   H         1 RES1   0.0000
    42 H12      -4.8856   -4.3798   -3.2639   H         1 RES1   0.0000
    43 H13      -3.9847   -3.9325   -1.8292   H         1 RES1   0.0000
    44 H14      -5.7395   -2.0124   -3.3869   H         1 RES1   0.0000
    45 H15      -6.3470   -3.0020   -2.0819   H         1 RES1   0.0000
    46 H16      -5.9754   -1.0979   -0.8922   H         1 RES1   0.0000
    47 H17      -4.3894   -1.8547   -0.6655   H         1 RES1   0.0000
    48 H18      -4.5297    1.0523   -3.5881   H         1 RES1   0.0000
    49 H19      -5.8253   -0.1263   -3.4640   H         1 RES1   0.0000
    50 H20      -5.5226    2.2298   -1.5416   H         1 RES1   0.0000
    51 H21      -6.6492    2.1250   -2.8938   H         1 RES1   0.0000
    52 H22      -6.8108    1.0291   -1.5281   H         1 RES1   0.0000
    53 H23      -2.0992    1.1428   -2.9853   H         1 RES1   0.0000
    54 H24      -3.3159    2.2186   -2.2550   H         1 RES1   0.0000
    55 H25      -2.2154    3.7916   -0.6834   H         1 RES1   0.0000
    56 H26      -3.1818    2.4977    0.0836   H         1 RES1   0.0000
    57 H27      -1.6562    5.2838    0.3250   H         1 RES1   0.0000
    58 H28      -2.1228    5.7526    1.9562   H         1 RES1   0.0000
    59 H29       0.8161    5.3997    1.2796   H         1 RES1   0.0000
    60 H30      -0.0282    6.8926    0.8454   H         1 RES1   0.0000
    61 H31       0.0988    6.4208    2.5274   H         1 RES1   0.0000
    62 H32      -0.4025    2.8011    3.4220   H         1 RES1   0.0000
    63 H33      -0.2495    4.5658    3.5602   H         1 RES1   0.0000
    64 H34      -2.7373    4.7539    3.8006   H         1 RES1   0.0000
    65 H35      -2.8565    3.0005    3.6691   H         1 RES1   0.0000
    66 H36      -1.1893    4.3352    5.8256   H         1 RES1   0.0000
    67 H37      -2.9261    4.1537    6.0291   H         1 RES1   0.0000
    68 H38      -1.0970    1.7726    5.4975   H         1 RES1   0.0000
    69 H39      -1.4209    2.4209    7.0988   H         1 RES1   0.0000
    70 H40      -2.8509    0.6481    6.9530   H         1 RES1   0.0000
    71 H41      -3.8967    2.0270    6.6998   H         1 RES1   0.0000
    72 H42      -2.8013    0.7262    4.2252   H         1 RES1   0.0000
    73 H43      -3.9136   -0.2477    5.1844   H         1 RES1   0.0000
    74 H44      -5.7070    1.3009    4.9371   H         1 RES1   0.0000
    75 H45      -4.6763    2.5384    4.2510   H         1 RES1   0.0000
    76 H46      -5.4468   -0.1322    2.9959   H         1 RES1   0.0000
    77 H47      -5.8405    1.4774    2.3979   H         1 RES1   0.0000
    78 H48      -4.1696    0.8875    2.3235   H         1 RES1   0.0000
    79 C25       6.6873   -5.6124    0.0566   C.3       1 RES1   0.0000
    80 C26       5.4782   -6.2275    0.7555   C.3       1 RES1   0.0000
    81 C27       4.6989   -5.2574    1.6483   C.3       1 RES1   0.0000
    82 C28       5.5696   -4.5279    2.6706   C.3       1 RES1   0.0000
    83 C29       4.7561   -3.6056    3.5824   C.3       1 RES1   0.0000
    84 C30       4.2663   -2.3219    2.8893   C.3       1 RES1   0.0000
    85 C31       4.8452   -1.0673    3.5378   C.3       1 RES1   0.0000
    86 C32       4.2428    0.2147    2.9524   C.3       1 RES1   0.0000
    87 N3        4.2383    0.2469    1.4872   N.am      1 RES1   0.0000
    88 C33       5.5557    0.1743    0.8589   C.3       1 RES1   0.0000
    89 C34       6.1973    1.5307    0.5798   C.3       1 RES1   0.0000
    90 C35       3.0943    0.3375    0.8216   C.2       1 RES1   0.0000
    91 O4        1.9717    0.3474    1.3658   O.2       1 RES1   0.0000
    92 C36       3.1928    0.3716   -0.7113   C.3       1 RES1   0.0000
    93 O5        1.9087    0.4660   -1.3405   O.3       1 RES1   0.0000
    94 C37       1.8200    1.4849   -2.3280   C.3       1 RES1   0.0000
    95 C38       1.3311    2.7774   -1.6580   C.2       1 RES1   0.0000
    96 O6        0.7695    2.6352   -0.5594   O.2       1 RES1   0.0000
    97 N4        1.4760    3.9249   -2.3123   N.am      1 RES1   0.0000
    98 C39       2.3250    4.0698   -3.4901   C.3       1 RES1   0.0000
    99 C40       3.7940    4.2461   -3.1120   C.3       1 RES1   0.0000
   100 C41       0.8767    5.1425   -1.7773   C.3       1 RES1   0.0000
   101 C42      -0.0063    5.8834   -2.7879   C.3       1 RES1   0.0000
   102 C43      -1.0748    4.9930   -3.4225   C.3       1 RES1   0.0000
   103 C44      -2.0393    5.7966   -4.2950   C.3       1 RES1   0.0000
   104 C45      -3.1908    4.9618   -4.8592   C.3       1 RES1   0.0000
   105 C46      -2.7501    3.9139   -5.8840   C.3       1 RES1   0.0000
   106 C47      -3.8717    3.5098   -6.8455   C.3       1 RES1   0.0000
   107 C48      -5.0991    2.9152   -6.1671   C.3       1 RES1   0.0000
   108 H49       7.0341   -6.2762   -0.7310   H         1 RES1   0.0000
   109 H50       6.4473   -4.6469   -0.3869   H         1 RES1   0.0000
   110 H51       7.5063   -5.4743    0.7555   H         1 RES1   0.0000
   111 H52       4.7885   -6.6293    0.0069   H         1 RES1   0.0000
   112 H53       5.8183   -7.0687    1.3595   H         1 RES1   0.0000
   113 H54       4.1772   -4.5186    1.0330   H         1 RES1   0.0000
   114 H55       3.9348   -5.8274    2.1838   H         1 RES1   0.0000
   115 H56       6.0792   -5.2668    3.2903   H         1 RES1   0.0000
   116 H57       6.3346   -3.9429    2.1566   H         1 RES1   0.0000
   117 H58       3.9119   -4.1704    3.9777   H         1 RES1   0.0000
   118 H59       5.3750   -3.3285    4.4357   H         1 RES1   0.0000
   119 H60       4.5439   -2.3453    1.8327   H         1 RES1   0.0000
   120 H61       3.1813   -2.2519    2.9325   H         1 RES1   0.0000
   121 H62       4.6253   -1.0795    4.6072   H         1 RES1   0.0000
   122 H63       5.9323   -1.0698    3.4504   H         1 RES1   0.0000
   123 H64       3.2058    0.3049    3.2773   H         1 RES1   0.0000
   124 H65       4.8053    1.0854    3.3074   H         1 RES1   0.0000
   125 H66       6.2156   -0.3763    1.5318   H         1 RES1   0.0000
   126 H67       5.4900   -0.4003   -0.0669   H         1 RES1   0.0000
   127 H68       6.3308    2.0923    1.4978   H         1 RES1   0.0000
   128 H69       7.1791    1.3585    0.1477   H         1 RES1   0.0000
   129 H70       5.6228    2.1391   -0.1138   H         1 RES1   0.0000
   130 H71       3.8508    1.1811   -1.0422   H         1 RES1   0.0000
   131 H72       3.6066   -0.6006   -1.0091   H         1 RES1   0.0000
   132 H73       2.7654    1.5647   -2.8665   H         1 RES1   0.0000
   133 H74       1.0366    1.1762   -3.0359   H         1 RES1   0.0000
   134 H75       2.1871    3.2162   -4.1558   H         1 RES1   0.0000
   135 H76       1.9992    4.9592   -4.0271   H         1 RES1   0.0000
   136 H77       4.1825    3.3916   -2.5627   H         1 RES1   0.0000
   137 H78       4.3844    4.3706   -4.0144   H         1 RES1   0.0000
   138 H79       3.9349    5.1313   -2.4976   H         1 RES1   0.0000
   139 H80       0.2801    4.8287   -0.9226   H         1 RES1   0.0000
   140 H81       1.6689    5.8092   -1.4244   H         1 RES1   0.0000
   141 H82      -0.4823    6.7123   -2.2600   H         1 RES1   0.0000
   142 H83       0.5992    6.3313   -3.5763   H         1 RES1   0.0000
   143 H84      -0.5951    4.2234   -4.0303   H         1 RES1   0.0000
   144 H85      -1.6415    4.4853   -2.6375   H         1 RES1   0.0000
   145 H86      -2.4599    6.6128   -3.7045   H         1 RES1   0.0000
   146 H87      -1.4884    6.2456   -5.1220   H         1 RES1   0.0000
   147 H88      -3.7231    4.4791   -4.0354   H         1 RES1   0.0000
   148 H89      -3.8913    5.6416   -5.3453   H         1 RES1   0.0000
   149 H90      -1.9359    4.3291   -6.4820   H         1 RES1   0.0000
   150 H91      -2.3630    3.0260   -5.3714   H         1 RES1   0.0000
   151 H92      -4.1758    4.3881   -7.4150   H         1 RES1   0.0000
   152 H93      -3.4731    2.7836   -7.5565   H         1 RES1   0.0000
   153 H94      -5.5971    3.6509   -5.5408   H         1 RES1   0.0000
   154 H95      -5.8088    2.5798   -6.9205   H         1 RES1   0.0000
   155 H96      -4.8263    2.0563   -5.5555   H         1 RES1   0.0000
   156 C49       1.7134   -2.2540   -6.2504   C.3       1 RES1   0.0000
   157 C50       1.9096   -0.7828   -5.9101   C.3       1 RES1   0.0000
   158 C51       3.3552   -0.3190   -6.0929   C.3       1 RES1   0.0000
   159 C52       4.3846   -1.0765   -5.2546   C.3       1 RES1   0.0000
   160 C53       4.2104   -0.8961   -3.7475   C.3       1 RES1   0.0000
   161 C54       5.2490   -1.6985   -2.9599   C.3       1 RES1   0.0000
   162 C55       4.8866   -3.1654   -2.7241   C.3       1 RES1   0.0000
   163 C56       3.8464   -3.4477   -1.6272   C.3       1 RES1   0.0000
   164 N5        2.4464   -3.4453   -2.0652   N.am      1 RES1   0.0000
   165 C57       2.0986   -4.5017   -3.0126   C.3       1 RES1   0.0000
   166 C58       1.8345   -5.8379   -2.3221   C.3       1 RES1   0.0000
   167 C59       1.5200   -2.7428   -1.4164   C.2       1 RES1   0.0000
   168 O7        1.7339   -1.9790   -0.4586   O.2       1 RES1   0.0000
   169 C60       0.0590   -2.8015   -1.9038   C.3       1 RES1   0.0000
   170 O8       -0.7714   -2.1666   -0.9323   O.3       1 RES1   0.0000
   171 C61      -1.3703   -3.1085   -0.0385   C.3       1 RES1   0.0000
   172 C62      -1.8495   -2.4061    1.2475   C.2       1 RES1   0.0000
   173 O9       -1.1381   -1.4634    1.6593   O.2       1 RES1   0.0000
   174 N6       -2.8597   -2.9099    1.9481   N.am      1 RES1   0.0000
   175 C63      -3.8277   -3.8956    1.4696   C.3       1 RES1   0.0000
   176 C64      -5.2689   -3.4416    1.7033   C.3       1 RES1   0.0000
   177 C65      -3.0120   -2.5143    3.3564   C.3       1 RES1   0.0000
   178 C66      -2.5788   -3.6628    4.2789   C.3       1 RES1   0.0000
   179 C67      -2.3783   -3.2675    5.7482   C.3       1 RES1   0.0000
   180 C68      -1.5084   -2.0492    6.0710   C.3       1 RES1   0.0000
   181 C69       0.0098   -2.1873    5.9218   C.3       1 RES1   0.0000
   182 C70       0.5347   -2.3696    4.4886   C.3       1 RES1   0.0000
   183 C71       0.9113   -3.8202    4.1644   C.3       1 RES1   0.0000
   184 C72       0.9076   -4.0893    2.6626   C.3       1 RES1   0.0000
   185 H97       0.6608   -2.5181   -6.2179   H         1 RES1   0.0000
   186 H98       2.0818   -2.4604   -7.2501   H         1 RES1   0.0000
   187 H99       2.2437   -2.8933   -5.5516   H         1 RES1   0.0000
   188 H100      1.2805   -0.1787   -6.5657   H         1 RES1   0.0000
   189 H101      1.5792   -0.5960   -4.8826   H         1 RES1   0.0000
   190 H102      3.6215   -0.4377   -7.1442   H         1 RES1   0.0000
   191 H103      3.4199    0.7482   -5.8619   H         1 RES1   0.0000
   192 H104      4.3511   -2.1350   -5.5068   H         1 RES1   0.0000
   193 H105      5.3760   -0.7122   -5.5296   H         1 RES1   0.0000
   194 H106      4.3387    0.1664   -3.5223   H         1 RES1   0.0000
   195 H107      3.2010   -1.1837   -3.4454   H         1 RES1   0.0000
   196 H108      6.1841   -1.6699   -3.5199   H         1 RES1   0.0000
   197 H109      5.4563   -1.2174   -2.0013   H         1 RES1   0.0000
   198 H110      4.5724   -3.6068   -3.6682   H         1 RES1   0.0000
   199 H111      5.8013   -3.6821   -2.4308   H         1 RES1   0.0000
   200 H112      4.0520   -4.4417   -1.2185   H         1 RES1   0.0000
   201 H113      3.9363   -2.7251   -0.8135   H         1 RES1   0.0000
   202 H114      1.2468   -4.1937   -3.6171   H         1 RES1   0.0000
   203 H115      2.9387   -4.6370   -3.6935   H         1 RES1   0.0000
   204 H116      1.0038   -5.7780   -1.6251   H         1 RES1   0.0000
   205 H117      1.6073   -6.5927   -3.0701   H         1 RES1   0.0000
   206 H118      2.7111   -6.1692   -1.7705   H         1 RES1   0.0000
   207 H119     -0.0330   -2.2016   -2.8185   H         1 RES1   0.0000
   208 H120     -0.2840   -3.8209   -2.0929   H         1 RES1   0.0000
   209 H121     -2.1485   -3.6524   -0.5771   H         1 RES1   0.0000
   210 H122     -0.6113   -3.8239    0.3069   H         1 RES1   0.0000
   211 H123     -3.6954   -4.0498    0.4005   H         1 RES1   0.0000
   212 H124     -3.6514   -4.8458    1.9781   H         1 RES1   0.0000
   213 H125     -5.3725   -2.3831    1.4753   H         1 RES1   0.0000
   214 H126     -5.9310   -4.0009    1.0482   H         1 RES1   0.0000
   215 H127     -5.5904   -3.6043    2.7255   H         1 RES1   0.0000
   216 H128     -2.3722   -1.6477    3.5113   H         1 RES1   0.0000
   217 H129     -4.0451   -2.2230    3.5405   H         1 RES1   0.0000
   218 H130     -3.3351   -4.4516    4.2599   H         1 RES1   0.0000
   219 H131     -1.6569   -4.0840    3.8878   H         1 RES1   0.0000
   220 H132     -3.3605   -3.0881    6.1881   H         1 RES1   0.0000
   221 H133     -1.9644   -4.1358    6.2622   H         1 RES1   0.0000
   222 H134     -1.8421   -1.1829    5.5022   H         1 RES1   0.0000
   223 H135     -1.6869   -1.8227    7.1246   H         1 RES1   0.0000
   224 H136      0.4402   -1.2709    6.3341   H         1 RES1   0.0000
   225 H137      0.3625   -3.0139    6.5419   H         1 RES1   0.0000
   226 H138     -0.2020   -2.0036    3.7686   H         1 RES1   0.0000
   227 H139      1.4266   -1.7503    4.3545   H         1 RES1   0.0000
   228 H140      1.8971   -4.0317    4.5807   H         1 RES1   0.0000
   229 H141      0.2184   -4.5032    4.6570   H         1 RES1   0.0000
   230 H142      1.3856   -3.2710    2.1182   H         1 RES1   0.0000
   231 H143      1.4260   -5.0184    2.4308   H         1 RES1   0.0000
   232 H144     -0.1197   -4.1787    2.3114   H         1 RES1   0.0000
@<TRIPOS>BOND
     1     1    14    1
     2     1    16    1
     3     1    19    1
     4     1    91    1
     5     1    93    1
     6     1    96    1
     7     1   168    1
     8     1   170    1
     9     1   173    1
    10     2     3    1
    11     2    31    1
    12     2    32    1
    13     2    33    1
    14     3     4    1
    15     3    34    1
    16     3    35    1
    17     4     5    1
    18     4    36    1
    19     4    37    1
    20     5     6    1
    21     5    38    1
    22     5    39    1
    23     6     7    1
    24     6    40    1
    25     6    41    1
    26     7     8    1
    27     7    42    1
    28     7    43    1
    29     8     9    1
    30     8    44    1
    31     8    45    1
    32     9    10    1
    33     9    46    1
    34     9    47    1
    35    10    11    1
    36    10    13    1
    37    11    12    1
    38    11    48    1
    39    11    49    1
    40    12    50    1
    41    12    51    1
    42    12    52    1
    43    13    14    2
    44    13    15    1
    45    15    16    1
    46    15    53    1
    47    15    54    1
    48    16    17    1
    49    17    18    1
    50    17    55    1
    51    17    56    1
    52    18    19    2
    53    18    20    1
    54    20    21    1
    55    20    23    1
    56    21    22    1
    57    21    57    1
    58    21    58    1
    59    22    59    1
    60    22    60    1
    61    22    61    1
    62    23    24    1
    63    23    62    1
    64    23    63    1
    65    24    25    1
    66    24    64    1
    67    24    65    1
    68    25    26    1
    69    25    66    1
    70    25    67    1
    71    26    27    1
    72    26    68    1
    73    26    69    1
    74    27    28    1
    75    27    70    1
    76    27    71    1
    77    28    29    1
    78    28    72    1
    79    28    73    1
    80    29    30    1
    81    29    74    1
    82    29    75    1
    83    30    76    1
    84    30    77    1
    85    30    78    1
    86    79    80    1
    87    79   108    1
    88    79   109    1
    89    79   110    1
    90    80    81    1
    91    80   111    1
    92    80   112    1
    93    81    82    1
    94    81   113    1
    95    81   114    1
    96    82    83    1
    97    82   115    1
    98    82   116    1
    99    83    84    1
   100    83   117    1
   101    83   118    1
   102    84    85    1
   103    84   119    1
   104    84   120    1
   105    85    86    1
   106    85   121    1
   107    85   122    1
   108    86    87    1
   109    86   123    1
   110    86   124    1
   111    87    88    1
   112    87    90    1
   113    88    89    1
   114    88   125    1
   115    88   126    1
   116    89   127    1
   117    89   128    1
   118    89   129    1
   119    90    91    2
   120    90    92    1
   121    92    93    1
   122    92   130    1
   123    92   131    1
   124    93    94    1
   125    94    95    1
   126    94   132    1
   127    94   133    1
   128    95    96    2
   129    95    97    1
   130    97    98    1
   131    97   100    1
   132    98    99    1
   133    98   134    1
   134    98   135    1
   135    99   136    1
   136    99   137    1
   137    99   138    1
   138   100   101    1
   139   100   139    1
   140   100   140    1
   141   101   102    1
   142   101   141    1
   143   101   142    1
   144   102   103    1
   145   102   143    1
   146   102   144    1
   147   103   104    1
   148   103   145    1
   149   103   146    1
   150   104   105    1
   151   104   147    1
   152   104   148    1
   153   105   106    1
   154   105   149    1
   155   105   150    1
   156   106   107    1
   157   106   151    1
   158   106   152    1
   159   107   153    1
   160   107   154    1
   161   107   155    1
   162   156   157    1
   163   156   185    1
   164   156   186    1
   165   156   187    1
   166   157   158    1
   167   157   188    1
   168   157   189    1
   169   158   159    1
   170   158   190    1
   171   158   191    1
   172   159   160    1
   173   159   192    1
   174   159   193    1
   175   160   161    1
   176   160   194    1
   177   160   195    1
   178   161   162    1
   179   161   196    1
   180   161   197    1
   181   162   163    1
   182   162   198    1
   183   162   199    1
   184   163   164    1
   185   163   200    1
   186   163   201    1
   187   164   165    1
   188   164   167    1
   189   165   166    1
   190   165   202    1
   191   165   203    1
   192   166   204    1
   193   166   205    1
   194   166   206    1
   195   167   168    2
   196   167   169    1
   197   169   170    1
   198   169   207    1
   199   169   208    1
   200   170   171    1
   201   171   172    1
   202   171   209    1
   203   171   210    1
   204   172   173    2
   205   172   174    1
   206   174   175    1
   207   174   177    1
   208   175   176    1
   209   175   211    1
   210   175   212    1
   211   176   213    1
   212   176   214    1
   213   176   215    1
   214   177   178    1
   215   177   216    1
   216   177   217    1
   217   178   179    1
   218   178   218    1
   219   178   219    1
   220   179   180    1
   221   179   220    1
   222   179   221    1
   223   180   181    1
   224   180   222    1
   225   180   223    1
   226   181   182    1
   227   181   224    1
   228   181   225    1
   229   182   183    1
   230   182   226    1
   231   182   227    1
   232   183   184    1
   233   183   228    1
   234   183   229    1
   235   184   230    1
   236   184   231    1
   237   184   232    1
@<TRIPOS>SUBSTRUCTURE
     1 RES1      232 GROUP             0 ****  ****    0  
