@<TRIPOS>MOLECULE
am_c3_9H2O_c0_0_nunpairedes_0_charge_3 Charge: 3 Unpaired_Electrons: 1 XTB_Unpaired_Electrons: 0 XTB_Charge: 3
   160   171     1     0     0
SMALL
NoCharges
****
Generated from Architector

@<TRIPOS>ATOM
     1 Ce1      -0.0612    0.0743    0.0314   Ce        1 RES1   0.0000
     2 C1        3.7300   -1.8132   -5.2594   C.3       1 RES1   0.0000
     3 C2        2.2634   -1.4056   -5.3458   C.3       1 RES1   0.0000
     4 C3        1.4127   -2.1902   -4.3431   C.3       1 RES1   0.0000
     5 C4       -0.0879   -1.9122   -4.5168   C.3       1 RES1   0.0000
     6 N1       -0.9690   -2.6083   -3.5653   N.am      1 RES1   0.0000
     7 C5       -1.6910   -3.7691   -4.0774   C.3       1 RES1   0.0000
     8 C6       -1.4177   -5.1109   -3.3853   C.3       1 RES1   0.0000
     9 C7        0.0410   -5.5681   -3.4402   C.3       1 RES1   0.0000
    10 C8        0.8899   -4.9814   -2.3162   C.3       1 RES1   0.0000
    11 C9       -1.1054   -2.0152   -2.3783   C.2       1 RES1   0.0000
    12 O1       -0.4024   -1.0025   -2.1300   O.2       1 RES1   0.0000
    13 C10      -2.1007   -2.3702   -1.2948   C.ar      1 RES1   0.0000
    14 C11      -3.2055   -3.2311   -1.3763   C.ar      1 RES1   0.0000
    15 C12      -4.0584   -3.3191   -0.3007   C.ar      1 RES1   0.0000
    16 C13      -3.8734   -2.5117    0.8281   C.ar      1 RES1   0.0000
    17 C14      -4.7770   -2.5422    1.9283   C.ar      1 RES1   0.0000
    18 C15      -4.5902   -1.7238    2.9897   C.ar      1 RES1   0.0000
    19 C16      -3.5136   -0.7900    3.0055   C.ar      1 RES1   0.0000
    20 C17      -3.2780    0.0648    4.0907   C.ar      1 RES1   0.0000
    21 C18      -2.1998    0.9215    4.0937   C.ar      1 RES1   0.0000
    22 C19      -1.4015    1.0184    2.9385   C.ar      1 RES1   0.0000
    23 C20      -0.1027    1.7912    2.7373   C.2       1 RES1   0.0000
    24 O2        0.5773    1.4414    1.7395   O.2       1 RES1   0.0000
    25 N2        0.3757    2.7285    3.5533   N.am      1 RES1   0.0000
    26 C21      -0.2630    3.3130    4.7284   C.3       1 RES1   0.0000
    27 C22      -1.5799    4.0641    4.4813   C.3       1 RES1   0.0000
    28 C23      -1.4929    5.2637    3.5364   C.3       1 RES1   0.0000
    29 C24      -1.4941    4.8799    2.0599   C.3       1 RES1   0.0000
    30 C25       1.7730    3.1487    3.3513   C.3       1 RES1   0.0000
    31 C26       1.9583    4.6235    2.9707   C.3       1 RES1   0.0000
    32 C27       3.4287    5.0479    2.9273   C.3       1 RES1   0.0000
    33 C28       4.2562    4.3521    1.8550   C.3       1 RES1   0.0000
    34 N3       -1.6668    0.2570    1.8776   N.ar      1 RES1   0.0000
    35 C29      -2.6218   -0.6823    1.9090   C.ar      1 RES1   0.0000
    36 C30      -2.7696   -1.6199    0.8082   C.ar      1 RES1   0.0000
    37 N4       -1.8993   -1.6125   -0.2113   N.ar      1 RES1   0.0000
    38 H1        4.3314   -1.1840   -5.9076   H         1 RES1   0.0000
    39 H2        3.8633   -2.8440   -5.5740   H         1 RES1   0.0000
    40 H3        4.0998   -1.7197   -4.2408   H         1 RES1   0.0000
    41 H4        1.9061   -1.5893   -6.3598   H         1 RES1   0.0000
    42 H5        2.1675   -0.3350   -5.1513   H         1 RES1   0.0000
    43 H6        1.7129   -1.9159   -3.3269   H         1 RES1   0.0000
    44 H7        1.6138   -3.2524   -4.4876   H         1 RES1   0.0000
    45 H8       -0.3889   -2.1970   -5.5264   H         1 RES1   0.0000
    46 H9       -0.2656   -0.8378   -4.3880   H         1 RES1   0.0000
    47 H10      -1.4018   -3.8771   -5.1240   H         1 RES1   0.0000
    48 H11      -2.7630   -3.5407   -4.0921   H         1 RES1   0.0000
    49 H12      -2.0360   -5.8384   -3.9139   H         1 RES1   0.0000
    50 H13      -1.7337   -5.0967   -2.3410   H         1 RES1   0.0000
    51 H14       0.4735   -5.3229   -4.4105   H         1 RES1   0.0000
    52 H15       0.0612   -6.6541   -3.3508   H         1 RES1   0.0000
    53 H16       0.9360   -3.8952   -2.3641   H         1 RES1   0.0000
    54 H17       1.9013   -5.3748   -2.3774   H         1 RES1   0.0000
    55 H18       0.4790   -5.2614   -1.3471   H         1 RES1   0.0000
    56 H19      -3.4380   -3.8104   -2.2508   H         1 RES1   0.0000
    57 H20      -4.9031   -3.9883   -0.3362   H         1 RES1   0.0000
    58 H21      -5.6104   -3.2284    1.8835   H         1 RES1   0.0000
    59 H22      -5.2561   -1.7461    3.8387   H         1 RES1   0.0000
    60 H23      -3.9330    0.0146    4.9457   H         1 RES1   0.0000
    61 H24      -2.0144    1.4880    4.9880   H         1 RES1   0.0000
    62 H25       0.4535    4.0185    5.1549   H         1 RES1   0.0000
    63 H26      -0.3916    2.5376    5.4927   H         1 RES1   0.0000
    64 H27      -1.9063    4.4151    5.4625   H         1 RES1   0.0000
    65 H28      -2.3512    3.3964    4.0958   H         1 RES1   0.0000
    66 H29      -0.6149    5.8644    3.7679   H         1 RES1   0.0000
    67 H30      -2.3647    5.8911    3.7234   H         1 RES1   0.0000
    68 H31      -0.6212    4.2901    1.7874   H         1 RES1   0.0000
    69 H32      -1.5036    5.7827    1.4549   H         1 RES1   0.0000
    70 H33      -2.3870    4.3043    1.8155   H         1 RES1   0.0000
    71 H34       2.2040    2.5173    2.5702   H         1 RES1   0.0000
    72 H35       2.2929    2.9478    4.2953   H         1 RES1   0.0000
    73 H36       1.4624    5.2567    3.7076   H         1 RES1   0.0000
    74 H37       1.5064    4.8194    1.9962   H         1 RES1   0.0000
    75 H38       3.8857    4.8846    3.9036   H         1 RES1   0.0000
    76 H39       3.4415    6.1214    2.7351   H         1 RES1   0.0000
    77 H40       4.3816    3.2931    2.0688   H         1 RES1   0.0000
    78 H41       5.2429    4.8054    1.8159   H         1 RES1   0.0000
    79 H42       3.7875    4.4615    0.8787   H         1 RES1   0.0000
    80 C31      -1.8681   -4.8280    2.7443   C.3       1 RES1   0.0000
    81 C32      -0.8398   -5.8367    3.2457   C.3       1 RES1   0.0000
    82 C33       0.6075   -5.5440    2.8285   C.3       1 RES1   0.0000
    83 C34       1.3150   -4.4250    3.6139   C.3       1 RES1   0.0000
    84 N5        0.8189   -3.0979    3.2938   N.am      1 RES1   0.0000
    85 C35       0.1039   -2.3715    4.3489   C.3       1 RES1   0.0000
    86 C36       1.0487   -1.3130    4.9360   C.3       1 RES1   0.0000
    87 C37       0.4945   -0.6271    6.1808   C.3       1 RES1   0.0000
    88 C38       1.5152    0.3600    6.7333   C.3       1 RES1   0.0000
    89 C39       0.9195   -2.4320    2.1428   C.2       1 RES1   0.0000
    90 O3        0.2154   -1.4112    1.9714   O.2       1 RES1   0.0000
    91 C40       1.9403   -2.6515    1.0584   C.ar      1 RES1   0.0000
    92 C41       2.9307   -3.6371    0.9559   C.ar      1 RES1   0.0000
    93 C42       3.9734   -3.4379    0.0801   C.ar      1 RES1   0.0000
    94 C43       4.0292   -2.2800   -0.7091   C.ar      1 RES1   0.0000
    95 C44       5.1518   -1.9547   -1.5206   C.ar      1 RES1   0.0000
    96 C45       5.1553   -0.8231   -2.2663   C.ar      1 RES1   0.0000
    97 C46       4.0113    0.0290   -2.3077   C.ar      1 RES1   0.0000
    98 C47       3.9527    1.1781   -3.1100   C.ar      1 RES1   0.0000
    99 C48       2.8156    1.9523   -3.1411   C.ar      1 RES1   0.0000
   100 C49       1.7284    1.5863   -2.3342   C.ar      1 RES1   0.0000
   101 C50       0.4927    2.4191   -2.0803   C.2       1 RES1   0.0000
   102 O4       -0.0256    2.2708   -0.9446   O.2       1 RES1   0.0000
   103 N6        0.0014    3.3277   -2.9245   N.am      1 RES1   0.0000
   104 C51       0.0929    3.3218   -4.3763   C.3       1 RES1   0.0000
   105 C52      -0.7731    2.2273   -5.0330   C.3       1 RES1   0.0000
   106 C53      -2.2954    2.4397   -5.0502   C.3       1 RES1   0.0000
   107 C54      -3.0319    1.9470   -3.8065   C.3       1 RES1   0.0000
   108 C55      -0.9441    4.3114   -2.3853   C.3       1 RES1   0.0000
   109 C56      -0.4156    5.7502   -2.3500   C.3       1 RES1   0.0000
   110 C57       0.6752    6.0264   -1.3162   C.3       1 RES1   0.0000
   111 C58       2.0355    5.4548   -1.6986   C.3       1 RES1   0.0000
   112 N7        1.7909    0.5322   -1.5226   N.ar      1 RES1   0.0000
   113 C59       2.8733   -0.2572   -1.5176   C.ar      1 RES1   0.0000
   114 C60       2.9065   -1.4180   -0.6538   C.ar      1 RES1   0.0000
   115 N8        1.9085   -1.6160    0.2117   N.ar      1 RES1   0.0000
   116 H43      -2.8684   -5.1655    3.0063   H         1 RES1   0.0000
   117 H44      -1.8128   -4.7363    1.6598   H         1 RES1   0.0000
   118 H45      -1.7175   -3.8465    3.1850   H         1 RES1   0.0000
   119 H46      -1.1074   -6.8167    2.8474   H         1 RES1   0.0000
   120 H47      -0.9041   -5.9134    4.3308   H         1 RES1   0.0000
   121 H48       0.6350   -5.3280    1.7567   H         1 RES1   0.0000
   122 H49       1.1892   -6.4500    3.0038   H         1 RES1   0.0000
   123 H50       2.3996   -4.4748    3.4723   H         1 RES1   0.0000
   124 H51       1.1430   -4.5903    4.6793   H         1 RES1   0.0000
   125 H52      -0.2296   -3.0712    5.1169   H         1 RES1   0.0000
   126 H53      -0.7763   -1.8845    3.9152   H         1 RES1   0.0000
   127 H54       1.2519   -0.5637    4.1622   H         1 RES1   0.0000
   128 H55       1.9981   -1.7910    5.1921   H         1 RES1   0.0000
   129 H56       0.2709   -1.3752    6.9421   H         1 RES1   0.0000
   130 H57      -0.4350   -0.1123    5.9279   H         1 RES1   0.0000
   131 H58       2.4267   -0.1622    7.0142   H         1 RES1   0.0000
   132 H59       1.1276    0.8592    7.6159   H         1 RES1   0.0000
   133 H60       1.7713    1.1110    5.9868   H         1 RES1   0.0000
   134 H61       2.8989   -4.5448    1.5302   H         1 RES1   0.0000
   135 H62       4.7685   -4.1645    0.0115   H         1 RES1   0.0000
   136 H63       5.9955   -2.6302   -1.5185   H         1 RES1   0.0000
   137 H64       6.0136   -0.5513   -2.8629   H         1 RES1   0.0000
   138 H65       4.8156    1.4522   -3.6953   H         1 RES1   0.0000
   139 H66       2.8044    2.8467   -3.7424   H         1 RES1   0.0000
   140 H67       1.1206    3.1987   -4.7200   H         1 RES1   0.0000
   141 H68      -0.2344    4.3040   -4.7218   H         1 RES1   0.0000
   142 H69      -0.5382    1.2651   -4.5660   H         1 RES1   0.0000
   143 H70      -0.4387    2.1828   -6.0702   H         1 RES1   0.0000
   144 H71      -2.6962    1.8956   -5.9063   H         1 RES1   0.0000
   145 H72      -2.5274    3.4911   -5.2247   H         1 RES1   0.0000
   146 H73      -2.8539    0.8798   -3.6623   H         1 RES1   0.0000
   147 H74      -4.1015    2.0951   -3.9340   H         1 RES1   0.0000
   148 H75      -2.7203    2.5030   -2.9255   H         1 RES1   0.0000
   149 H76      -1.2083    4.0178   -1.3668   H         1 RES1   0.0000
   150 H77      -1.8371    4.3043   -3.0110   H         1 RES1   0.0000
   151 H78      -1.2880    6.3659   -2.1162   H         1 RES1   0.0000
   152 H79      -0.0620    6.0473   -3.3372   H         1 RES1   0.0000
   153 H80       0.3661    5.6253   -0.3496   H         1 RES1   0.0000
   154 H81       0.7633    7.1095   -1.2166   H         1 RES1   0.0000
   155 H82       2.0273    4.3660   -1.6845   H         1 RES1   0.0000
   156 H83       2.7930    5.7967   -0.9987   H         1 RES1   0.0000
   157 H84       2.3207    5.7976   -2.6905   H         1 RES1   0.0000
   158 O5       -2.4402    1.0329   -0.6606   O.3       1 RES1   0.0000
   159 H85      -2.4994    1.9273   -0.2920   H         1 RES1   0.0000
   160 H86      -2.6098    1.1302   -1.6118   H         1 RES1   0.0000
@<TRIPOS>BOND
     1     1    12    1
     2     1    24    1
     3     1    34    1
     4     1    37    1
     5     1    90    1
     6     1   102    1
     7     1   112    1
     8     1   115    1
     9     1   158    1
    10     2     3    1
    11     2    38    1
    12     2    39    1
    13     2    40    1
    14     3     4    1
    15     3    41    1
    16     3    42    1
    17     4     5    1
    18     4    43    1
    19     4    44    1
    20     5     6    1
    21     5    45    1
    22     5    46    1
    23     6     7    1
    24     6    11    1
    25     7     8    1
    26     7    47    1
    27     7    48    1
    28     8     9    1
    29     8    49    1
    30     8    50    1
    31     9    10    1
    32     9    51    1
    33     9    52    1
    34    10    53    1
    35    10    54    1
    36    10    55    1
    37    11    12    2
    38    11    13    1
    39    13    14    1
    40    13    37    2
    41    14    15    2
    42    14    56    1
    43    15    16    1
    44    15    57    1
    45    16    17    1
    46    16    36    2
    47    17    18    2
    48    17    58    1
    49    18    19    1
    50    18    59    1
    51    19    20    1
    52    19    35    2
    53    20    21    2
    54    20    60    1
    55    21    22    1
    56    21    61    1
    57    22    23    1
    58    22    34    2
    59    23    24    2
    60    23    25    1
    61    25    26    1
    62    25    30    1
    63    26    27    1
    64    26    62    1
    65    26    63    1
    66    27    28    1
    67    27    64    1
    68    27    65    1
    69    28    29    1
    70    28    66    1
    71    28    67    1
    72    29    68    1
    73    29    69    1
    74    29    70    1
    75    30    31    1
    76    30    71    1
    77    30    72    1
    78    31    32    1
    79    31    73    1
    80    31    74    1
    81    32    33    1
    82    32    75    1
    83    32    76    1
    84    33    77    1
    85    33    78    1
    86    33    79    1
    87    34    35    1
    88    35    36    1
    89    36    37    1
    90    80    81    1
    91    80   116    1
    92    80   117    1
    93    80   118    1
    94    81    82    1
    95    81   119    1
    96    81   120    1
    97    82    83    1
    98    82   121    1
    99    82   122    1
   100    83    84    1
   101    83   123    1
   102    83   124    1
   103    84    85    1
   104    84    89    1
   105    85    86    1
   106    85   125    1
   107    85   126    1
   108    86    87    1
   109    86   127    1
   110    86   128    1
   111    87    88    1
   112    87   129    1
   113    87   130    1
   114    88   131    1
   115    88   132    1
   116    88   133    1
   117    89    90    2
   118    89    91    1
   119    91    92    1
   120    91   115    2
   121    92    93    2
   122    92   134    1
   123    93    94    1
   124    93   135    1
   125    94    95    1
   126    94   114    2
   127    95    96    2
   128    95   136    1
   129    96    97    1
   130    96   137    1
   131    97    98    1
   132    97   113    2
   133    98    99    2
   134    98   138    1
   135    99   100    1
   136    99   139    1
   137   100   101    1
   138   100   112    2
   139   101   102    2
   140   101   103    1
   141   103   104    1
   142   103   108    1
   143   104   105    1
   144   104   140    1
   145   104   141    1
   146   105   106    1
   147   105   142    1
   148   105   143    1
   149   106   107    1
   150   106   144    1
   151   106   145    1
   152   107   146    1
   153   107   147    1
   154   107   148    1
   155   108   109    1
   156   108   149    1
   157   108   150    1
   158   109   110    1
   159   109   151    1
   160   109   152    1
   161   110   111    1
   162   110   153    1
   163   110   154    1
   164   111   155    1
   165   111   156    1
   166   111   157    1
   167   112   113    1
   168   113   114    1
   169   114   115    1
   170   158   159    1
   171   158   160    1
@<TRIPOS>SUBSTRUCTURE
     1 RES1      160 GROUP             0 ****  ****    0  
