@<TRIPOS>MOLECULE
capped_square_antiprismatic_0_nunpairedes_0_charge_3 Charge: 3 Unpaired_Electrons: 1 XTB_Unpaired_Electrons: 0 XTB_Charge: 3
   340   345     1     0     0
SMALL
NoCharges
****
Generated from Architector

@<TRIPOS>ATOM
     1 Ce1      -0.1579   -0.0002    0.1397   Ce        1 RES1   0.0000
     2 C1        4.5958   -2.6104   -3.1479   C.3       1 RES1   0.0000
     3 C2        4.2778   -3.9874   -2.5739   C.3       1 RES1   0.0000
     4 C3        4.8318   -4.1690   -1.1575   C.3       1 RES1   0.0000
     5 C4        3.8571   -3.7472   -0.0500   C.3       1 RES1   0.0000
     6 C5        3.0887   -4.9288    0.5612   C.3       1 RES1   0.0000
     7 C6        2.2110   -5.7345   -0.4143   C.3       1 RES1   0.0000
     8 C7        0.9553   -6.3719    0.2129   C.3       1 RES1   0.0000
     9 C8       -0.4051   -5.8982   -0.3234   C.3       1 RES1   0.0000
    10 C9       -0.5780   -6.0974   -1.8273   C.3       1 RES1   0.0000
    11 C10      -1.9968   -5.7757   -2.3223   C.3       1 RES1   0.0000
    12 C11      -2.1810   -4.3588   -2.9037   C.3       1 RES1   0.0000
    13 C12      -3.0951   -3.4876   -2.0326   C.3       1 RES1   0.0000
    14 N1       -3.2480   -2.1086   -2.5039   N.am      1 RES1   0.0000
    15 C13      -4.1901   -1.8825   -3.5871   C.3       1 RES1   0.0000
    16 C14      -3.6968   -2.2952   -4.9818   C.3       1 RES1   0.0000
    17 C15      -2.2714   -1.8455   -5.3403   C.3       1 RES1   0.0000
    18 C16      -2.1870   -0.8492   -6.5032   C.3       1 RES1   0.0000
    19 C17      -2.5613    0.5905   -6.1522   C.3       1 RES1   0.0000
    20 C18      -4.0537    0.9239   -6.2036   C.3       1 RES1   0.0000
    21 C19      -4.6200    0.8789   -7.6342   C.3       1 RES1   0.0000
    22 C20      -5.4338   -0.3740   -7.9655   C.3       1 RES1   0.0000
    23 C21      -5.8405   -0.4277   -9.4420   C.3       1 RES1   0.0000
    24 C22      -4.6900   -0.6465  -10.4283   C.3       1 RES1   0.0000
    25 C23      -4.0382   -2.0267  -10.3324   C.3       1 RES1   0.0000
    26 C24      -2.9808   -2.2157  -11.4165   C.3       1 RES1   0.0000
    27 C25      -2.6191   -1.1481   -1.8497   C.2       1 RES1   0.0000
    28 O1       -1.8913   -1.3772   -0.8638   O.2       1 RES1   0.0000
    29 C26      -2.7325    0.3219   -2.2577   C.3       1 RES1   0.0000
    30 O2       -1.8443    1.0219   -1.3778   O.3       1 RES1   0.0000
    31 C27      -1.2588    2.1971   -1.9171   C.3       1 RES1   0.0000
    32 C28      -0.6873    3.0668   -0.7699   C.3       1 RES1   0.0000
    33 O3       -0.1894    2.3081    0.3444   O.3       1 RES1   0.0000
    34 C29      -0.6156    2.7015    1.6472   C.3       1 RES1   0.0000
    35 C30      -1.7532    1.7640    2.0913   C.2       1 RES1   0.0000
    36 O4       -1.8764    0.6978    1.4493   O.2       1 RES1   0.0000
    37 N2       -2.5353    2.0927    3.1084   N.am      1 RES1   0.0000
    38 C31      -2.1401    3.0868    4.1017   C.3       1 RES1   0.0000
    39 C32      -1.0228    2.5522    5.0029   C.3       1 RES1   0.0000
    40 C33      -0.7192    3.4481    6.2053   C.3       1 RES1   0.0000
    41 C34       0.5883    3.0250    6.8850   C.3       1 RES1   0.0000
    42 C35       1.8725    3.2766    6.0857   C.3       1 RES1   0.0000
    43 C36       2.1335    4.7618    5.8008   C.3       1 RES1   0.0000
    44 C37       1.6797    5.2179    4.4113   C.3       1 RES1   0.0000
    45 C38       1.6819    6.7446    4.2588   C.3       1 RES1   0.0000
    46 C39       0.5570    7.4318    5.0351   C.3       1 RES1   0.0000
    47 C40       0.6120    8.9650    4.9597   C.3       1 RES1   0.0000
    48 C41       1.3388    9.6283    6.1328   C.3       1 RES1   0.0000
    49 C42       2.8378    9.3508    6.1779   C.3       1 RES1   0.0000
    50 C43      -3.6384    1.1713    3.4277   C.3       1 RES1   0.0000
    51 C44      -4.9285    1.8281    3.9335   C.3       1 RES1   0.0000
    52 C45      -5.9671    2.2663    2.8772   C.3       1 RES1   0.0000
    53 C46      -6.2829    3.7692    2.9023   C.3       1 RES1   0.0000
    54 C47      -7.5236    4.1397    2.0779   C.3       1 RES1   0.0000
    55 C48      -7.9769    5.6086    2.1953   C.3       1 RES1   0.0000
    56 C49      -7.3516    6.5909    1.1939   C.3       1 RES1   0.0000
    57 C50      -5.9695    7.1001    1.6196   C.3       1 RES1   0.0000
    58 C51      -6.0126    8.2241    2.6517   C.3       1 RES1   0.0000
    59 C52      -4.6228    8.6099    3.1696   C.3       1 RES1   0.0000
    60 C53      -3.8483    7.5068    3.9022   C.3       1 RES1   0.0000
    61 C54      -4.6152    6.8980    5.0714   C.3       1 RES1   0.0000
    62 H1        4.0686   -2.4597   -4.0878   H         1 RES1   0.0000
    63 H2        5.6587   -2.5296   -3.3462   H         1 RES1   0.0000
    64 H3        4.3272   -1.8202   -2.4473   H         1 RES1   0.0000
    65 H4        4.7029   -4.7532   -3.2224   H         1 RES1   0.0000
    66 H5        3.1958   -4.1336   -2.5710   H         1 RES1   0.0000
    67 H6        5.7594   -3.6027   -1.0834   H         1 RES1   0.0000
    68 H7        5.0889   -5.2142   -1.0003   H         1 RES1   0.0000
    69 H8        3.1657   -3.0106   -0.4496   H         1 RES1   0.0000
    70 H9        4.4017   -3.2532    0.7577   H         1 RES1   0.0000
    71 H10       2.5050   -4.5760    1.4157   H         1 RES1   0.0000
    72 H11       3.8259   -5.6104    0.9692   H         1 RES1   0.0000
    73 H12       2.8404   -6.5195   -0.8240   H         1 RES1   0.0000
    74 H13       1.9317   -5.1244   -1.2693   H         1 RES1   0.0000
    75 H14       0.9721   -6.2333    1.2968   H         1 RES1   0.0000
    76 H15       0.9969   -7.4465    0.0495   H         1 RES1   0.0000
    77 H16      -0.6117   -4.8606   -0.0591   H         1 RES1   0.0000
    78 H17      -1.1660   -6.5049    0.1690   H         1 RES1   0.0000
    79 H18      -0.3549   -7.1386   -2.0535   H         1 RES1   0.0000
    80 H19       0.1442   -5.4992   -2.3822   H         1 RES1   0.0000
    81 H20      -2.7021   -5.9190   -1.5024   H         1 RES1   0.0000
    82 H21      -2.2606   -6.4918   -3.1010   H         1 RES1   0.0000
    83 H22      -2.6202   -4.4432   -3.8947   H         1 RES1   0.0000
    84 H23      -1.2153   -3.8668   -3.0324   H         1 RES1   0.0000
    85 H24      -2.6954   -3.4365   -1.0183   H         1 RES1   0.0000
    86 H25      -4.0878   -3.9386   -1.9994   H         1 RES1   0.0000
    87 H26      -4.4682   -0.8308   -3.5919   H         1 RES1   0.0000
    88 H27      -5.0871   -2.4632   -3.3536   H         1 RES1   0.0000
    89 H28      -4.3877   -1.8750   -5.7086   H         1 RES1   0.0000
    90 H29      -3.7771   -3.3765   -5.0798   H         1 RES1   0.0000
    91 H30      -1.7016   -2.7287   -5.6310   H         1 RES1   0.0000
    92 H31      -1.7706   -1.4338   -4.4579   H         1 RES1   0.0000
    93 H32      -2.7966   -1.2009   -7.3324   H         1 RES1   0.0000
    94 H33      -1.1593   -0.8513   -6.8635   H         1 RES1   0.0000
    95 H34      -2.0551    1.2708   -6.8398   H         1 RES1   0.0000
    96 H35      -2.1646    0.8239   -5.1575   H         1 RES1   0.0000
    97 H36      -4.1716    1.9357   -5.8093   H         1 RES1   0.0000
    98 H37      -4.6328    0.2629   -5.5577   H         1 RES1   0.0000
    99 H38      -3.7956    0.9510   -8.3424   H         1 RES1   0.0000
   100 H39      -5.2602    1.7474   -7.7990   H         1 RES1   0.0000
   101 H40      -6.3426   -0.3865   -7.3580   H         1 RES1   0.0000
   102 H41      -4.8651   -1.2727   -7.7229   H         1 RES1   0.0000
   103 H42      -6.3477    0.5059   -9.6943   H         1 RES1   0.0000
   104 H43      -6.5571   -1.2402   -9.5807   H         1 RES1   0.0000
   105 H44      -3.9231    0.1211  -10.3016   H         1 RES1   0.0000
   106 H45      -5.0952   -0.5371  -11.4360   H         1 RES1   0.0000
   107 H46      -4.8051   -2.7985  -10.4379   H         1 RES1   0.0000
   108 H47      -3.5686   -2.1588   -9.3523   H         1 RES1   0.0000
   109 H48      -3.4296   -2.1401  -12.4035   H         1 RES1   0.0000
   110 H49      -2.5131   -3.1940  -11.3302   H         1 RES1   0.0000
   111 H50      -2.2065   -1.4539  -11.3382   H         1 RES1   0.0000
   112 H51      -3.7615    0.6769   -2.1106   H         1 RES1   0.0000
   113 H52      -2.4499    0.4627   -3.3068   H         1 RES1   0.0000
   114 H53      -2.0185    2.7767   -2.4620   H         1 RES1   0.0000
   115 H54      -0.4519    1.9244   -2.6173   H         1 RES1   0.0000
   116 H55      -1.4342    3.7543   -0.3917   H         1 RES1   0.0000
   117 H56       0.1528    3.6225   -1.1936   H         1 RES1   0.0000
   118 H57      -0.8893    3.7570    1.6936   H         1 RES1   0.0000
   119 H58       0.2654    2.5744    2.2903   H         1 RES1   0.0000
   120 H59      -3.0083    3.3345    4.7093   H         1 RES1   0.0000
   121 H60      -1.8189    4.0121    3.6217   H         1 RES1   0.0000
   122 H61      -0.1081    2.4771    4.4172   H         1 RES1   0.0000
   123 H62      -1.3064    1.5621    5.3688   H         1 RES1   0.0000
   124 H63      -1.5318    3.3731    6.9285   H         1 RES1   0.0000
   125 H64      -0.6497    4.4905    5.8994   H         1 RES1   0.0000
   126 H65       0.5253    1.9609    7.1245   H         1 RES1   0.0000
   127 H66       0.6737    3.5604    7.8314   H         1 RES1   0.0000
   128 H67       1.8709    2.7140    5.1461   H         1 RES1   0.0000
   129 H68       2.6940    2.8763    6.6798   H         1 RES1   0.0000
   130 H69       3.1996    4.9718    5.8968   H         1 RES1   0.0000
   131 H70       1.6175    5.3540    6.5542   H         1 RES1   0.0000
   132 H71       0.6712    4.8450    4.2115   H         1 RES1   0.0000
   133 H72       2.3476    4.7841    3.6585   H         1 RES1   0.0000
   134 H73       1.5825    6.9924    3.1974   H         1 RES1   0.0000
   135 H74       2.6399    7.1351    4.5968   H         1 RES1   0.0000
   136 H75       0.6072    7.1360    6.0826   H         1 RES1   0.0000
   137 H76      -0.4026    7.0850    4.6389   H         1 RES1   0.0000
   138 H77      -0.4073    9.3569    4.9509   H         1 RES1   0.0000
   139 H78       1.0871    9.2736    4.0256   H         1 RES1   0.0000
   140 H79       0.8810    9.3099    7.0725   H         1 RES1   0.0000
   141 H80       1.1892   10.7069    6.0523   H         1 RES1   0.0000
   142 H81       3.0475    8.3204    6.4597   H         1 RES1   0.0000
   143 H82       3.3122    9.9984    6.9115   H         1 RES1   0.0000
   144 H83       3.2928    9.5513    5.2090   H         1 RES1   0.0000
   145 H84      -3.2619    0.4767    4.1881   H         1 RES1   0.0000
   146 H85      -3.8263    0.5954    2.5165   H         1 RES1   0.0000
   147 H86      -4.6911    2.6806    4.5636   H         1 RES1   0.0000
   148 H87      -5.3866    1.0904    4.5918   H         1 RES1   0.0000
   149 H88      -6.8902    1.7234    3.0744   H         1 RES1   0.0000
   150 H89      -5.6502    1.9871    1.8714   H         1 RES1   0.0000
   151 H90      -5.4152    4.3108    2.5288   H         1 RES1   0.0000
   152 H91      -6.4566    4.0834    3.9322   H         1 RES1   0.0000
   153 H92      -8.3479    3.5089    2.4148   H         1 RES1   0.0000
   154 H93      -7.3507    3.8914    1.0310   H         1 RES1   0.0000
   155 H94      -7.7905    5.9645    3.2083   H         1 RES1   0.0000
   156 H95      -9.0551    5.6373    2.0395   H         1 RES1   0.0000
   157 H96      -8.0114    7.4522    1.0678   H         1 RES1   0.0000
   158 H97      -7.2919    6.1137    0.2106   H         1 RES1   0.0000
   159 H98      -5.4133    7.4519    0.7438   H         1 RES1   0.0000
   160 H99      -5.4289    6.2683    2.0652   H         1 RES1   0.0000
   161 H100     -6.6472    7.9324    3.4876   H         1 RES1   0.0000
   162 H101     -6.4603    9.1091    2.1989   H         1 RES1   0.0000
   163 H102     -4.7385    9.4480    3.8590   H         1 RES1   0.0000
   164 H103     -4.0101    8.9563    2.3317   H         1 RES1   0.0000
   165 H104     -2.9234    7.9495    4.2830   H         1 RES1   0.0000
   166 H105     -3.5592    6.7158    3.2032   H         1 RES1   0.0000
   167 H106     -4.9717    7.6820    5.7338   H         1 RES1   0.0000
   168 H107     -3.9712    6.2340    5.6472   H         1 RES1   0.0000
   169 H108     -5.4715    6.3250    4.7243   H         1 RES1   0.0000
   170 C55      -4.8660    3.4973   -3.1554   C.3       1 RES1   0.0000
   171 C56      -5.0016    4.6357   -2.1497   C.3       1 RES1   0.0000
   172 C57      -5.2004    4.1313   -0.7190   C.3       1 RES1   0.0000
   173 C58      -3.9050    3.7369   -0.0058   C.3       1 RES1   0.0000
   174 C59      -3.1948    4.8964    0.7148   C.3       1 RES1   0.0000
   175 C60      -2.4143    5.9105   -0.1394   C.3       1 RES1   0.0000
   176 C61      -1.2226    6.5584    0.6006   C.3       1 RES1   0.0000
   177 C62       0.1832    6.1450    0.1349   C.3       1 RES1   0.0000
   178 C63       0.4251    6.3203   -1.3644   C.3       1 RES1   0.0000
   179 C64       1.8628    5.9577   -1.7820   C.3       1 RES1   0.0000
   180 C65       1.9823    4.7374   -2.7183   C.3       1 RES1   0.0000
   181 C66       2.6949    3.5480   -2.0525   C.3       1 RES1   0.0000
   182 N3        2.5456    2.2984   -2.8061   N.am      1 RES1   0.0000
   183 C67       3.3000    2.1717   -4.0519   C.3       1 RES1   0.0000
   184 C68       2.7249    2.7897   -5.3319   C.3       1 RES1   0.0000
   185 C69       1.3311    2.3506   -5.8028   C.3       1 RES1   0.0000
   186 C70       1.3052    1.3644   -6.9803   C.3       1 RES1   0.0000
   187 C71       1.6156   -0.1025   -6.6809   C.3       1 RES1   0.0000
   188 C72       3.0992   -0.4698   -6.5982   C.3       1 RES1   0.0000
   189 C73       3.7986   -0.4351   -7.9688   C.3       1 RES1   0.0000
   190 C74       4.6563    0.8096   -8.2086   C.3       1 RES1   0.0000
   191 C75       5.1028    0.9386   -9.6682   C.3       1 RES1   0.0000
   192 C76       3.9763    1.2277  -10.6644   C.3       1 RES1   0.0000
   193 C77       3.3441    2.6122  -10.5169   C.3       1 RES1   0.0000
   194 C78       2.2491    2.8307  -11.5570   C.3       1 RES1   0.0000
   195 C79       1.9277    1.2805   -2.2256   C.2       1 RES1   0.0000
   196 O5        1.5787    1.2683   -1.0257   O.2       1 RES1   0.0000
   197 C80       1.4922    0.0728   -3.0505   C.3       1 RES1   0.0000
   198 O6        0.6588   -0.7576   -2.2399   O.3       1 RES1   0.0000
   199 C81       1.4354   -1.8015   -1.6387   C.3       1 RES1   0.0000
   200 C82       0.5506   -2.7704   -0.8514   C.3       1 RES1   0.0000
   201 O7       -0.0140   -2.2464    0.3529   O.3       1 RES1   0.0000
   202 C83       0.4858   -2.7296    1.5853   C.3       1 RES1   0.0000
   203 C84       1.6279   -1.8110    2.0228   C.2       1 RES1   0.0000
   204 O8        1.8450   -0.8181    1.2901   O.2       1 RES1   0.0000
   205 N4        2.3107   -2.0928    3.1203   N.am      1 RES1   0.0000
   206 C85       1.7900   -3.0345    4.1051   C.3       1 RES1   0.0000
   207 C86       0.6845   -2.3794    4.9391   C.3       1 RES1   0.0000
   208 C87       0.2110   -3.2326    6.1168   C.3       1 RES1   0.0000
   209 C88      -1.0499   -2.6462    6.7628   C.3       1 RES1   0.0000
   210 C89      -2.3364   -2.7687    5.9388   C.3       1 RES1   0.0000
   211 C90      -2.7505   -4.2282    5.7000   C.3       1 RES1   0.0000
   212 C91      -2.3342   -4.7759    4.3313   C.3       1 RES1   0.0000
   213 C92      -2.4081   -6.3064    4.2570   C.3       1 RES1   0.0000
   214 C93      -1.3044   -7.0038    5.0548   C.3       1 RES1   0.0000
   215 C94      -1.3904   -8.5366    5.0072   C.3       1 RES1   0.0000
   216 C95      -2.1458   -9.1678    6.1799   C.3       1 RES1   0.0000
   217 C96      -3.6398   -8.8629    6.1971   C.3       1 RES1   0.0000
   218 C97       3.3672   -1.1709    3.5556   C.3       1 RES1   0.0000
   219 C98       4.6341   -1.8295    4.1189   C.3       1 RES1   0.0000
   220 C99       5.7104   -2.2519    3.0993   C.3       1 RES1   0.0000
   221 C100      5.9360   -3.7669    3.0584   C.3       1 RES1   0.0000
   222 C101      7.0203   -4.1767    2.0550   C.3       1 RES1   0.0000
   223 C102      7.4967   -5.6376    2.1530   C.3       1 RES1   0.0000
   224 C103      6.6986   -6.6422    1.3133   C.3       1 RES1   0.0000
   225 C104      5.3800   -7.0742    1.9559   C.3       1 RES1   0.0000
   226 C105      5.4973   -8.1318    3.0477   C.3       1 RES1   0.0000
   227 C106      4.1181   -8.5315    3.5864   C.3       1 RES1   0.0000
   228 C107      3.2543   -7.3848    4.1307   C.3       1 RES1   0.0000
   229 C108      3.9308   -6.5822    5.2369   C.3       1 RES1   0.0000
   230 H109     -4.7631    3.8908   -4.1620   H         1 RES1   0.0000
   231 H110     -5.7457    2.8600   -3.1311   H         1 RES1   0.0000
   232 H111     -3.9985    2.8744   -2.9388   H         1 RES1   0.0000
   233 H112     -5.8630    5.2446   -2.4243   H         1 RES1   0.0000
   234 H113     -4.1220    5.2777   -2.2047   H         1 RES1   0.0000
   235 H114     -5.8796    3.2745   -0.7513   H         1 RES1   0.0000
   236 H115     -5.6922    4.8951   -0.1235   H         1 RES1   0.0000
   237 H116     -3.2487    3.2529   -0.7242   H         1 RES1   0.0000
   238 H117     -4.1416    2.9876    0.7542   H         1 RES1   0.0000
   239 H118     -2.5316    4.4740    1.4718   H         1 RES1   0.0000
   240 H119     -3.9483    5.4462    1.2695   H         1 RES1   0.0000
   241 H120     -3.1068    6.6971   -0.4292   H         1 RES1   0.0000
   242 H121     -2.0740    5.4529   -1.0672   H         1 RES1   0.0000
   243 H122     -1.3108    6.3588    1.6732   H         1 RES1   0.0000
   244 H123     -1.2856    7.6402    0.4944   H         1 RES1   0.0000
   245 H124      0.4101    5.1161    0.4199   H         1 RES1   0.0000
   246 H125      0.8927    6.7825    0.6638   H         1 RES1   0.0000
   247 H126      0.2120    7.3563   -1.6212   H         1 RES1   0.0000
   248 H127     -0.2801    5.7152   -1.9313   H         1 RES1   0.0000
   249 H128      2.4596    5.7811   -0.8887   H         1 RES1   0.0000
   250 H129      2.3028    6.8145   -2.2881   H         1 RES1   0.0000
   251 H130      2.5498    5.0273   -3.5997   H         1 RES1   0.0000
   252 H131      0.9935    4.4273   -3.0621   H         1 RES1   0.0000
   253 H132      2.2848    3.3679   -1.0567   H         1 RES1   0.0000
   254 H133      3.7600    3.7685   -1.9451   H         1 RES1   0.0000
   255 H134      3.5113    1.1162   -4.2158   H         1 RES1   0.0000
   256 H135      4.2585    2.6653   -3.8643   H         1 RES1   0.0000
   257 H136      3.4368    2.5562   -6.1226   H         1 RES1   0.0000
   258 H137      2.7355    3.8710   -5.2331   H         1 RES1   0.0000
   259 H138      0.8155    3.2467   -6.1509   H         1 RES1   0.0000
   260 H139      0.7369    1.9759   -4.9651   H         1 RES1   0.0000
   261 H140      1.9765    1.7204   -7.7596   H         1 RES1   0.0000
   262 H141      0.3018    1.4024   -7.4060   H         1 RES1   0.0000
   263 H142      1.1864   -0.7134   -7.4782   H         1 RES1   0.0000
   264 H143      1.1027   -0.4040   -5.7642   H         1 RES1   0.0000
   265 H144      3.1619   -1.4845   -6.1979   H         1 RES1   0.0000
   266 H145      3.6362    0.1833   -5.9107   H         1 RES1   0.0000
   267 H146      3.0432   -0.4894   -8.7517   H         1 RES1   0.0000
   268 H147      4.4361   -1.3144   -8.0809   H         1 RES1   0.0000
   269 H148      5.5472    0.7652   -7.5762   H         1 RES1   0.0000
   270 H149      4.1012    1.7057   -7.9283   H         1 RES1   0.0000
   271 H150      5.6020    0.0117   -9.9597   H         1 RES1   0.0000
   272 H151      5.8342    1.7465   -9.7434   H         1 RES1   0.0000
   273 H152      3.1932    0.4700  -10.5874   H         1 RES1   0.0000
   274 H153      4.3973    1.1566  -11.6687   H         1 RES1   0.0000
   275 H154      4.1139    3.3789  -10.6353   H         1 RES1   0.0000
   276 H155      2.9117    2.7309   -9.5180   H         1 RES1   0.0000
   277 H156      2.6579    2.7608  -12.5617   H         1 RES1   0.0000
   278 H157      1.8006    3.8146  -11.4410   H         1 RES1   0.0000
   279 H158      1.4663    2.0801  -11.4579   H         1 RES1   0.0000
   280 H159      2.3459   -0.4940   -3.4313   H         1 RES1   0.0000
   281 H160      0.9009    0.4042   -3.9103   H         1 RES1   0.0000
   282 H161      2.2175   -1.3497   -1.0072   H         1 RES1   0.0000
   283 H162      1.9079   -2.3894   -2.4396   H         1 RES1   0.0000
   284 H163      1.1314   -3.6619   -0.6232   H         1 RES1   0.0000
   285 H164     -0.2901   -3.0409   -1.5020   H         1 RES1   0.0000
   286 H165      0.8078   -3.7701    1.5069   H         1 RES1   0.0000
   287 H166     -0.3682   -2.6803    2.2763   H         1 RES1   0.0000
   288 H167      2.6086   -3.3440    4.7525   H         1 RES1   0.0000
   289 H168      1.4097   -3.9300    3.6147   H         1 RES1   0.0000
   290 H169     -0.1735   -2.1823    4.2942   H         1 RES1   0.0000
   291 H170      1.0562   -1.4294    5.3273   H         1 RES1   0.0000
   292 H171      1.0008   -3.2776    6.8679   H         1 RES1   0.0000
   293 H172      0.0098   -4.2515    5.7903   H         1 RES1   0.0000
   294 H173     -0.8727   -1.5934    6.9939   H         1 RES1   0.0000
   295 H174     -1.2165   -3.1569    7.7119   H         1 RES1   0.0000
   296 H175     -2.2480   -2.2450    4.9809   H         1 RES1   0.0000
   297 H176     -3.1232   -2.2606    6.4978   H         1 RES1   0.0000
   298 H177     -3.8333   -4.3273    5.7933   H         1 RES1   0.0000
   299 H178     -2.3012   -4.8441    6.4778   H         1 RES1   0.0000
   300 H179     -1.3114   -4.4623    4.1025   H         1 RES1   0.0000
   301 H180     -2.9866   -4.3471    3.5636   H         1 RES1   0.0000
   302 H181     -2.3353   -6.6109    3.2083   H         1 RES1   0.0000
   303 H182     -3.3777   -6.6345    4.6264   H         1 RES1   0.0000
   304 H183     -1.3544   -6.6875    6.0967   H         1 RES1   0.0000
   305 H184     -0.3343   -6.6873    4.6580   H         1 RES1   0.0000
   306 H185     -0.3787   -8.9481    5.0191   H         1 RES1   0.0000
   307 H186     -1.8590   -8.8515    4.0719   H         1 RES1   0.0000
   308 H187     -1.6960   -8.8444    7.1219   H         1 RES1   0.0000
   309 H188     -2.0149  -10.2500    6.1172   H         1 RES1   0.0000
   310 H189     -3.8356   -7.8260    6.4643   H         1 RES1   0.0000
   311 H190     -4.1378   -9.4944    6.9290   H         1 RES1   0.0000
   312 H191     -4.0814   -9.0652    5.2224   H         1 RES1   0.0000
   313 H192      2.9363   -0.5328    4.3395   H         1 RES1   0.0000
   314 H193      3.6171   -0.5439    2.6962   H         1 RES1   0.0000
   315 H194      4.3591   -2.6877    4.7275   H         1 RES1   0.0000
   316 H195      5.0652   -1.0998    4.8040   H         1 RES1   0.0000
   317 H196      6.6514   -1.7773    3.3720   H         1 RES1   0.0000
   318 H197      5.4659   -1.8908    2.0994   H         1 RES1   0.0000
   319 H198      4.9915   -4.2514    2.8077   H         1 RES1   0.0000
   320 H199      6.2386   -4.1071    4.0494   H         1 RES1   0.0000
   321 H200      7.8856   -3.5315    2.2193   H         1 RES1   0.0000
   322 H201      6.6605   -3.9824    1.0441   H         1 RES1   0.0000
   323 H202      7.4944   -5.9509    3.1968   H         1 RES1   0.0000
   324 H203      8.5319   -5.6759    1.8113   H         1 RES1   0.0000
   325 H204      7.3077   -7.5291    1.1354   H         1 RES1   0.0000
   326 H205      6.4976   -6.2056    0.3299   H         1 RES1   0.0000
   327 H206      4.7138   -7.4732    1.1834   H         1 RES1   0.0000
   328 H207      4.9204   -6.1963    2.4032   H         1 RES1   0.0000
   329 H208      6.1252   -7.7728    3.8627   H         1 RES1   0.0000
   330 H209      5.9753   -9.0228    2.6393   H         1 RES1   0.0000
   331 H210      4.2577   -9.2617    4.3855   H         1 RES1   0.0000
   332 H211      3.5538   -9.0210    2.7864   H         1 RES1   0.0000
   333 H212      2.3340   -7.8210    4.5298   H         1 RES1   0.0000
   334 H213      2.9614   -6.7153    3.3147   H         1 RES1   0.0000
   335 H214      4.2819   -7.2510    6.0168   H         1 RES1   0.0000
   336 H215      3.2282   -5.8787    5.6827   H         1 RES1   0.0000
   337 H216      4.7816   -6.0248    4.8542   H         1 RES1   0.0000
   338 O9        0.2846    0.2637    3.0232   O.3       1 RES1   0.0000
   339 H217      1.1672    0.5624    3.2787   H         1 RES1   0.0000
   340 H218     -0.2212    0.1704    3.8401   H         1 RES1   0.0000
@<TRIPOS>BOND
     1     1    28    1
     2     1    30    1
     3     1    33    1
     4     1    36    1
     5     1   196    1
     6     1   198    1
     7     1   201    1
     8     1   204    1
     9     1   338    1
    10     2     3    1
    11     2    62    1
    12     2    63    1
    13     2    64    1
    14     3     4    1
    15     3    65    1
    16     3    66    1
    17     4     5    1
    18     4    67    1
    19     4    68    1
    20     5     6    1
    21     5    69    1
    22     5    70    1
    23     6     7    1
    24     6    71    1
    25     6    72    1
    26     7     8    1
    27     7    73    1
    28     7    74    1
    29     8     9    1
    30     8    75    1
    31     8    76    1
    32     9    10    1
    33     9    77    1
    34     9    78    1
    35    10    11    1
    36    10    79    1
    37    10    80    1
    38    11    12    1
    39    11    81    1
    40    11    82    1
    41    12    13    1
    42    12    83    1
    43    12    84    1
    44    13    14    1
    45    13    85    1
    46    13    86    1
    47    14    15    1
    48    14    27    1
    49    15    16    1
    50    15    87    1
    51    15    88    1
    52    16    17    1
    53    16    89    1
    54    16    90    1
    55    17    18    1
    56    17    91    1
    57    17    92    1
    58    18    19    1
    59    18    93    1
    60    18    94    1
    61    19    20    1
    62    19    95    1
    63    19    96    1
    64    20    21    1
    65    20    97    1
    66    20    98    1
    67    21    22    1
    68    21    99    1
    69    21   100    1
    70    22    23    1
    71    22   101    1
    72    22   102    1
    73    23    24    1
    74    23   103    1
    75    23   104    1
    76    24    25    1
    77    24   105    1
    78    24   106    1
    79    25    26    1
    80    25   107    1
    81    25   108    1
    82    26   109    1
    83    26   110    1
    84    26   111    1
    85    27    28    2
    86    27    29    1
    87    29    30    1
    88    29   112    1
    89    29   113    1
    90    30    31    1
    91    31    32    1
    92    31   114    1
    93    31   115    1
    94    32    33    1
    95    32   116    1
    96    32   117    1
    97    33    34    1
    98    34    35    1
    99    34   118    1
   100    34   119    1
   101    35    36    2
   102    35    37    1
   103    37    38    1
   104    37    50    1
   105    38    39    1
   106    38   120    1
   107    38   121    1
   108    39    40    1
   109    39   122    1
   110    39   123    1
   111    40    41    1
   112    40   124    1
   113    40   125    1
   114    41    42    1
   115    41   126    1
   116    41   127    1
   117    42    43    1
   118    42   128    1
   119    42   129    1
   120    43    44    1
   121    43   130    1
   122    43   131    1
   123    44    45    1
   124    44   132    1
   125    44   133    1
   126    45    46    1
   127    45   134    1
   128    45   135    1
   129    46    47    1
   130    46   136    1
   131    46   137    1
   132    47    48    1
   133    47   138    1
   134    47   139    1
   135    48    49    1
   136    48   140    1
   137    48   141    1
   138    49   142    1
   139    49   143    1
   140    49   144    1
   141    50    51    1
   142    50   145    1
   143    50   146    1
   144    51    52    1
   145    51   147    1
   146    51   148    1
   147    52    53    1
   148    52   149    1
   149    52   150    1
   150    53    54    1
   151    53   151    1
   152    53   152    1
   153    54    55    1
   154    54   153    1
   155    54   154    1
   156    55    56    1
   157    55   155    1
   158    55   156    1
   159    56    57    1
   160    56   157    1
   161    56   158    1
   162    57    58    1
   163    57   159    1
   164    57   160    1
   165    58    59    1
   166    58   161    1
   167    58   162    1
   168    59    60    1
   169    59   163    1
   170    59   164    1
   171    60    61    1
   172    60   165    1
   173    60   166    1
   174    61   167    1
   175    61   168    1
   176    61   169    1
   177   170   171    1
   178   170   230    1
   179   170   231    1
   180   170   232    1
   181   171   172    1
   182   171   233    1
   183   171   234    1
   184   172   173    1
   185   172   235    1
   186   172   236    1
   187   173   174    1
   188   173   237    1
   189   173   238    1
   190   174   175    1
   191   174   239    1
   192   174   240    1
   193   175   176    1
   194   175   241    1
   195   175   242    1
   196   176   177    1
   197   176   243    1
   198   176   244    1
   199   177   178    1
   200   177   245    1
   201   177   246    1
   202   178   179    1
   203   178   247    1
   204   178   248    1
   205   179   180    1
   206   179   249    1
   207   179   250    1
   208   180   181    1
   209   180   251    1
   210   180   252    1
   211   181   182    1
   212   181   253    1
   213   181   254    1
   214   182   183    1
   215   182   195    1
   216   183   184    1
   217   183   255    1
   218   183   256    1
   219   184   185    1
   220   184   257    1
   221   184   258    1
   222   185   186    1
   223   185   259    1
   224   185   260    1
   225   186   187    1
   226   186   261    1
   227   186   262    1
   228   187   188    1
   229   187   263    1
   230   187   264    1
   231   188   189    1
   232   188   265    1
   233   188   266    1
   234   189   190    1
   235   189   267    1
   236   189   268    1
   237   190   191    1
   238   190   269    1
   239   190   270    1
   240   191   192    1
   241   191   271    1
   242   191   272    1
   243   192   193    1
   244   192   273    1
   245   192   274    1
   246   193   194    1
   247   193   275    1
   248   193   276    1
   249   194   277    1
   250   194   278    1
   251   194   279    1
   252   195   196    2
   253   195   197    1
   254   197   198    1
   255   197   280    1
   256   197   281    1
   257   198   199    1
   258   199   200    1
   259   199   282    1
   260   199   283    1
   261   200   201    1
   262   200   284    1
   263   200   285    1
   264   201   202    1
   265   202   203    1
   266   202   286    1
   267   202   287    1
   268   203   204    2
   269   203   205    1
   270   205   206    1
   271   205   218    1
   272   206   207    1
   273   206   288    1
   274   206   289    1
   275   207   208    1
   276   207   290    1
   277   207   291    1
   278   208   209    1
   279   208   292    1
   280   208   293    1
   281   209   210    1
   282   209   294    1
   283   209   295    1
   284   210   211    1
   285   210   296    1
   286   210   297    1
   287   211   212    1
   288   211   298    1
   289   211   299    1
   290   212   213    1
   291   212   300    1
   292   212   301    1
   293   213   214    1
   294   213   302    1
   295   213   303    1
   296   214   215    1
   297   214   304    1
   298   214   305    1
   299   215   216    1
   300   215   306    1
   301   215   307    1
   302   216   217    1
   303   216   308    1
   304   216   309    1
   305   217   310    1
   306   217   311    1
   307   217   312    1
   308   218   219    1
   309   218   313    1
   310   218   314    1
   311   219   220    1
   312   219   315    1
   313   219   316    1
   314   220   221    1
   315   220   317    1
   316   220   318    1
   317   221   222    1
   318   221   319    1
   319   221   320    1
   320   222   223    1
   321   222   321    1
   322   222   322    1
   323   223   224    1
   324   223   323    1
   325   223   324    1
   326   224   225    1
   327   224   325    1
   328   224   326    1
   329   225   226    1
   330   225   327    1
   331   225   328    1
   332   226   227    1
   333   226   329    1
   334   226   330    1
   335   227   228    1
   336   227   331    1
   337   227   332    1
   338   228   229    1
   339   228   333    1
   340   228   334    1
   341   229   335    1
   342   229   336    1
   343   229   337    1
   344   338   339    1
   345   338   340    1
@<TRIPOS>SUBSTRUCTURE
     1 RES1      340 GROUP             0 ****  ****    0  
