@<TRIPOS>MOLECULE
am_c3_9H2O_c0_0_nunpairedes_0_charge_3 Charge: 3 Unpaired_Electrons: 1 XTB_Unpaired_Electrons: 0 XTB_Charge: 3
   152   167     1     0     0
SMALL
NoCharges
****
Generated from Architector

@<TRIPOS>ATOM
     1 Ce1       0.0392   -0.0334   -0.0337   Ce        1 RES1   0.0000
     2 C1        2.8718   -5.6865    8.0038   C.3       1 RES1   0.0000
     3 C2        3.8568   -4.8319    7.1996   C.3       1 RES1   0.0000
     4 C3        3.3408   -4.5177    5.8291   C.ar      1 RES1   0.0000
     5 C4        3.7673   -5.2207    4.7053   C.ar      1 RES1   0.0000
     6 C5        3.3320   -4.8893    3.4382   C.ar      1 RES1   0.0000
     7 C6        2.4401   -3.8344    3.2622   C.ar      1 RES1   0.0000
     8 N1        1.9202   -3.5238    1.9789   N.am      1 RES1   0.0000
     9 C7        1.3623   -4.6488    1.2201   C.3       1 RES1   0.0000
    10 C8        2.1055   -4.8699   -0.0906   C.3       1 RES1   0.0000
    11 C9        1.6987   -2.3112    1.4657   C.2       1 RES1   0.0000
    12 O1        0.9231   -2.1771    0.4885   O.2       1 RES1   0.0000
    13 C10       2.4334   -1.0727    1.9198   C.ar      1 RES1   0.0000
    14 C11       3.5899   -1.0183    2.7175   C.ar      1 RES1   0.0000
    15 C12       4.2109    0.2022    2.8714   C.ar      1 RES1   0.0000
    16 C13       3.7086    1.3563    2.2365   C.ar      1 RES1   0.0000
    17 C14       4.3327    2.6330    2.3327   C.ar      1 RES1   0.0000
    18 C15       3.8272    3.7109    1.6755   C.ar      1 RES1   0.0000
    19 C16       2.6537    3.6030    0.8720   C.ar      1 RES1   0.0000
    20 C17       2.1009    4.6784    0.1498   C.ar      1 RES1   0.0000
    21 C18       0.9623    4.5158   -0.6147   C.ar      1 RES1   0.0000
    22 C19       0.3355    3.2545   -0.6369   C.ar      1 RES1   0.0000
    23 C20      -0.8889    2.7811   -1.4138   C.2       1 RES1   0.0000
    24 O2       -1.0486    1.5408   -1.4297   O.2       1 RES1   0.0000
    25 N2       -1.7531    3.5861   -2.0640   N.am      1 RES1   0.0000
    26 C21      -2.0481    4.9441   -1.6110   C.3       1 RES1   0.0000
    27 C22      -1.7697    6.0213   -2.6498   C.3       1 RES1   0.0000
    28 C23      -2.6007    3.0472   -3.0906   C.ar      1 RES1   0.0000
    29 C24      -2.1678    1.9583   -3.8497   C.ar      1 RES1   0.0000
    30 C25      -2.9213    1.4456   -4.8815   C.ar      1 RES1   0.0000
    31 C26      -4.1459    2.0047   -5.2357   C.ar      1 RES1   0.0000
    32 C27      -4.9645    1.4227   -6.3508   C.3       1 RES1   0.0000
    33 C28      -4.2238    1.3225   -7.6862   C.3       1 RES1   0.0000
    34 C29      -4.5746    3.0956   -4.4897   C.ar      1 RES1   0.0000
    35 C30      -3.8297    3.6059   -3.4364   C.ar      1 RES1   0.0000
    36 N3        0.8745    2.2277    0.0271   N.ar      1 RES1   0.0000
    37 C31       1.9874    2.3603    0.7625   C.ar      1 RES1   0.0000
    38 C32       2.5356    1.2102    1.4613   C.ar      1 RES1   0.0000
    39 N4        1.9418    0.0181    1.3348   N.ar      1 RES1   0.0000
    40 C33       1.9463   -3.1796    4.3840   C.ar      1 RES1   0.0000
    41 C34       2.4051   -3.5074    5.6449   C.ar      1 RES1   0.0000
    42 H1        3.2922   -5.8938    8.9841   H         1 RES1   0.0000
    43 H2        2.6910   -6.6369    7.5099   H         1 RES1   0.0000
    44 H3        1.9221   -5.1689    8.1259   H         1 RES1   0.0000
    45 H4        4.8087   -5.3586    7.1140   H         1 RES1   0.0000
    46 H5        4.0226   -3.8982    7.7448   H         1 RES1   0.0000
    47 H6        4.4627   -6.0330    4.8283   H         1 RES1   0.0000
    48 H7        3.6865   -5.4518    2.5920   H         1 RES1   0.0000
    49 H8        0.3144   -4.4092    1.0108   H         1 RES1   0.0000
    50 H9        1.4082   -5.5383    1.8491   H         1 RES1   0.0000
    51 H10       2.0085   -3.9993   -0.7343   H         1 RES1   0.0000
    52 H11       1.6735   -5.7288   -0.5931   H         1 RES1   0.0000
    53 H12       3.1610   -5.0622    0.0781   H         1 RES1   0.0000
    54 H13       3.9888   -1.9005    3.1905   H         1 RES1   0.0000
    55 H14       5.1076    0.2912    3.4593   H         1 RES1   0.0000
    56 H15       5.2173    2.7181    2.9490   H         1 RES1   0.0000
    57 H16       4.2966    4.6823    1.7529   H         1 RES1   0.0000
    58 H17       2.5949    5.6347    0.2033   H         1 RES1   0.0000
    59 H18       0.5903    5.3561   -1.1764   H         1 RES1   0.0000
    60 H19      -1.4994    5.1315   -0.6894   H         1 RES1   0.0000
    61 H20      -3.1083    4.9612   -1.3392   H         1 RES1   0.0000
    62 H21      -0.7348    6.0115   -2.9796   H         1 RES1   0.0000
    63 H22      -1.9917    6.9878   -2.2085   H         1 RES1   0.0000
    64 H23      -2.4014    5.9002   -3.5234   H         1 RES1   0.0000
    65 H24      -1.2184    1.5012   -3.6321   H         1 RES1   0.0000
    66 H25      -2.5355    0.6019   -5.4323   H         1 RES1   0.0000
    67 H26      -5.8667    2.0195   -6.4917   H         1 RES1   0.0000
    68 H27      -5.2781    0.4170   -6.0500   H         1 RES1   0.0000
    69 H28      -3.9260    2.3077   -8.0340   H         1 RES1   0.0000
    70 H29      -4.8893    0.8851   -8.4253   H         1 RES1   0.0000
    71 H30      -3.3402    0.6928   -7.6142   H         1 RES1   0.0000
    72 H31      -5.5154    3.5634   -4.7364   H         1 RES1   0.0000
    73 H32      -4.2354    4.4473   -2.9032   H         1 RES1   0.0000
    74 H33       1.1871   -2.4290    4.2624   H         1 RES1   0.0000
    75 H34       2.0311   -2.9736    6.5026   H         1 RES1   0.0000
    76 C35       1.5115   -0.3992    9.2147   C.3       1 RES1   0.0000
    77 C36       1.6507    0.5633    8.0317   C.3       1 RES1   0.0000
    78 C37       0.6604    0.3141    6.9336   C.ar      1 RES1   0.0000
    79 C38       1.0682   -0.0071    5.6456   C.ar      1 RES1   0.0000
    80 C39       0.1620   -0.2670    4.6363   C.ar      1 RES1   0.0000
    81 C40      -1.2183   -0.2349    4.8485   C.ar      1 RES1   0.0000
    82 N5       -2.1791   -0.6248    3.8421   N.am      1 RES1   0.0000
    83 C41      -3.5226   -0.9203    4.3348   C.3       1 RES1   0.0000
    84 C42      -4.4697    0.2575    4.1122   C.3       1 RES1   0.0000
    85 C43      -1.8743   -0.6990    2.5319   C.2       1 RES1   0.0000
    86 O3       -0.7314   -0.3722    2.1324   O.2       1 RES1   0.0000
    87 C44      -2.8129   -1.1169    1.3786   C.ar      1 RES1   0.0000
    88 C45      -4.1655   -1.5104    1.3445   C.ar      1 RES1   0.0000
    89 C46      -4.7496   -1.8156    0.1318   C.ar      1 RES1   0.0000
    90 C47      -4.0191   -1.7587   -1.0675   C.ar      1 RES1   0.0000
    91 C48      -4.5751   -2.1036   -2.3334   C.ar      1 RES1   0.0000
    92 C49      -3.8156   -2.0662   -3.4586   C.ar      1 RES1   0.0000
    93 C50      -2.4491   -1.6681   -3.4099   C.ar      1 RES1   0.0000
    94 C51      -1.6185   -1.6466   -4.5480   C.ar      1 RES1   0.0000
    95 C52      -0.3255   -1.1754   -4.4704   C.ar      1 RES1   0.0000
    96 C53       0.1492   -0.7545   -3.2161   C.ar      1 RES1   0.0000
    97 C54       1.4874   -0.1409   -2.8615   C.2       1 RES1   0.0000
    98 O4        1.7372   -0.0488   -1.6335   O.2       1 RES1   0.0000
    99 N6        2.3890    0.2774   -3.7492   N.am      1 RES1   0.0000
   100 C55       3.6987    0.6959   -3.2357   C.3       1 RES1   0.0000
   101 C56       4.0203    2.1570   -3.5098   C.3       1 RES1   0.0000
   102 C57       2.2170    0.4342   -5.1518   C.ar      1 RES1   0.0000
   103 C58       3.1453   -0.0899   -6.0454   C.ar      1 RES1   0.0000
   104 C59       2.9889    0.1146   -7.4006   C.ar      1 RES1   0.0000
   105 C60       1.9091    0.8308   -7.9058   C.ar      1 RES1   0.0000
   106 C61       1.7090    0.9978   -9.3789   C.3       1 RES1   0.0000
   107 C62       1.7797    2.4618   -9.8165   C.3       1 RES1   0.0000
   108 C63       1.0087    1.3831   -7.0006   C.ar      1 RES1   0.0000
   109 C64       1.1700    1.2062   -5.6405   C.ar      1 RES1   0.0000
   110 N7       -0.5879   -0.9066   -2.1170   N.ar      1 RES1   0.0000
   111 C65      -1.8634   -1.3041   -2.1752   C.ar      1 RES1   0.0000
   112 C66      -2.6649   -1.3579   -0.9612   C.ar      1 RES1   0.0000
   113 N8       -2.1276   -1.0433    0.2273   N.ar      1 RES1   0.0000
   114 C67      -1.6290    0.1589    6.1285   C.ar      1 RES1   0.0000
   115 C68      -0.7131    0.4191    7.1329   C.ar      1 RES1   0.0000
   116 H35       2.2983   -0.1935    9.9350   H         1 RES1   0.0000
   117 H36       1.6097   -1.4335    8.8941   H         1 RES1   0.0000
   118 H37       0.5546   -0.2746    9.7129   H         1 RES1   0.0000
   119 H38       2.6611    0.4851    7.6229   H         1 RES1   0.0000
   120 H39       1.5148    1.5828    8.4047   H         1 RES1   0.0000
   121 H40       2.1192   -0.0628    5.4062   H         1 RES1   0.0000
   122 H41       0.5677   -0.4996    3.6708   H         1 RES1   0.0000
   123 H42      -3.4536   -1.1586    5.3954   H         1 RES1   0.0000
   124 H43      -3.8861   -1.8315    3.8622   H         1 RES1   0.0000
   125 H44      -4.1624    1.1371    4.6701   H         1 RES1   0.0000
   126 H45      -5.4615   -0.0106    4.4580   H         1 RES1   0.0000
   127 H46      -4.5282    0.5385    3.0630   H         1 RES1   0.0000
   128 H47      -4.7948   -1.5827    2.2127   H         1 RES1   0.0000
   129 H48      -5.7848   -2.1111    0.0908   H         1 RES1   0.0000
   130 H49      -5.6118   -2.4150   -2.3614   H         1 RES1   0.0000
   131 H50      -4.2296   -2.3441   -4.4183   H         1 RES1   0.0000
   132 H51      -2.0205   -2.0040   -5.4814   H         1 RES1   0.0000
   133 H52       0.2894   -1.1359   -5.3534   H         1 RES1   0.0000
   134 H53       4.4574    0.0628   -3.7006   H         1 RES1   0.0000
   135 H54       3.6951    0.5052   -2.1614   H         1 RES1   0.0000
   136 H55       4.0418    2.3616   -4.5760   H         1 RES1   0.0000
   137 H56       5.0051    2.3571   -3.0986   H         1 RES1   0.0000
   138 H57       3.3028    2.8241   -3.0376   H         1 RES1   0.0000
   139 H58       3.9854   -0.6647   -5.6962   H         1 RES1   0.0000
   140 H59       3.7153   -0.2980   -8.0811   H         1 RES1   0.0000
   141 H60       0.7231    0.6015   -9.6398   H         1 RES1   0.0000
   142 H61       2.4628    0.4195   -9.9157   H         1 RES1   0.0000
   143 H62       1.0054    3.0524   -9.3323   H         1 RES1   0.0000
   144 H63       1.6398    2.5213  -10.8916   H         1 RES1   0.0000
   145 H64       2.7498    2.8874   -9.5728   H         1 RES1   0.0000
   146 H65       0.1773    1.9600   -7.3706   H         1 RES1   0.0000
   147 H66       0.4904    1.6651   -4.9424   H         1 RES1   0.0000
   148 H67      -2.6665    0.2838    6.3849   H         1 RES1   0.0000
   149 H68      -1.0809    0.7196    8.1014   H         1 RES1   0.0000
   150 O5       -1.4367    2.0242    1.3668   O.3       1 RES1   0.0000
   151 H69      -0.9998    2.0921    2.2250   H         1 RES1   0.0000
   152 H70      -2.3641    1.8314    1.5451   H         1 RES1   0.0000
@<TRIPOS>BOND
     1     1    12    1
     2     1    24    1
     3     1    36    1
     4     1    39    1
     5     1    86    1
     6     1    98    1
     7     1   110    1
     8     1   113    1
     9     1   150    1
    10     2     3    1
    11     2    42    1
    12     2    43    1
    13     2    44    1
    14     3     4    1
    15     3    45    1
    16     3    46    1
    17     4     5    1
    18     4    41    2
    19     5     6    2
    20     5    47    1
    21     6     7    1
    22     6    48    1
    23     7     8    1
    24     7    40    2
    25     8     9    1
    26     8    11    1
    27     9    10    1
    28     9    49    1
    29     9    50    1
    30    10    51    1
    31    10    52    1
    32    10    53    1
    33    11    12    2
    34    11    13    1
    35    13    14    1
    36    13    39    2
    37    14    15    2
    38    14    54    1
    39    15    16    1
    40    15    55    1
    41    16    17    1
    42    16    38    2
    43    17    18    2
    44    17    56    1
    45    18    19    1
    46    18    57    1
    47    19    20    1
    48    19    37    2
    49    20    21    2
    50    20    58    1
    51    21    22    1
    52    21    59    1
    53    22    23    1
    54    22    36    2
    55    23    24    2
    56    23    25    1
    57    25    26    1
    58    25    28    1
    59    26    27    1
    60    26    60    1
    61    26    61    1
    62    27    62    1
    63    27    63    1
    64    27    64    1
    65    28    29    1
    66    28    35    2
    67    29    30    2
    68    29    65    1
    69    30    31    1
    70    30    66    1
    71    31    32    1
    72    31    34    2
    73    32    33    1
    74    32    67    1
    75    32    68    1
    76    33    69    1
    77    33    70    1
    78    33    71    1
    79    34    35    1
    80    34    72    1
    81    35    73    1
    82    36    37    1
    83    37    38    1
    84    38    39    1
    85    40    41    1
    86    40    74    1
    87    41    75    1
    88    76    77    1
    89    76   116    1
    90    76   117    1
    91    76   118    1
    92    77    78    1
    93    77   119    1
    94    77   120    1
    95    78    79    1
    96    78   115    2
    97    79    80    2
    98    79   121    1
    99    80    81    1
   100    80   122    1
   101    81    82    1
   102    81   114    2
   103    82    83    1
   104    82    85    1
   105    83    84    1
   106    83   123    1
   107    83   124    1
   108    84   125    1
   109    84   126    1
   110    84   127    1
   111    85    86    2
   112    85    87    1
   113    87    88    1
   114    87   113    2
   115    88    89    2
   116    88   128    1
   117    89    90    1
   118    89   129    1
   119    90    91    1
   120    90   112    2
   121    91    92    2
   122    91   130    1
   123    92    93    1
   124    92   131    1
   125    93    94    1
   126    93   111    2
   127    94    95    2
   128    94   132    1
   129    95    96    1
   130    95   133    1
   131    96    97    1
   132    96   110    2
   133    97    98    2
   134    97    99    1
   135    99   100    1
   136    99   102    1
   137   100   101    1
   138   100   134    1
   139   100   135    1
   140   101   136    1
   141   101   137    1
   142   101   138    1
   143   102   103    1
   144   102   109    2
   145   103   104    2
   146   103   139    1
   147   104   105    1
   148   104   140    1
   149   105   106    1
   150   105   108    2
   151   106   107    1
   152   106   141    1
   153   106   142    1
   154   107   143    1
   155   107   144    1
   156   107   145    1
   157   108   109    1
   158   108   146    1
   159   109   147    1
   160   110   111    1
   161   111   112    1
   162   112   113    1
   163   114   115    1
   164   114   148    1
   165   115   149    1
   166   150   151    1
   167   150   152    1
@<TRIPOS>SUBSTRUCTURE
     1 RES1      152 GROUP             0 ****  ****    0  
