@<TRIPOS>MOLECULE
am_c3_9H2O_c0_0_nunpairedes_0_charge_3 Charge: 3 Unpaired_Electrons: 1 XTB_Unpaired_Electrons: 0 XTB_Charge: 3
   172   186     1     0     0
SMALL
NoCharges
****
Generated from Architector

@<TRIPOS>ATOM
     1 Ce1      -0.0761   -0.0464   -0.0405   Ce        1 RES1   0.0000
     2 C1       -4.5040   -3.9262    1.7909   C.3       1 RES1   0.0000
     3 C2       -3.9830   -3.0393    2.9164   C.3       1 RES1   0.0000
     4 N1       -2.6615   -2.4948    2.6263   N.am      1 RES1   0.0000
     5 C3       -2.3404   -1.6684    1.6222   C.2       1 RES1   0.0000
     6 O1       -1.1436   -1.5230    1.3082   O.2       1 RES1   0.0000
     7 C4       -3.3192   -0.8219    0.8277   C.ar      1 RES1   0.0000
     8 C5       -4.6732   -0.5861    1.0505   C.ar      1 RES1   0.0000
     9 C6       -5.3057    0.4105    0.3216   C.ar      1 RES1   0.0000
    10 C7       -4.6007    1.1304   -0.6311   C.ar      1 RES1   0.0000
    11 C8       -3.2808    0.7537   -0.8957   C.ar      1 RES1   0.0000
    12 C9       -2.3230    1.3691   -1.8947   C.2       1 RES1   0.0000
    13 O2       -1.1044    1.2863   -1.6255   O.2       1 RES1   0.0000
    14 N2       -2.7399    1.9624   -3.0168   N.am      1 RES1   0.0000
    15 C10      -4.1230    2.0132   -3.4724   C.3       1 RES1   0.0000
    16 C11      -4.7132    3.3981   -3.2441   C.3       1 RES1   0.0000
    17 C12      -1.7924    2.6810   -3.8127   C.ar      1 RES1   0.0000
    18 C13      -1.8384    2.6057   -5.2003   C.ar      1 RES1   0.0000
    19 C14      -0.9959    3.3781   -5.9700   C.ar      1 RES1   0.0000
    20 C15      -0.0692    4.2351   -5.3843   C.ar      1 RES1   0.0000
    21 C16       0.7991    5.0922   -6.2464   C.3       1 RES1   0.0000
    22 C17      -0.0124    4.2853   -3.9947   C.ar      1 RES1   0.0000
    23 C18      -0.8646    3.5275   -3.2127   C.ar      1 RES1   0.0000
    24 N3       -2.6781   -0.1729   -0.1521   N.ar      1 RES1   0.0000
    25 C19      -1.5831   -3.0348    3.4060   C.ar      1 RES1   0.0000
    26 C20      -0.6078   -2.2089    3.9479   C.ar      1 RES1   0.0000
    27 C21       0.3400   -2.7404    4.8063   C.ar      1 RES1   0.0000
    28 C22       0.3425   -4.0858    5.1518   C.ar      1 RES1   0.0000
    29 C23       1.2773   -4.6613    6.1680   C.3       1 RES1   0.0000
    30 C24      -0.6029   -4.9102    4.5464   C.ar      1 RES1   0.0000
    31 C25      -1.5537   -4.3969    3.6898   C.ar      1 RES1   0.0000
    32 H1       -5.5186   -4.2413    2.0115   H         1 RES1   0.0000
    33 H2       -3.8953   -4.8192    1.6878   H         1 RES1   0.0000
    34 H3       -4.4986   -3.3890    0.8448   H         1 RES1   0.0000
    35 H4       -3.8925   -3.6132    3.8375   H         1 RES1   0.0000
    36 H5       -4.6828   -2.2321    3.1204   H         1 RES1   0.0000
    37 H6       -5.2622   -1.1285    1.7662   H         1 RES1   0.0000
    38 H7       -6.3438    0.6384    0.5163   H         1 RES1   0.0000
    39 H8       -5.0838    1.9703   -1.1011   H         1 RES1   0.0000
    40 H9       -4.6982    1.2360   -2.9762   H         1 RES1   0.0000
    41 H10      -4.1549    1.7987   -4.5398   H         1 RES1   0.0000
    42 H11      -4.6157    3.7066   -2.2065   H         1 RES1   0.0000
    43 H12      -5.7651    3.4041   -3.5077   H         1 RES1   0.0000
    44 H13      -4.1999    4.1212   -3.8706   H         1 RES1   0.0000
    45 H14      -2.5325    1.9547   -5.7029   H         1 RES1   0.0000
    46 H15      -1.0761    3.3375   -7.0449   H         1 RES1   0.0000
    47 H16       0.1914    5.8688   -6.7134   H         1 RES1   0.0000
    48 H17       1.2367    4.4946   -7.0440   H         1 RES1   0.0000
    49 H18       1.5956    5.5720   -5.6806   H         1 RES1   0.0000
    50 H19       0.6827    4.9579   -3.5127   H         1 RES1   0.0000
    51 H20      -0.8227    3.6079   -2.1366   H         1 RES1   0.0000
    52 H21      -0.5939   -1.1515    3.7221   H         1 RES1   0.0000
    53 H22       1.0732   -2.0737    5.2289   H         1 RES1   0.0000
    54 H23       2.0236   -3.9383    6.4886   H         1 RES1   0.0000
    55 H24       1.7732   -5.5493    5.7773   H         1 RES1   0.0000
    56 H25       0.7089   -4.9683    7.0479   H         1 RES1   0.0000
    57 H26      -0.5964   -5.9659    4.7663   H         1 RES1   0.0000
    58 H27      -2.2733   -5.0669    3.2498   H         1 RES1   0.0000
    59 C26      -1.9915   -5.4474   -1.3557   C.3       1 RES1   0.0000
    60 C27      -0.8057   -5.0200   -2.2257   C.3       1 RES1   0.0000
    61 N4       -0.8809   -3.6001   -2.5546   N.am      1 RES1   0.0000
    62 C28      -0.1963   -2.7351   -1.7893   C.2       1 RES1   0.0000
    63 O3       -0.5549   -1.5561   -1.6170   O.2       1 RES1   0.0000
    64 C29       1.0980   -3.0907   -1.0898   C.ar      1 RES1   0.0000
    65 C30       2.1524   -3.8798   -1.5560   C.ar      1 RES1   0.0000
    66 C31       3.3400   -3.8536   -0.8380   C.ar      1 RES1   0.0000
    67 C32       3.4703   -3.0550    0.2916   C.ar      1 RES1   0.0000
    68 C33       2.3673   -2.2999    0.6956   C.ar      1 RES1   0.0000
    69 C34       2.2726   -1.2153    1.7523   C.2       1 RES1   0.0000
    70 O4        1.4171   -0.3327    1.5515   O.2       1 RES1   0.0000
    71 N5        3.0548   -1.1461    2.8315   N.am      1 RES1   0.0000
    72 C35       3.9339   -2.2057    3.2900   C.3       1 RES1   0.0000
    73 C36       5.3901   -1.7899    3.1296   C.3       1 RES1   0.0000
    74 C37       3.0091    0.0596    3.6069   C.ar      1 RES1   0.0000
    75 C38       2.9636    0.0281    4.9955   C.ar      1 RES1   0.0000
    76 C39       2.8744    1.2025    5.7155   C.ar      1 RES1   0.0000
    77 C40       2.8308    2.4421    5.0880   C.ar      1 RES1   0.0000
    78 C41       2.7034    3.6787    5.9200   C.3       1 RES1   0.0000
    79 C42       2.9355    2.4664    3.7008   C.ar      1 RES1   0.0000
    80 C43       3.0310    1.2974    2.9672   C.ar      1 RES1   0.0000
    81 N6        1.2361   -2.3285   -0.0069   N.ar      1 RES1   0.0000
    82 C44      -1.8682   -3.1557   -3.4945   C.ar      1 RES1   0.0000
    83 C45      -2.0387   -1.8009   -3.7925   C.ar      1 RES1   0.0000
    84 C46      -2.9888   -1.3814   -4.7022   C.ar      1 RES1   0.0000
    85 C47      -3.8165   -2.2725   -5.3661   C.ar      1 RES1   0.0000
    86 C48      -4.8723   -1.8176   -6.3214   C.3       1 RES1   0.0000
    87 C49      -3.6200   -3.6215   -5.0977   C.ar      1 RES1   0.0000
    88 C50      -2.6680   -4.0631   -4.1960   C.ar      1 RES1   0.0000
    89 H28      -1.9788   -6.5291   -1.2466   H         1 RES1   0.0000
    90 H29      -2.9407   -5.1610   -1.8043   H         1 RES1   0.0000
    91 H30      -1.9284   -4.9991   -0.3638   H         1 RES1   0.0000
    92 H31      -0.7719   -5.6060   -3.1420   H         1 RES1   0.0000
    93 H32       0.1046   -5.1978   -1.6576   H         1 RES1   0.0000
    94 H33       2.0873   -4.4761   -2.4557   H         1 RES1   0.0000
    95 H34       4.1816   -4.4398   -1.1833   H         1 RES1   0.0000
    96 H35       4.4248   -3.0134    0.7898   H         1 RES1   0.0000
    97 H36       3.7064   -3.1199    2.7465   H         1 RES1   0.0000
    98 H37       3.7319   -2.4008    4.3438   H         1 RES1   0.0000
    99 H38       5.6347   -1.5929    2.0866   H         1 RES1   0.0000
   100 H39       6.0487   -2.5688    3.5031   H         1 RES1   0.0000
   101 H40       5.5739   -0.8834    3.7034   H         1 RES1   0.0000
   102 H41       2.9952   -0.9016    5.5419   H         1 RES1   0.0000
   103 H42       2.8401    1.1604    6.7924   H         1 RES1   0.0000
   104 H43       3.6077    3.8090    6.5142   H         1 RES1   0.0000
   105 H44       1.8737    3.5719    6.6172   H         1 RES1   0.0000
   106 H45       2.5529    4.5706    5.3178   H         1 RES1   0.0000
   107 H46       2.9611    3.4168    3.1869   H         1 RES1   0.0000
   108 H47       3.1248    1.3435    1.8897   H         1 RES1   0.0000
   109 H48      -1.4393   -1.0417   -3.3206   H         1 RES1   0.0000
   110 H49      -3.0773   -0.3250   -4.8926   H         1 RES1   0.0000
   111 H50      -4.8713   -0.7360   -6.4219   H         1 RES1   0.0000
   112 H51      -5.8501   -2.1341   -5.9666   H         1 RES1   0.0000
   113 H52      -4.7195   -2.2599   -7.3032   H         1 RES1   0.0000
   114 H53      -4.2349   -4.3387   -5.6147   H         1 RES1   0.0000
   115 H54      -2.5744   -5.1278   -4.0723   H         1 RES1   0.0000
   116 C51       3.7462    2.9901   -4.5177   C.3       1 RES1   0.0000
   117 C52       4.0625    2.2273   -3.2385   C.3       1 RES1   0.0000
   118 N7        2.9957    1.3030   -2.8902   N.am      1 RES1   0.0000
   119 C53       2.3111    1.3135   -1.7415   C.2       1 RES1   0.0000
   120 O5        1.8116    0.2596   -1.2990   O.2       1 RES1   0.0000
   121 C54       1.9893    2.5838   -0.9959   C.ar      1 RES1   0.0000
   122 C55       2.2462    3.9089   -1.3576   C.ar      1 RES1   0.0000
   123 C56       1.6587    4.9209   -0.6176   C.ar      1 RES1   0.0000
   124 C57       0.7826    4.6151    0.4116   C.ar      1 RES1   0.0000
   125 C58       0.5811    3.2680    0.7241   C.ar      1 RES1   0.0000
   126 C59      -0.4513    2.6680    1.6488   C.2       1 RES1   0.0000
   127 O6       -0.9191    1.5627    1.3052   O.2       1 RES1   0.0000
   128 N8       -0.8902    3.2872    2.7418   N.am      1 RES1   0.0000
   129 C60      -0.3221    4.5104    3.2786   C.3       1 RES1   0.0000
   130 C61      -1.2933    5.6665    3.0704   C.3       1 RES1   0.0000
   131 C62      -2.0555    2.7866    3.4064   C.ar      1 RES1   0.0000
   132 C63      -3.1531    2.3806    2.6524   C.ar      1 RES1   0.0000
   133 C64      -4.3106    1.9695    3.2818   C.ar      1 RES1   0.0000
   134 C65      -4.4274    1.9757    4.6674   C.ar      1 RES1   0.0000
   135 C66      -5.7079    1.5835    5.3297   C.3       1 RES1   0.0000
   136 C67      -3.3204    2.3741    5.4071   C.ar      1 RES1   0.0000
   137 C68      -2.1449    2.7693    4.7935   C.ar      1 RES1   0.0000
   138 N9        1.1878    2.3036    0.0335   N.ar      1 RES1   0.0000
   139 C69       2.7268    0.2416   -3.8085   C.ar      1 RES1   0.0000
   140 C70       3.7367   -0.3909   -4.5196   C.ar      1 RES1   0.0000
   141 C71       3.4207   -1.3509   -5.4631   C.ar      1 RES1   0.0000
   142 C72       2.1058   -1.7167   -5.7181   C.ar      1 RES1   0.0000
   143 C73       1.7879   -2.7330   -6.7684   C.3       1 RES1   0.0000
   144 C74       1.1043   -1.0893   -4.9805   C.ar      1 RES1   0.0000
   145 C75       1.3993   -0.1139   -4.0490   C.ar      1 RES1   0.0000
   146 H55       4.5668    3.6595   -4.7623   H         1 RES1   0.0000
   147 H56       2.8251    3.5614   -4.4210   H         1 RES1   0.0000
   148 H57       3.6230    2.2856   -5.3374   H         1 RES1   0.0000
   149 H58       4.2509    2.8949   -2.4002   H         1 RES1   0.0000
   150 H59       4.9792    1.6494   -3.3856   H         1 RES1   0.0000
   151 H60       2.8461    4.1892   -2.2054   H         1 RES1   0.0000
   152 H61       1.8425    5.9501   -0.8853   H         1 RES1   0.0000
   153 H62       0.2626    5.4195    0.9026   H         1 RES1   0.0000
   154 H63       0.6406    4.6944    2.8078   H         1 RES1   0.0000
   155 H64      -0.1450    4.3728    4.3458   H         1 RES1   0.0000
   156 H65      -1.5050    5.8174    2.0120   H         1 RES1   0.0000
   157 H66      -0.8896    6.5850    3.4868   H         1 RES1   0.0000
   158 H67      -2.2312    5.4457    3.5757   H         1 RES1   0.0000
   159 H68      -3.1132    2.4134    1.5723   H         1 RES1   0.0000
   160 H69      -5.1491    1.6589    2.6799   H         1 RES1   0.0000
   161 H70      -5.8898    0.5184    5.2014   H         1 RES1   0.0000
   162 H71      -6.5440    2.1199    4.8865   H         1 RES1   0.0000
   163 H72      -5.6752    1.8010    6.3920   H         1 RES1   0.0000
   164 H73      -3.3854    2.3833    6.4822   H         1 RES1   0.0000
   165 H74      -1.3106    3.0704    5.4080   H         1 RES1   0.0000
   166 H75       4.7758   -0.1523   -4.3586   H         1 RES1   0.0000
   167 H76       4.2168   -1.8141   -6.0193   H         1 RES1   0.0000
   168 H77       2.6969   -3.0391   -7.2774   H         1 RES1   0.0000
   169 H78       1.0986   -2.3243   -7.5051   H         1 RES1   0.0000
   170 H79       1.3234   -3.6139   -6.3293   H         1 RES1   0.0000
   171 H80       0.0753   -1.3583   -5.1579   H         1 RES1   0.0000
   172 H81       0.6019    0.3926   -3.5136   H         1 RES1   0.0000
@<TRIPOS>BOND
     1     1     6    1
     2     1    13    1
     3     1    24    1
     4     1    63    1
     5     1    70    1
     6     1    81    1
     7     1   120    1
     8     1   127    1
     9     1   138    1
    10     2     3    1
    11     2    32    1
    12     2    33    1
    13     2    34    1
    14     3     4    1
    15     3    35    1
    16     3    36    1
    17     4     5    1
    18     4    25    1
    19     5     6    2
    20     5     7    1
    21     7     8    1
    22     7    24    2
    23     8     9    2
    24     8    37    1
    25     9    10    1
    26     9    38    1
    27    10    11    2
    28    10    39    1
    29    11    12    1
    30    11    24    1
    31    12    13    2
    32    12    14    1
    33    14    15    1
    34    14    17    1
    35    15    16    1
    36    15    40    1
    37    15    41    1
    38    16    42    1
    39    16    43    1
    40    16    44    1
    41    17    18    1
    42    17    23    2
    43    18    19    2
    44    18    45    1
    45    19    20    1
    46    19    46    1
    47    20    21    1
    48    20    22    2
    49    21    47    1
    50    21    48    1
    51    21    49    1
    52    22    23    1
    53    22    50    1
    54    23    51    1
    55    25    26    1
    56    25    31    2
    57    26    27    2
    58    26    52    1
    59    27    28    1
    60    27    53    1
    61    28    29    1
    62    28    30    2
    63    29    54    1
    64    29    55    1
    65    29    56    1
    66    30    31    1
    67    30    57    1
    68    31    58    1
    69    59    60    1
    70    59    89    1
    71    59    90    1
    72    59    91    1
    73    60    61    1
    74    60    92    1
    75    60    93    1
    76    61    62    1
    77    61    82    1
    78    62    63    2
    79    62    64    1
    80    64    65    1
    81    64    81    2
    82    65    66    2
    83    65    94    1
    84    66    67    1
    85    66    95    1
    86    67    68    2
    87    67    96    1
    88    68    69    1
    89    68    81    1
    90    69    70    2
    91    69    71    1
    92    71    72    1
    93    71    74    1
    94    72    73    1
    95    72    97    1
    96    72    98    1
    97    73    99    1
    98    73   100    1
    99    73   101    1
   100    74    75    1
   101    74    80    2
   102    75    76    2
   103    75   102    1
   104    76    77    1
   105    76   103    1
   106    77    78    1
   107    77    79    2
   108    78   104    1
   109    78   105    1
   110    78   106    1
   111    79    80    1
   112    79   107    1
   113    80   108    1
   114    82    83    1
   115    82    88    2
   116    83    84    2
   117    83   109    1
   118    84    85    1
   119    84   110    1
   120    85    86    1
   121    85    87    2
   122    86   111    1
   123    86   112    1
   124    86   113    1
   125    87    88    1
   126    87   114    1
   127    88   115    1
   128   116   117    1
   129   116   146    1
   130   116   147    1
   131   116   148    1
   132   117   118    1
   133   117   149    1
   134   117   150    1
   135   118   119    1
   136   118   139    1
   137   119   120    2
   138   119   121    1
   139   121   122    1
   140   121   138    2
   141   122   123    2
   142   122   151    1
   143   123   124    1
   144   123   152    1
   145   124   125    2
   146   124   153    1
   147   125   126    1
   148   125   138    1
   149   126   127    2
   150   126   128    1
   151   128   129    1
   152   128   131    1
   153   129   130    1
   154   129   154    1
   155   129   155    1
   156   130   156    1
   157   130   157    1
   158   130   158    1
   159   131   132    1
   160   131   137    2
   161   132   133    2
   162   132   159    1
   163   133   134    1
   164   133   160    1
   165   134   135    1
   166   134   136    2
   167   135   161    1
   168   135   162    1
   169   135   163    1
   170   136   137    1
   171   136   164    1
   172   137   165    1
   173   139   140    1
   174   139   145    2
   175   140   141    2
   176   140   166    1
   177   141   142    1
   178   141   167    1
   179   142   143    1
   180   142   144    2
   181   143   168    1
   182   143   169    1
   183   143   170    1
   184   144   145    1
   185   144   171    1
   186   145   172    1
@<TRIPOS>SUBSTRUCTURE
     1 RES1      172 GROUP             0 ****  ****    0  
