@<TRIPOS>MOLECULE
am_c3_9H2O_c0_0_nunpairedes_0_charge_3 Charge: 3 Unpaired_Electrons: 1 XTB_Unpaired_Electrons: 0 XTB_Charge: 3
   340   345     1     0     0
SMALL
NoCharges
****
Generated from Architector

@<TRIPOS>ATOM
     1 Ce1      -0.3437   -0.3860   -0.2290   Ce        1 RES1   0.0000
     2 C1       -3.2829    5.0228   -7.5447   C.3       1 RES1   0.0000
     3 C2       -3.1822    5.5477   -6.1170   C.3       1 RES1   0.0000
     4 C3       -3.1001    7.0732   -6.1051   C.3       1 RES1   0.0000
     5 C4       -2.7775    7.7049   -4.7487   C.3       1 RES1   0.0000
     6 C5       -3.9575    7.8096   -3.7742   C.3       1 RES1   0.0000
     7 C6       -4.2633    6.5056   -3.0184   C.3       1 RES1   0.0000
     8 C7       -4.4503    6.7118   -1.5139   C.3       1 RES1   0.0000
     9 C8       -4.2066    5.4551   -0.6679   C.3       1 RES1   0.0000
    10 C9       -4.0714    5.8694    0.7986   C.3       1 RES1   0.0000
    11 C10      -3.6868    4.8196    1.8385   C.3       1 RES1   0.0000
    12 N1       -2.3103    4.3051    1.7992   N.am      1 RES1   0.0000
    13 C11      -1.3873    5.1863    2.5560   C.3       1 RES1   0.0000
    14 C12       0.1284    4.9612    2.6513   C.3       1 RES1   0.0000
    15 C13       1.0579    5.2228    1.4512   C.3       1 RES1   0.0000
    16 C14       1.8744    6.5322    1.4926   C.3       1 RES1   0.0000
    17 C15       3.2990    6.3640    0.9234   C.3       1 RES1   0.0000
    18 C16       3.8349    7.5687    0.1342   C.3       1 RES1   0.0000
    19 C17       3.5594    7.5101   -1.3818   C.3       1 RES1   0.0000
    20 C18       4.7988    7.1312   -2.1979   C.3       1 RES1   0.0000
    21 C19       4.6637    7.3997   -3.7074   C.3       1 RES1   0.0000
    22 C20       4.3692    6.1406   -4.5146   C.3       1 RES1   0.0000
    23 C21      -2.0963    3.0287    1.4827   C.2       1 RES1   0.0000
    24 O1       -1.0935    2.3771    1.7771   O.2       1 RES1   0.0000
    25 C22      -3.1330    2.3272    0.5777   C.3       1 RES1   0.0000
    26 O2       -2.5777    1.0901    0.0978   O.3       1 RES1   0.0000
    27 C23      -3.3699    0.5149   -0.9445   C.3       1 RES1   0.0000
    28 C24      -2.4238    0.1953   -2.0983   C.2       1 RES1   0.0000
    29 O3       -1.2768    0.7024   -2.0189   O.2       1 RES1   0.0000
    30 N2       -2.8548   -0.4889   -3.1466   N.am      1 RES1   0.0000
    31 C25      -2.0691   -0.3870   -4.3751   C.3       1 RES1   0.0000
    32 C26      -2.6114    0.6978   -5.3228   C.3       1 RES1   0.0000
    33 C27      -3.5703    0.1968   -6.4179   C.3       1 RES1   0.0000
    34 C28      -4.7500    1.1481   -6.6255   C.3       1 RES1   0.0000
    35 C29      -5.6858    0.6931   -7.7442   C.3       1 RES1   0.0000
    36 C30      -6.9882    1.4824   -7.7067   C.3       1 RES1   0.0000
    37 C31      -3.8864   -1.5154   -3.0587   C.3       1 RES1   0.0000
    38 C32      -5.2886   -1.1575   -3.5541   C.3       1 RES1   0.0000
    39 C33      -6.2135   -2.3776   -3.4724   C.3       1 RES1   0.0000
    40 C34      -7.5275   -2.2153   -4.2419   C.3       1 RES1   0.0000
    41 C35      -8.4580   -1.1605   -3.6462   C.3       1 RES1   0.0000
    42 C36      -9.7677   -1.0540   -4.4216   C.3       1 RES1   0.0000
    43 H1       -3.2944    3.9344   -7.5704   H         1 RES1   0.0000
    44 H2       -2.4361    5.3665   -8.1332   H         1 RES1   0.0000
    45 H3       -4.1912    5.3874   -8.0157   H         1 RES1   0.0000
    46 H4       -2.2885    5.1331   -5.6423   H         1 RES1   0.0000
    47 H5       -4.0454    5.2087   -5.5433   H         1 RES1   0.0000
    48 H6       -4.0358    7.4836   -6.4842   H         1 RES1   0.0000
    49 H7       -2.3193    7.3662   -6.8102   H         1 RES1   0.0000
    50 H8       -2.4053    8.7139   -4.9454   H         1 RES1   0.0000
    51 H9       -1.9584    7.1443   -4.2878   H         1 RES1   0.0000
    52 H10      -4.8369    8.1466   -4.3239   H         1 RES1   0.0000
    53 H11      -3.7122    8.5956   -3.0588   H         1 RES1   0.0000
    54 H12      -3.4317    5.8167   -3.1759   H         1 RES1   0.0000
    55 H13      -5.1520    6.0419   -3.4411   H         1 RES1   0.0000
    56 H14      -5.4524    7.0932   -1.3160   H         1 RES1   0.0000
    57 H15      -3.7361    7.4687   -1.1897   H         1 RES1   0.0000
    58 H16      -3.2945    4.9689   -1.0265   H         1 RES1   0.0000
    59 H17      -5.0383    4.7570   -0.7910   H         1 RES1   0.0000
    60 H18      -5.0374    6.2521    1.1229   H         1 RES1   0.0000
    61 H19      -3.3694    6.6984    0.8682   H         1 RES1   0.0000
    62 H20      -4.3693    3.9715    1.8065   H         1 RES1   0.0000
    63 H21      -3.8079    5.2777    2.8262   H         1 RES1   0.0000
    64 H22      -1.7317    5.1801    3.5970   H         1 RES1   0.0000
    65 H23      -1.5561    6.1855    2.1537   H         1 RES1   0.0000
    66 H24       0.3068    3.9479    2.9896   H         1 RES1   0.0000
    67 H25       0.4476    5.6021    3.4743   H         1 RES1   0.0000
    68 H26       0.4794    5.1466    0.5320   H         1 RES1   0.0000
    69 H27       1.8141    4.4283    1.4579   H         1 RES1   0.0000
    70 H28       1.9540    6.8617    2.5310   H         1 RES1   0.0000
    71 H29       1.3923    7.3308    0.9369   H         1 RES1   0.0000
    72 H30       3.3450    5.4882    0.2677   H         1 RES1   0.0000
    73 H31       3.9739    6.1662    1.7579   H         1 RES1   0.0000
    74 H32       4.9170    7.6220    0.2768   H         1 RES1   0.0000
    75 H33       3.4135    8.4806    0.5584   H         1 RES1   0.0000
    76 H34       3.2064    8.4823   -1.7262   H         1 RES1   0.0000
    77 H35       2.7749    6.7895   -1.5941   H         1 RES1   0.0000
    78 H36       5.0377    6.0757   -2.0265   H         1 RES1   0.0000
    79 H37       5.6352    7.7181   -1.8163   H         1 RES1   0.0000
    80 H38       5.5987    7.8334   -4.0675   H         1 RES1   0.0000
    81 H39       3.8798    8.1393   -3.8975   H         1 RES1   0.0000
    82 H40       5.1486    5.3935   -4.3537   H         1 RES1   0.0000
    83 H41       4.3530    6.3889   -5.5740   H         1 RES1   0.0000
    84 H42       3.4005    5.7163   -4.2380   H         1 RES1   0.0000
    85 H43      -3.3489    2.9896   -0.2709   H         1 RES1   0.0000
    86 H44      -4.0645    2.1111    1.1171   H         1 RES1   0.0000
    87 H45      -4.0971    1.2478   -1.3140   H         1 RES1   0.0000
    88 H46      -3.9073   -0.3615   -0.5770   H         1 RES1   0.0000
    89 H47      -2.0483   -1.3522   -4.8820   H         1 RES1   0.0000
    90 H48      -1.0605   -0.1125   -4.0609   H         1 RES1   0.0000
    91 H49      -1.7548    1.1705   -5.8031   H         1 RES1   0.0000
    92 H50      -3.1059    1.4693   -4.7273   H         1 RES1   0.0000
    93 H51      -3.9548   -0.7948   -6.1708   H         1 RES1   0.0000
    94 H52      -3.0251    0.0928   -7.3567   H         1 RES1   0.0000
    95 H53      -4.3733    2.1494   -6.8490   H         1 RES1   0.0000
    96 H54      -5.3297    1.2128   -5.7007   H         1 RES1   0.0000
    97 H55      -5.8978   -0.3740   -7.6388   H         1 RES1   0.0000
    98 H56      -5.1991    0.8335   -8.7098   H         1 RES1   0.0000
    99 H57      -7.5342    1.2938   -6.7836   H         1 RES1   0.0000
   100 H58      -7.6266    1.2111   -8.5404   H         1 RES1   0.0000
   101 H59      -6.7859    2.5483   -7.7715   H         1 RES1   0.0000
   102 H60      -3.9306   -1.8448   -2.0178   H         1 RES1   0.0000
   103 H61      -3.5171   -2.3574   -3.6521   H         1 RES1   0.0000
   104 H62      -5.2459   -0.8365   -4.5899   H         1 RES1   0.0000
   105 H63      -5.6982   -0.3369   -2.9665   H         1 RES1   0.0000
   106 H64      -6.4442   -2.6007   -2.4297   H         1 RES1   0.0000
   107 H65      -5.6922   -3.2458   -3.8772   H         1 RES1   0.0000
   108 H66      -8.0436   -3.1781   -4.2402   H         1 RES1   0.0000
   109 H67      -7.3153   -1.9678   -5.2842   H         1 RES1   0.0000
   110 H68      -7.9627   -0.1867   -3.6579   H         1 RES1   0.0000
   111 H69      -8.6786   -1.4160   -2.6057   H         1 RES1   0.0000
   112 H70      -9.5808   -0.8266   -5.4704   H         1 RES1   0.0000
   113 H71     -10.3842   -0.2588   -4.0074   H         1 RES1   0.0000
   114 H72     -10.3294   -1.9844   -4.3617   H         1 RES1   0.0000
   115 C37      -5.5068   10.6783    0.8692   C.3       1 RES1   0.0000
   116 C38      -4.5664    9.5272    1.2076   C.3       1 RES1   0.0000
   117 C39      -3.0893    9.9362    1.2140   C.3       1 RES1   0.0000
   118 C40      -2.5030   10.1450   -0.1906   C.3       1 RES1   0.0000
   119 C41      -1.0750    9.6235   -0.3681   C.3       1 RES1   0.0000
   120 C42      -0.9695    8.0910   -0.3993   C.3       1 RES1   0.0000
   121 C43      -0.3689    7.5283   -1.6895   C.3       1 RES1   0.0000
   122 C44      -0.5516    6.0001   -1.8090   C.3       1 RES1   0.0000
   123 C45       0.7532    5.3052   -2.1973   C.3       1 RES1   0.0000
   124 C46       0.5696    3.8094   -2.4455   C.3       1 RES1   0.0000
   125 N3        1.6911    2.8872   -2.1768   N.am      1 RES1   0.0000
   126 C47       3.0373    3.4266   -1.9195   C.3       1 RES1   0.0000
   127 C48       3.9493    2.4341   -1.1926   C.3       1 RES1   0.0000
   128 C49       5.1250    3.1297   -0.4954   C.3       1 RES1   0.0000
   129 C50       5.5736    2.3885    0.7744   C.3       1 RES1   0.0000
   130 C51       5.7675    3.3674    1.9323   C.3       1 RES1   0.0000
   131 C52       5.9559    2.7253    3.3060   C.3       1 RES1   0.0000
   132 C53       4.7094    1.9813    3.8190   C.3       1 RES1   0.0000
   133 C54       3.9745    2.6484    4.9888   C.3       1 RES1   0.0000
   134 C55       3.4140    4.0344    4.6694   C.3       1 RES1   0.0000
   135 C56       2.4555    4.5210    5.7498   C.3       1 RES1   0.0000
   136 C57       1.3779    1.8288   -1.3728   C.2       1 RES1   0.0000
   137 O4        1.6783    0.6649   -1.6015   O.2       1 RES1   0.0000
   138 C58       0.7285    2.1009   -0.0224   C.3       1 RES1   0.0000
   139 O5        1.1293    0.9732    0.7763   O.3       1 RES1   0.0000
   140 C59       1.1799    1.1633    2.1886   C.3       1 RES1   0.0000
   141 C60       0.1562    0.2380    2.8650   C.2       1 RES1   0.0000
   142 O6       -0.2362   -0.7198    2.1698   O.2       1 RES1   0.0000
   143 N4       -0.1063    0.4141    4.1608   N.am      1 RES1   0.0000
   144 C61      -0.2525    1.7603    4.7080   C.3       1 RES1   0.0000
   145 C62      -1.5833    1.9258    5.4628   C.3       1 RES1   0.0000
   146 C63      -2.7882    1.5599    4.5933   C.3       1 RES1   0.0000
   147 C64      -4.1167    1.6619    5.3445   C.3       1 RES1   0.0000
   148 C65      -5.2972    1.0570    4.5723   C.3       1 RES1   0.0000
   149 C66      -5.5094   -0.4182    4.9010   C.3       1 RES1   0.0000
   150 C67       0.1309   -0.6124    5.1814   C.3       1 RES1   0.0000
   151 C68      -0.3332   -2.0270    4.8962   C.3       1 RES1   0.0000
   152 C69      -1.8503   -2.1412    4.7738   C.3       1 RES1   0.0000
   153 C70      -2.3591   -3.5474    5.0961   C.3       1 RES1   0.0000
   154 C71      -1.6767   -4.6311    4.2654   C.3       1 RES1   0.0000
   155 C72      -2.2958   -5.9981    4.5208   C.3       1 RES1   0.0000
   156 H73      -6.5411   10.3328    0.8580   H         1 RES1   0.0000
   157 H74      -5.2741   11.0912   -0.1102   H         1 RES1   0.0000
   158 H75      -5.4143   11.4701    1.6090   H         1 RES1   0.0000
   159 H76      -4.7240    8.7266    0.4827   H         1 RES1   0.0000
   160 H77      -4.8258    9.1292    2.1923   H         1 RES1   0.0000
   161 H78      -2.5155    9.1729    1.7443   H         1 RES1   0.0000
   162 H79      -2.9931   10.8600    1.7853   H         1 RES1   0.0000
   163 H80      -2.4935   11.2102   -0.4096   H         1 RES1   0.0000
   164 H81      -3.1489    9.6716   -0.9322   H         1 RES1   0.0000
   165 H82      -0.4607   10.0123    0.4425   H         1 RES1   0.0000
   166 H83      -0.6776   10.0282   -1.2989   H         1 RES1   0.0000
   167 H84      -1.9579    7.6541   -0.2855   H         1 RES1   0.0000
   168 H85      -0.3781    7.7446    0.4479   H         1 RES1   0.0000
   169 H86       0.6934    7.7688   -1.7254   H         1 RES1   0.0000
   170 H87      -0.8383    8.0294   -2.5354   H         1 RES1   0.0000
   171 H88      -1.3262    5.7628   -2.5378   H         1 RES1   0.0000
   172 H89      -0.8930    5.6034   -0.8476   H         1 RES1   0.0000
   173 H90       1.4392    5.4914   -1.3758   H         1 RES1   0.0000
   174 H91       1.1553    5.7759   -3.0949   H         1 RES1   0.0000
   175 H92       0.3246    3.6539   -3.5016   H         1 RES1   0.0000
   176 H93      -0.2893    3.4440   -1.8771   H         1 RES1   0.0000
   177 H94       2.9061    4.2752   -1.2355   H         1 RES1   0.0000
   178 H95       3.4680    3.8035   -2.8492   H         1 RES1   0.0000
   179 H96       4.2882    1.6538   -1.8745   H         1 RES1   0.0000
   180 H97       3.3659    1.9395   -0.4055   H         1 RES1   0.0000
   181 H98       4.8045    4.1268   -0.1939   H         1 RES1   0.0000
   182 H99       5.9496    3.2605   -1.1907   H         1 RES1   0.0000
   183 H100      6.4906    1.8317    0.6011   H         1 RES1   0.0000
   184 H101      4.8089    1.6584    1.0474   H         1 RES1   0.0000
   185 H102      4.8960    4.0182    1.9846   H         1 RES1   0.0000
   186 H103      6.6314    3.9972    1.7303   H         1 RES1   0.0000
   187 H104      6.2062    3.5143    4.0160   H         1 RES1   0.0000
   188 H105      6.8011    2.0378    3.2692   H         1 RES1   0.0000
   189 H106      4.9982    0.9788    4.1416   H         1 RES1   0.0000
   190 H107      3.9959    1.8573    2.9988   H         1 RES1   0.0000
   191 H108      4.6472    2.7215    5.8427   H         1 RES1   0.0000
   192 H109      3.1529    1.9887    5.2960   H         1 RES1   0.0000
   193 H110      2.8992    4.0047    3.7049   H         1 RES1   0.0000
   194 H111      4.2334    4.7474    4.5802   H         1 RES1   0.0000
   195 H112      1.5551    3.9117    5.7850   H         1 RES1   0.0000
   196 H113      2.1588    5.5494    5.5683   H         1 RES1   0.0000
   197 H114      2.9279    4.4756    6.7259   H         1 RES1   0.0000
   198 H115     -0.3615    2.1766   -0.1039   H         1 RES1   0.0000
   199 H116      1.1658    3.0231    0.3725   H         1 RES1   0.0000
   200 H117      1.1441    2.2128    2.4556   H         1 RES1   0.0000
   201 H118      2.1424    0.7450    2.5221   H         1 RES1   0.0000
   202 H119     -0.2740    2.4612    3.8792   H         1 RES1   0.0000
   203 H120      0.5831    2.0009    5.3740   H         1 RES1   0.0000
   204 H121     -1.6488    2.9684    5.7848   H         1 RES1   0.0000
   205 H122     -1.5810    1.3135    6.3652   H         1 RES1   0.0000
   206 H123     -2.6496    0.5379    4.2397   H         1 RES1   0.0000
   207 H124     -2.8172    2.2201    3.7217   H         1 RES1   0.0000
   208 H125     -4.3236    2.7079    5.5739   H         1 RES1   0.0000
   209 H126     -4.0332    1.1453    6.3004   H         1 RES1   0.0000
   210 H127     -5.1385    1.1793    3.4964   H         1 RES1   0.0000
   211 H128     -6.2028    1.6083    4.8293   H         1 RES1   0.0000
   212 H129     -4.6742   -1.0288    4.5609   H         1 RES1   0.0000
   213 H130     -6.4230   -0.7848    4.4388   H         1 RES1   0.0000
   214 H131     -5.6142   -0.5443    5.9756   H         1 RES1   0.0000
   215 H132     -0.3604   -0.2625    6.0865   H         1 RES1   0.0000
   216 H133      1.2161   -0.6162    5.3596   H         1 RES1   0.0000
   217 H134     -0.0081   -2.6183    5.7505   H         1 RES1   0.0000
   218 H135      0.1576   -2.4295    4.0113   H         1 RES1   0.0000
   219 H136     -2.1447   -1.8557    3.7611   H         1 RES1   0.0000
   220 H137     -2.3136   -1.4421    5.4729   H         1 RES1   0.0000
   221 H138     -3.4397   -3.5831    4.9301   H         1 RES1   0.0000
   222 H139     -2.1922   -3.7502    6.1551   H         1 RES1   0.0000
   223 H140     -0.6188   -4.6696    4.5275   H         1 RES1   0.0000
   224 H141     -1.7502   -4.3536    3.2099   H         1 RES1   0.0000
   225 H142     -2.2419   -6.2348    5.5785   H         1 RES1   0.0000
   226 H143     -1.7648   -6.7772    3.9817   H         1 RES1   0.0000
   227 H144     -3.3427   -6.0154    4.2302   H         1 RES1   0.0000
   228 C73      -2.6637   -4.5132   -8.3165   C.3       1 RES1   0.0000
   229 C74      -3.5202   -4.5699   -7.0575   C.3       1 RES1   0.0000
   230 C75      -4.4535   -5.7816   -7.0660   C.3       1 RES1   0.0000
   231 C76      -5.5245   -5.7596   -5.9693   C.3       1 RES1   0.0000
   232 C77      -5.1646   -6.4939   -4.6787   C.3       1 RES1   0.0000
   233 C78      -3.9473   -5.9508   -3.9327   C.3       1 RES1   0.0000
   234 C79      -3.9035   -6.5099   -2.5135   C.3       1 RES1   0.0000
   235 C80      -2.7004   -6.0377   -1.6945   C.3       1 RES1   0.0000
   236 C81      -2.8652   -6.4816   -0.2395   C.3       1 RES1   0.0000
   237 C82      -2.0363   -5.6619    0.7555   C.3       1 RES1   0.0000
   238 N5       -2.3070   -4.2245    0.6671   N.am      1 RES1   0.0000
   239 C83      -3.7394   -3.9189    0.7893   C.3       1 RES1   0.0000
   240 C84      -4.1584   -2.5503    1.3440   C.3       1 RES1   0.0000
   241 C85      -5.4907   -2.1808    0.6846   C.3       1 RES1   0.0000
   242 C86      -6.0643   -0.8083    1.0336   C.3       1 RES1   0.0000
   243 C87      -7.3420   -0.5932    0.2170   C.3       1 RES1   0.0000
   244 C88      -7.7866    0.8544    0.0163   C.3       1 RES1   0.0000
   245 C89      -6.9852    1.5957   -1.0599   C.3       1 RES1   0.0000
   246 C90      -7.8075    2.6730   -1.7788   C.3       1 RES1   0.0000
   247 C91      -7.4617    2.8279   -3.2631   C.3       1 RES1   0.0000
   248 C92      -5.9945    3.1405   -3.5389   C.3       1 RES1   0.0000
   249 C93      -1.4077   -3.3376    0.2751   C.2       1 RES1   0.0000
   250 O7       -1.7078   -2.1773   -0.1035   O.2       1 RES1   0.0000
   251 C94       0.0827   -3.7436    0.2566   C.3       1 RES1   0.0000
   252 O8        0.9003   -2.5736    0.3630   O.3       1 RES1   0.0000
   253 C95       2.0860   -2.6147   -0.4250   C.3       1 RES1   0.0000
   254 C96       1.7739   -2.0057   -1.8105   C.2       1 RES1   0.0000
   255 O9        0.5947   -1.6029   -1.9636   O.2       1 RES1   0.0000
   256 N6        2.7591   -1.8572   -2.6731   N.am      1 RES1   0.0000
   257 C97       2.6457   -1.0202   -3.8736   C.3       1 RES1   0.0000
   258 C98       1.4338   -1.2905   -4.7564   C.3       1 RES1   0.0000
   259 C99       1.5218   -2.6062   -5.5255   C.3       1 RES1   0.0000
   260 C100      0.8406   -3.7550   -4.7914   C.3       1 RES1   0.0000
   261 C101      1.0428   -5.0844   -5.5103   C.3       1 RES1   0.0000
   262 C102      0.3520   -6.2244   -4.7759   C.3       1 RES1   0.0000
   263 C103      4.0528   -2.4919   -2.4610   C.3       1 RES1   0.0000
   264 C104      4.0231   -3.9408   -2.9530   C.3       1 RES1   0.0000
   265 C105      5.3574   -4.6728   -2.7936   C.3       1 RES1   0.0000
   266 C106      5.1685   -6.1940   -2.8035   C.3       1 RES1   0.0000
   267 C107      4.5202   -6.7260   -1.5220   C.3       1 RES1   0.0000
   268 C108      4.6019   -8.2464   -1.4305   C.3       1 RES1   0.0000
   269 H145     -2.0085   -3.6448   -8.3017   H         1 RES1   0.0000
   270 H146     -3.2949   -4.4471   -9.1983   H         1 RES1   0.0000
   271 H147     -2.0519   -5.4074   -8.4022   H         1 RES1   0.0000
   272 H148     -4.1248   -3.6607   -6.9938   H         1 RES1   0.0000
   273 H149     -2.8716   -4.6001   -6.1789   H         1 RES1   0.0000
   274 H150     -3.8703   -6.7003   -6.9947   H         1 RES1   0.0000
   275 H151     -4.9613   -5.8023   -8.0304   H         1 RES1   0.0000
   276 H152     -6.4262   -6.2376   -6.3550   H         1 RES1   0.0000
   277 H153     -5.7818   -4.7209   -5.7455   H         1 RES1   0.0000
   278 H154     -4.9931   -7.5478   -4.8988   H         1 RES1   0.0000
   279 H155     -6.0296   -6.4380   -4.0132   H         1 RES1   0.0000
   280 H156     -3.9932   -4.8590   -3.8822   H         1 RES1   0.0000
   281 H157     -3.0307   -6.2212   -4.4571   H         1 RES1   0.0000
   282 H158     -3.9018   -7.5987   -2.5576   H         1 RES1   0.0000
   283 H159     -4.8203   -6.2110   -1.9958   H         1 RES1   0.0000
   284 H160     -2.6322   -4.9457   -1.7552   H         1 RES1   0.0000
   285 H161     -1.7755   -6.4492   -2.1049   H         1 RES1   0.0000
   286 H162     -2.5464   -7.5183   -0.1406   H         1 RES1   0.0000
   287 H163     -3.9198   -6.4540    0.0305   H         1 RES1   0.0000
   288 H164     -0.9901   -5.8589    0.5469   H         1 RES1   0.0000
   289 H165     -2.2623   -5.9942    1.7710   H         1 RES1   0.0000
   290 H166     -4.1490   -4.6909    1.4426   H         1 RES1   0.0000
   291 H167     -4.1892   -4.0448   -0.2025   H         1 RES1   0.0000
   292 H168     -3.4080   -1.7865    1.1251   H         1 RES1   0.0000
   293 H169     -4.2815   -2.5974    2.4264   H         1 RES1   0.0000
   294 H170     -6.2410   -2.9295    0.9445   H         1 RES1   0.0000
   295 H171     -5.3591   -2.2306   -0.4031   H         1 RES1   0.0000
   296 H172     -5.3412   -0.0232    0.8137   H         1 RES1   0.0000
   297 H173     -6.2826   -0.7458    2.0988   H         1 RES1   0.0000
   298 H174     -8.1476   -1.1458    0.6978   H         1 RES1   0.0000
   299 H175     -7.2030   -1.0363   -0.7712   H         1 RES1   0.0000
   300 H176     -7.7422    1.4035    0.9562   H         1 RES1   0.0000
   301 H177     -8.8340    0.8093   -0.2833   H         1 RES1   0.0000
   302 H178     -6.6438    0.8740   -1.8055   H         1 RES1   0.0000
   303 H179     -6.0958    2.0514   -0.6098   H         1 RES1   0.0000
   304 H180     -7.6974    3.6292   -1.2653   H         1 RES1   0.0000
   305 H181     -8.8676    2.4223   -1.7267   H         1 RES1   0.0000
   306 H182     -8.0709    3.6406   -3.6580   H         1 RES1   0.0000
   307 H183     -7.7616    1.9212   -3.7979   H         1 RES1   0.0000
   308 H184     -5.6574    3.9609   -2.9091   H         1 RES1   0.0000
   309 H185     -5.8626    3.4191   -4.5819   H         1 RES1   0.0000
   310 H186     -5.3597    2.2767   -3.3480   H         1 RES1   0.0000
   311 H187      0.2609   -4.2780   -0.6897   H         1 RES1   0.0000
   312 H188      0.3193   -4.3964    1.1074   H         1 RES1   0.0000
   313 H189      2.5043   -3.6244   -0.4550   H         1 RES1   0.0000
   314 H190      2.8002   -1.9471    0.0712   H         1 RES1   0.0000
   315 H191      3.5469   -1.1809   -4.4704   H         1 RES1   0.0000
   316 H192      2.6140    0.0170   -3.5192   H         1 RES1   0.0000
   317 H193      1.3622   -0.4556   -5.4514   H         1 RES1   0.0000
   318 H194      0.5406   -1.2936   -4.1395   H         1 RES1   0.0000
   319 H195      2.5683   -2.8575   -5.6960   H         1 RES1   0.0000
   320 H196      1.0526   -2.4881   -6.5014   H         1 RES1   0.0000
   321 H197     -0.2279   -3.5397   -4.7107   H         1 RES1   0.0000
   322 H198      1.2303   -3.8322   -3.7735   H         1 RES1   0.0000
   323 H199      2.1116   -5.2925   -5.5928   H         1 RES1   0.0000
   324 H200      0.6421   -5.0081   -6.5215   H         1 RES1   0.0000
   325 H201      0.7676   -6.3498   -3.7762   H         1 RES1   0.0000
   326 H202      0.4696   -7.1549   -5.3214   H         1 RES1   0.0000
   327 H203     -0.7136   -6.0232   -4.6886   H         1 RES1   0.0000
   328 H204      4.3277   -2.4495   -1.4065   H         1 RES1   0.0000
   329 H205      4.7979   -1.9238   -3.0154   H         1 RES1   0.0000
   330 H206      3.7363   -3.9542   -4.0028   H         1 RES1   0.0000
   331 H207      3.2547   -4.4793   -2.3979   H         1 RES1   0.0000
   332 H208      5.8326   -4.3848   -1.8531   H         1 RES1   0.0000
   333 H209      6.0274   -4.3890   -3.6066   H         1 RES1   0.0000
   334 H210      6.1461   -6.6640   -2.9114   H         1 RES1   0.0000
   335 H211      4.5734   -6.4893   -3.6709   H         1 RES1   0.0000
   336 H212      3.4657   -6.4317   -1.4802   H         1 RES1   0.0000
   337 H213      5.0285   -6.2893   -0.6567   H         1 RES1   0.0000
   338 H214      4.0776   -8.7147   -2.2609   H         1 RES1   0.0000
   339 H215      4.1551   -8.5977   -0.5026   H         1 RES1   0.0000
   340 H216      5.6392   -8.5703   -1.4513   H         1 RES1   0.0000
@<TRIPOS>BOND
     1     1    24    1
     2     1    26    1
     3     1    29    1
     4     1   137    1
     5     1   139    1
     6     1   142    1
     7     1   250    1
     8     1   252    1
     9     1   255    1
    10     2     3    1
    11     2    43    1
    12     2    44    1
    13     2    45    1
    14     3     4    1
    15     3    46    1
    16     3    47    1
    17     4     5    1
    18     4    48    1
    19     4    49    1
    20     5     6    1
    21     5    50    1
    22     5    51    1
    23     6     7    1
    24     6    52    1
    25     6    53    1
    26     7     8    1
    27     7    54    1
    28     7    55    1
    29     8     9    1
    30     8    56    1
    31     8    57    1
    32     9    10    1
    33     9    58    1
    34     9    59    1
    35    10    11    1
    36    10    60    1
    37    10    61    1
    38    11    12    1
    39    11    62    1
    40    11    63    1
    41    12    13    1
    42    12    23    1
    43    13    14    1
    44    13    64    1
    45    13    65    1
    46    14    15    1
    47    14    66    1
    48    14    67    1
    49    15    16    1
    50    15    68    1
    51    15    69    1
    52    16    17    1
    53    16    70    1
    54    16    71    1
    55    17    18    1
    56    17    72    1
    57    17    73    1
    58    18    19    1
    59    18    74    1
    60    18    75    1
    61    19    20    1
    62    19    76    1
    63    19    77    1
    64    20    21    1
    65    20    78    1
    66    20    79    1
    67    21    22    1
    68    21    80    1
    69    21    81    1
    70    22    82    1
    71    22    83    1
    72    22    84    1
    73    23    24    2
    74    23    25    1
    75    25    26    1
    76    25    85    1
    77    25    86    1
    78    26    27    1
    79    27    28    1
    80    27    87    1
    81    27    88    1
    82    28    29    2
    83    28    30    1
    84    30    31    1
    85    30    37    1
    86    31    32    1
    87    31    89    1
    88    31    90    1
    89    32    33    1
    90    32    91    1
    91    32    92    1
    92    33    34    1
    93    33    93    1
    94    33    94    1
    95    34    35    1
    96    34    95    1
    97    34    96    1
    98    35    36    1
    99    35    97    1
   100    35    98    1
   101    36    99    1
   102    36   100    1
   103    36   101    1
   104    37    38    1
   105    37   102    1
   106    37   103    1
   107    38    39    1
   108    38   104    1
   109    38   105    1
   110    39    40    1
   111    39   106    1
   112    39   107    1
   113    40    41    1
   114    40   108    1
   115    40   109    1
   116    41    42    1
   117    41   110    1
   118    41   111    1
   119    42   112    1
   120    42   113    1
   121    42   114    1
   122   115   116    1
   123   115   156    1
   124   115   157    1
   125   115   158    1
   126   116   117    1
   127   116   159    1
   128   116   160    1
   129   117   118    1
   130   117   161    1
   131   117   162    1
   132   118   119    1
   133   118   163    1
   134   118   164    1
   135   119   120    1
   136   119   165    1
   137   119   166    1
   138   120   121    1
   139   120   167    1
   140   120   168    1
   141   121   122    1
   142   121   169    1
   143   121   170    1
   144   122   123    1
   145   122   171    1
   146   122   172    1
   147   123   124    1
   148   123   173    1
   149   123   174    1
   150   124   125    1
   151   124   175    1
   152   124   176    1
   153   125   126    1
   154   125   136    1
   155   126   127    1
   156   126   177    1
   157   126   178    1
   158   127   128    1
   159   127   179    1
   160   127   180    1
   161   128   129    1
   162   128   181    1
   163   128   182    1
   164   129   130    1
   165   129   183    1
   166   129   184    1
   167   130   131    1
   168   130   185    1
   169   130   186    1
   170   131   132    1
   171   131   187    1
   172   131   188    1
   173   132   133    1
   174   132   189    1
   175   132   190    1
   176   133   134    1
   177   133   191    1
   178   133   192    1
   179   134   135    1
   180   134   193    1
   181   134   194    1
   182   135   195    1
   183   135   196    1
   184   135   197    1
   185   136   137    2
   186   136   138    1
   187   138   139    1
   188   138   198    1
   189   138   199    1
   190   139   140    1
   191   140   141    1
   192   140   200    1
   193   140   201    1
   194   141   142    2
   195   141   143    1
   196   143   144    1
   197   143   150    1
   198   144   145    1
   199   144   202    1
   200   144   203    1
   201   145   146    1
   202   145   204    1
   203   145   205    1
   204   146   147    1
   205   146   206    1
   206   146   207    1
   207   147   148    1
   208   147   208    1
   209   147   209    1
   210   148   149    1
   211   148   210    1
   212   148   211    1
   213   149   212    1
   214   149   213    1
   215   149   214    1
   216   150   151    1
   217   150   215    1
   218   150   216    1
   219   151   152    1
   220   151   217    1
   221   151   218    1
   222   152   153    1
   223   152   219    1
   224   152   220    1
   225   153   154    1
   226   153   221    1
   227   153   222    1
   228   154   155    1
   229   154   223    1
   230   154   224    1
   231   155   225    1
   232   155   226    1
   233   155   227    1
   234   228   229    1
   235   228   269    1
   236   228   270    1
   237   228   271    1
   238   229   230    1
   239   229   272    1
   240   229   273    1
   241   230   231    1
   242   230   274    1
   243   230   275    1
   244   231   232    1
   245   231   276    1
   246   231   277    1
   247   232   233    1
   248   232   278    1
   249   232   279    1
   250   233   234    1
   251   233   280    1
   252   233   281    1
   253   234   235    1
   254   234   282    1
   255   234   283    1
   256   235   236    1
   257   235   284    1
   258   235   285    1
   259   236   237    1
   260   236   286    1
   261   236   287    1
   262   237   238    1
   263   237   288    1
   264   237   289    1
   265   238   239    1
   266   238   249    1
   267   239   240    1
   268   239   290    1
   269   239   291    1
   270   240   241    1
   271   240   292    1
   272   240   293    1
   273   241   242    1
   274   241   294    1
   275   241   295    1
   276   242   243    1
   277   242   296    1
   278   242   297    1
   279   243   244    1
   280   243   298    1
   281   243   299    1
   282   244   245    1
   283   244   300    1
   284   244   301    1
   285   245   246    1
   286   245   302    1
   287   245   303    1
   288   246   247    1
   289   246   304    1
   290   246   305    1
   291   247   248    1
   292   247   306    1
   293   247   307    1
   294   248   308    1
   295   248   309    1
   296   248   310    1
   297   249   250    2
   298   249   251    1
   299   251   252    1
   300   251   311    1
   301   251   312    1
   302   252   253    1
   303   253   254    1
   304   253   313    1
   305   253   314    1
   306   254   255    2
   307   254   256    1
   308   256   257    1
   309   256   263    1
   310   257   258    1
   311   257   315    1
   312   257   316    1
   313   258   259    1
   314   258   317    1
   315   258   318    1
   316   259   260    1
   317   259   319    1
   318   259   320    1
   319   260   261    1
   320   260   321    1
   321   260   322    1
   322   261   262    1
   323   261   323    1
   324   261   324    1
   325   262   325    1
   326   262   326    1
   327   262   327    1
   328   263   264    1
   329   263   328    1
   330   263   329    1
   331   264   265    1
   332   264   330    1
   333   264   331    1
   334   265   266    1
   335   265   332    1
   336   265   333    1
   337   266   267    1
   338   266   334    1
   339   266   335    1
   340   267   268    1
   341   267   336    1
   342   267   337    1
   343   268   338    1
   344   268   339    1
   345   268   340    1
@<TRIPOS>SUBSTRUCTURE
     1 RES1      340 GROUP             0 ****  ****    0  
