@<TRIPOS>MOLECULE
am_c3_9H2O_c0_0_nunpairedes_0_charge_2 Charge: 2 Unpaired_Electrons: 1 XTB_Unpaired_Electrons: 0 XTB_Charge: 2
   118   132     1     0     0
SMALL
NoCharges
****
Generated from Architector

@<TRIPOS>ATOM
     1 Ce1       0.1324   -0.3528   -1.1754   Ce        1 RES1   0.0000
     2 C1       -8.6922   -0.4420    1.0843   C.3       1 RES1   0.0000
     3 C2       -8.5817   -1.4185   -0.0830   C.3       1 RES1   0.0000
     4 C3       -7.2872   -2.2362   -0.1358   C.3       1 RES1   0.0000
     5 C4       -6.0723   -1.3723   -0.4756   C.3       1 RES1   0.0000
     6 C5       -4.7465   -2.1498   -0.4844   C.3       1 RES1   0.0000
     7 C6       -3.8022   -1.7073    0.6406   C.3       1 RES1   0.0000
     8 N1       -3.5876   -0.2645    0.6355   N.ar      1 RES1   0.0000
     9 C7       -4.1966    0.5758    1.5475   C.ar      1 RES1   0.0000
    10 C8       -4.6177    0.0063    2.8413   C.ar      1 RES1   0.0000
    11 C9       -5.6137   -0.9184    3.1190   C.ar      1 RES1   0.0000
    12 C10      -5.7111   -1.4666    4.3879   C.ar      1 RES1   0.0000
    13 C11      -4.8315   -1.0951    5.3892   C.ar      1 RES1   0.0000
    14 C12      -3.8575   -0.1466    5.1279   C.ar      1 RES1   0.0000
    15 C13      -3.7488    0.3939    3.8663   C.ar      1 RES1   0.0000
    16 C14      -4.0426    1.9536    1.5111   C.ar      1 RES1   0.0000
    17 C15      -5.0246    2.8096    2.2221   C.ar      1 RES1   0.0000
    18 C16      -6.2416    3.0184    1.5744   C.ar      1 RES1   0.0000
    19 C17      -7.2364    3.7843    2.1572   C.ar      1 RES1   0.0000
    20 C18      -7.0315    4.3537    3.4023   C.ar      1 RES1   0.0000
    21 C19      -5.8125    4.1830    4.0332   C.ar      1 RES1   0.0000
    22 C20      -4.8151    3.4198    3.4511   C.ar      1 RES1   0.0000
    23 C21      -2.8948    2.4660    0.8372   C.ar      1 RES1   0.0000
    24 C22      -2.1835    3.6214    1.2263   C.ar      1 RES1   0.0000
    25 C23      -0.8507    3.7742    0.8296   C.ar      1 RES1   0.0000
    26 C24       0.1337    4.6602    1.3914   C.ar      1 RES1   0.0000
    27 C25       1.4674    4.5581    1.1225   C.ar      1 RES1   0.0000
    28 C26       1.9934    3.6101    0.1800   C.ar      1 RES1   0.0000
    29 C27       3.3609    3.3312   -0.1074   C.ar      1 RES1   0.0000
    30 C28       3.6558    2.3417   -1.0302   C.ar      1 RES1   0.0000
    31 C29       4.7868    1.6035   -1.6690   C.ar      1 RES1   0.0000
    32 C30       5.1197    1.8451   -3.0379   C.ar      1 RES1   0.0000
    33 C31       6.0398    0.9606   -3.6357   C.ar      1 RES1   0.0000
    34 C32       6.4062    1.1150   -4.9527   C.ar      1 RES1   0.0000
    35 C33       5.8658    2.1533   -5.7016   C.ar      1 RES1   0.0000
    36 C34       4.9587    3.0404   -5.1263   C.ar      1 RES1   0.0000
    37 C35       4.6019    2.9053   -3.8030   C.ar      1 RES1   0.0000
    38 C36       4.6984    0.2420   -1.2304   C.ar      1 RES1   0.0000
    39 C37       4.9481   -0.0985    0.1320   C.ar      1 RES1   0.0000
    40 C38       5.8173    0.7369    0.8579   C.ar      1 RES1   0.0000
    41 C39       6.0669    0.5081    2.1944   C.ar      1 RES1   0.0000
    42 C40       5.5061   -0.5894    2.8367   C.ar      1 RES1   0.0000
    43 C41       4.6641   -1.4372    2.1324   C.ar      1 RES1   0.0000
    44 C42       4.3655   -1.1881    0.8052   C.ar      1 RES1   0.0000
    45 N2        3.7613   -0.4481   -2.0497   N.ar      1 RES1   0.0000
    46 C43       3.6082   -1.8991   -2.2424   C.3       1 RES1   0.0000
    47 C44       3.1458   -2.3816   -3.6307   C.3       1 RES1   0.0000
    48 C45       1.6470   -2.5269   -4.0602   C.3       1 RES1   0.0000
    49 C46       0.5029   -2.5289   -3.0126   C.3       1 RES1   0.0000
    50 C47      -0.5923   -3.6056   -3.2174   C.3       1 RES1   0.0000
    51 C48      -0.4002   -4.7763   -2.2598   C.3       1 RES1   0.0000
    52 C49       2.6903    0.3234   -2.3078   C.ar      1 RES1   0.0000
    53 O1        1.6788   -0.0999   -2.9026   O.2       1 RES1   0.0000
    54 C50       2.5710    1.6362   -1.6167   C.ar      1 RES1   0.0000
    55 N3        1.3088    1.8843   -1.3732   N.ar      1 RES1   0.0000
    56 C51       1.0216    2.8400   -0.4889   C.ar      1 RES1   0.0000
    57 C52      -0.3595    2.8409   -0.1116   C.ar      1 RES1   0.0000
    58 N4       -1.0419    1.7858   -0.5503   N.ar      1 RES1   0.0000
    59 C53      -2.2542    1.5649   -0.0552   C.ar      1 RES1   0.0000
    60 C54      -2.7172    0.2045   -0.2816   C.ar      1 RES1   0.0000
    61 O2       -2.1710   -0.5380   -1.1419   O.2       1 RES1   0.0000
    62 H1       -9.6176    0.1193    0.9939   H         1 RES1   0.0000
    63 H2       -7.8722    0.2713    1.1088   H         1 RES1   0.0000
    64 H3       -8.7251   -0.9646    2.0368   H         1 RES1   0.0000
    65 H4       -8.6889   -0.8711   -1.0224   H         1 RES1   0.0000
    66 H5       -9.4142   -2.1165   -0.0082   H         1 RES1   0.0000
    67 H6       -7.3993   -3.0108   -0.8991   H         1 RES1   0.0000
    68 H7       -7.1276   -2.7441    0.8195   H         1 RES1   0.0000
    69 H8       -6.0092   -0.5580    0.2481   H         1 RES1   0.0000
    70 H9       -6.2270   -0.9051   -1.4499   H         1 RES1   0.0000
    71 H10      -4.2460   -2.0139   -1.4435   H         1 RES1   0.0000
    72 H11      -4.9356   -3.2184   -0.3556   H         1 RES1   0.0000
    73 H12      -2.8242   -2.1853    0.5084   H         1 RES1   0.0000
    74 H13      -4.2066   -2.0097    1.6041   H         1 RES1   0.0000
    75 H14      -6.3076   -1.2144    2.3528   H         1 RES1   0.0000
    76 H15      -6.4754   -2.1976    4.6006   H         1 RES1   0.0000
    77 H16      -4.9042   -1.5412    6.3671   H         1 RES1   0.0000
    78 H17      -3.1734    0.1648    5.8996   H         1 RES1   0.0000
    79 H18      -2.9524    1.0889    3.6549   H         1 RES1   0.0000
    80 H19      -6.4121    2.5762    0.6046   H         1 RES1   0.0000
    81 H20      -8.1754    3.9310    1.6460   H         1 RES1   0.0000
    82 H21      -7.8074    4.9371    3.8771   H         1 RES1   0.0000
    83 H22      -5.6259    4.6282    4.9986   H         1 RES1   0.0000
    84 H23      -3.8824    3.2732    3.9730   H         1 RES1   0.0000
    85 H24      -2.6275    4.3003    1.9395   H         1 RES1   0.0000
    86 H25      -0.2065    5.3959    2.1025   H         1 RES1   0.0000
    87 H26       2.1649    5.2013    1.6399   H         1 RES1   0.0000
    88 H27       4.1403    3.8756    0.4114   H         1 RES1   0.0000
    89 H28       6.4680    0.1812   -3.0228   H         1 RES1   0.0000
    90 H29       7.1369    0.4527   -5.3904   H         1 RES1   0.0000
    91 H30       6.1515    2.2764   -6.7327   H         1 RES1   0.0000
    92 H31       4.5401    3.8429   -5.7184   H         1 RES1   0.0000
    93 H32       3.8990    3.5916   -3.3481   H         1 RES1   0.0000
    94 H33       6.2948    1.5566    0.3416   H         1 RES1   0.0000
    95 H34       6.7333    1.1582    2.7378   H         1 RES1   0.0000
    96 H35       5.7107   -0.7902    3.8767   H         1 RES1   0.0000
    97 H36       4.2342   -2.3020    2.6138   H         1 RES1   0.0000
    98 H37       3.6789   -1.8416    0.2951   H         1 RES1   0.0000
    99 H38       2.9228   -2.2956   -1.4798   H         1 RES1   0.0000
   100 H39       4.5996   -2.3170   -2.0616   H         1 RES1   0.0000
   101 H40       3.5760   -3.3790   -3.7148   H         1 RES1   0.0000
   102 H41       3.6466   -1.7621   -4.3735   H         1 RES1   0.0000
   103 H42       1.6020   -3.4897   -4.5689   H         1 RES1   0.0000
   104 H43       1.4320   -1.7592   -4.8059   H         1 RES1   0.0000
   105 H44      -0.0357   -1.5385   -3.0652   H         1 RES1   0.0000
   106 H45       0.9431   -2.7374   -2.0205   H         1 RES1   0.0000
   107 H46      -0.5952   -3.9632   -4.2477   H         1 RES1   0.0000
   108 H47      -1.5711   -3.1521   -3.0215   H         1 RES1   0.0000
   109 H48       0.5432   -5.2836   -2.4452   H         1 RES1   0.0000
   110 H49      -1.2043   -5.4949   -2.3855   H         1 RES1   0.0000
   111 H50      -0.4141   -4.4232   -1.2263   H         1 RES1   0.0000
   112 N5        0.4451   -1.5223    1.0470   N.3       1 RES1   0.0000
   113 O3        0.7328   -1.9518    2.1146   O.2       1 RES1   0.0000
   114 O4       -0.4641   -0.6932    0.8979   O.co2     1 RES1   0.0000
   115 O5        1.0309   -1.9054    0.0142   O.co2     1 RES1   0.0000
   116 O6        1.9295    0.4546    0.9285   O.3       1 RES1   0.0000
   117 H51       2.8179    0.0841    1.1178   H         1 RES1   0.0000
   118 H52       1.6467    0.8899    1.7409   H         1 RES1   0.0000
@<TRIPOS>BOND
     1     1     8    1
     2     1    45    1
     3     1    53    1
     4     1    55    1
     5     1    58    1
     6     1    61    1
     7     1   114    1
     8     1   115    1
     9     1   116    1
    10     2     3    1
    11     2    62    1
    12     2    63    1
    13     2    64    1
    14     3     4    1
    15     3    65    1
    16     3    66    1
    17     4     5    1
    18     4    67    1
    19     4    68    1
    20     5     6    1
    21     5    69    1
    22     5    70    1
    23     6     7    1
    24     6    71    1
    25     6    72    1
    26     7     8    1
    27     7    73    1
    28     7    74    1
    29     8     9    1
    30     8    60    1
    31     9    10    1
    32     9    16    2
    33    10    11    1
    34    10    15    2
    35    11    12    2
    36    11    75    1
    37    12    13    1
    38    12    76    1
    39    13    14    2
    40    13    77    1
    41    14    15    1
    42    14    78    1
    43    15    79    1
    44    16    17    1
    45    16    23    1
    46    17    18    1
    47    17    22    2
    48    18    19    2
    49    18    80    1
    50    19    20    1
    51    19    81    1
    52    20    21    2
    53    20    82    1
    54    21    22    1
    55    21    83    1
    56    22    84    1
    57    23    24    1
    58    23    59    2
    59    24    25    2
    60    24    85    1
    61    25    26    1
    62    25    57    1
    63    26    27    2
    64    26    86    1
    65    27    28    1
    66    27    87    1
    67    28    29    1
    68    28    56    2
    69    29    30    2
    70    29    88    1
    71    30    31    1
    72    30    54    1
    73    31    32    1
    74    31    38    2
    75    32    33    1
    76    32    37    2
    77    33    34    2
    78    33    89    1
    79    34    35    1
    80    34    90    1
    81    35    36    2
    82    35    91    1
    83    36    37    1
    84    36    92    1
    85    37    93    1
    86    38    39    1
    87    38    45    1
    88    39    40    1
    89    39    44    2
    90    40    41    2
    91    40    94    1
    92    41    42    1
    93    41    95    1
    94    42    43    2
    95    42    96    1
    96    43    44    1
    97    43    97    1
    98    44    98    1
    99    45    46    1
   100    45    52    1
   101    46    47    1
   102    46    99    1
   103    46   100    1
   104    47    48    1
   105    47   101    1
   106    47   102    1
   107    48    49    1
   108    48   103    1
   109    48   104    1
   110    49    50    1
   111    49   105    1
   112    49   106    1
   113    50    51    1
   114    50   107    1
   115    50   108    1
   116    51   109    1
   117    51   110    1
   118    51   111    1
   119    52    53    2
   120    52    54    1
   121    54    55    2
   122    55    56    1
   123    56    57    1
   124    57    58    2
   125    58    59    1
   126    59    60    1
   127    60    61    2
   128   112   113    2
   129   112   114    1
   130   112   115    1
   131   116   117    1
   132   116   118    1
@<TRIPOS>SUBSTRUCTURE
     1 RES1      118 GROUP             0 ****  ****    0  
