@<TRIPOS>MOLECULE
am_c3_9H2O_c0_0_nunpairedes_0_charge_3 Charge: 3 Unpaired_Electrons: 1 XTB_Unpaired_Electrons: 0 XTB_Charge: 3
   214   219     1     0     0
SMALL
NoCharges
****
Generated from Architector

@<TRIPOS>ATOM
     1 Ce1      -0.3498   -0.0210   -0.1611   Ce        1 RES1   0.0000
     2 C1       -3.0031    0.8060   -2.3915   C.3       1 RES1   0.0000
     3 C2       -3.7073   -0.4583   -2.8554   C.3       1 RES1   0.0000
     4 C3       -4.5388   -1.1316   -1.7815   C.3       1 RES1   0.0000
     5 C4       -5.5330   -0.1966   -1.1235   C.3       1 RES1   0.0000
     6 C5       -6.2674   -0.8820    0.0236   C.3       1 RES1   0.0000
     7 C6       -7.4486   -0.0167    0.4837   C.3       1 RES1   0.0000
     8 C7       -8.5998    0.0049   -0.5195   C.3       1 RES1   0.0000
     9 C8       -5.3024   -1.2521    1.1735   C.3       1 RES1   0.0000
    10 N1       -4.5949   -0.1124    1.7508   N.am      1 RES1   0.0000
    11 C9       -5.2755    0.5796    2.8236   C.3       1 RES1   0.0000
    12 C10      -3.3796    0.2055    1.3222   C.2       1 RES1   0.0000
    13 O1       -2.7075   -0.5061    0.5542   O.2       1 RES1   0.0000
    14 C11      -2.7467    1.5323    1.7872   C.3       1 RES1   0.0000
    15 O2       -1.6530    1.8385    0.9087   O.3       1 RES1   0.0000
    16 C12      -1.6762    3.1470    0.3392   C.3       1 RES1   0.0000
    17 C13      -1.1229    3.0811   -1.0987   C.2       1 RES1   0.0000
    18 O3       -0.6151    2.0109   -1.4806   O.2       1 RES1   0.0000
    19 N2       -1.2272    4.1547   -1.8720   N.am      1 RES1   0.0000
    20 C14      -1.7121    5.4566   -1.4460   C.3       1 RES1   0.0000
    21 C15      -0.7779    4.0976   -3.2681   C.3       1 RES1   0.0000
    22 C16      -1.8075    3.5342   -4.2807   C.3       1 RES1   0.0000
    23 C17      -3.1876    4.1773   -4.1064   C.3       1 RES1   0.0000
    24 C18      -4.2694    3.6083   -5.0160   C.3       1 RES1   0.0000
    25 C19      -1.2132    3.6617   -5.6935   C.3       1 RES1   0.0000
    26 C20      -1.6296    2.6057   -6.7264   C.3       1 RES1   0.0000
    27 C21      -1.4237    1.1416   -6.3329   C.3       1 RES1   0.0000
    28 C22       0.0207    0.7616   -6.0166   C.3       1 RES1   0.0000
    29 H1       -2.0689    0.9176   -2.9394   H         1 RES1   0.0000
    30 H2       -2.7625    0.7401   -1.3256   H         1 RES1   0.0000
    31 H3       -3.6228    1.6814   -2.5731   H         1 RES1   0.0000
    32 H4       -4.3455   -0.2227   -3.6947   H         1 RES1   0.0000
    33 H5       -2.9606   -1.1743   -3.1813   H         1 RES1   0.0000
    34 H6       -5.0915   -1.9645   -2.2161   H         1 RES1   0.0000
    35 H7       -3.8500   -1.5290   -1.0388   H         1 RES1   0.0000
    36 H8       -5.0379    0.7005   -0.7474   H         1 RES1   0.0000
    37 H9       -6.2632    0.1292   -1.8602   H         1 RES1   0.0000
    38 H10      -6.6654   -1.8419   -0.3271   H         1 RES1   0.0000
    39 H11      -7.8339   -0.3907    1.4354   H         1 RES1   0.0000
    40 H12      -7.1068    1.0118    0.6221   H         1 RES1   0.0000
    41 H13      -8.9059   -1.0061   -0.7719   H         1 RES1   0.0000
    42 H14      -9.4527    0.5209   -0.0875   H         1 RES1   0.0000
    43 H15      -8.3310    0.5294   -1.4333   H         1 RES1   0.0000
    44 H16      -5.8815   -1.7203    1.9693   H         1 RES1   0.0000
    45 H17      -4.5653   -1.9678    0.7998   H         1 RES1   0.0000
    46 H18      -6.0832    1.2156    2.4637   H         1 RES1   0.0000
    47 H19      -5.7282   -0.1777    3.4606   H         1 RES1   0.0000
    48 H20      -4.5847    1.1703    3.4175   H         1 RES1   0.0000
    49 H21      -3.4808    2.3428    1.7821   H         1 RES1   0.0000
    50 H22      -2.3533    1.3880    2.8044   H         1 RES1   0.0000
    51 H23      -2.7017    3.5320    0.2973   H         1 RES1   0.0000
    52 H24      -1.0450    3.8193    0.9405   H         1 RES1   0.0000
    53 H25      -2.0527    5.4608   -0.4163   H         1 RES1   0.0000
    54 H26      -0.9085    6.1880   -1.5463   H         1 RES1   0.0000
    55 H27      -2.5285    5.7650   -2.0980   H         1 RES1   0.0000
    56 H28      -0.4943    5.1116   -3.5489   H         1 RES1   0.0000
    57 H29       0.1084    3.4576   -3.3104   H         1 RES1   0.0000
    58 H30      -1.9109    2.4768   -4.0596   H         1 RES1   0.0000
    59 H31      -3.5018    4.0123   -3.0716   H         1 RES1   0.0000
    60 H32      -3.1274    5.2521   -4.2730   H         1 RES1   0.0000
    61 H33      -4.2363    2.5238   -5.0228   H         1 RES1   0.0000
    62 H34      -5.2486    3.9157   -4.6604   H         1 RES1   0.0000
    63 H35      -4.1592    3.9687   -6.0317   H         1 RES1   0.0000
    64 H36      -1.4642    4.6356   -6.1079   H         1 RES1   0.0000
    65 H37      -0.1269    3.6260   -5.6118   H         1 RES1   0.0000
    66 H38      -2.6766    2.7232   -6.9965   H         1 RES1   0.0000
    67 H39      -1.0476    2.8031   -7.6296   H         1 RES1   0.0000
    68 H40      -2.0557    0.8826   -5.4799   H         1 RES1   0.0000
    69 H41      -1.7592    0.5282   -7.1725   H         1 RES1   0.0000
    70 H42       0.3536    1.1873   -5.0701   H         1 RES1   0.0000
    71 H43       0.1096   -0.3216   -5.9489   H         1 RES1   0.0000
    72 H44       0.6849    1.1011   -6.8076   H         1 RES1   0.0000
    73 C23       3.5009   -4.8585   -0.9013   C.3       1 RES1   0.0000
    74 C24       3.9481   -4.6248   -2.3400   C.3       1 RES1   0.0000
    75 C25       3.4396   -3.3086   -2.9275   C.3       1 RES1   0.0000
    76 C26       4.0972   -2.0944   -2.2557   C.3       1 RES1   0.0000
    77 C27       4.4557   -1.0054   -3.2690   C.3       1 RES1   0.0000
    78 C28       5.5379   -0.0434   -2.7605   C.3       1 RES1   0.0000
    79 C29       6.8675   -0.7176   -2.4317   C.3       1 RES1   0.0000
    80 C30       3.1626   -0.2849   -3.7372   C.3       1 RES1   0.0000
    81 N3        2.9031    0.9898   -3.0664   N.am      1 RES1   0.0000
    82 C31       3.3539    2.1540   -3.8105   C.3       1 RES1   0.0000
    83 C32       2.2494    1.0224   -1.9114   C.2       1 RES1   0.0000
    84 O4        1.6772    0.0340   -1.4082   O.2       1 RES1   0.0000
    85 C33       2.2480    2.3516   -1.1342   C.3       1 RES1   0.0000
    86 O5        1.4442    2.2901    0.0366   O.3       1 RES1   0.0000
    87 C34       2.1164    2.4859    1.2690   C.3       1 RES1   0.0000
    88 C35       2.2476    1.1527    2.0211   C.2       1 RES1   0.0000
    89 O6        1.6980    0.1534    1.5331   O.2       1 RES1   0.0000
    90 N4        2.9520    1.1611    3.1474   N.am      1 RES1   0.0000
    91 C36       3.4885    2.3528    3.7877   C.3       1 RES1   0.0000
    92 C37       3.1980   -0.0799    3.8789   C.3       1 RES1   0.0000
    93 C38       4.2069   -1.0552    3.2289   C.3       1 RES1   0.0000
    94 C39       5.4720   -0.3232    2.7630   C.3       1 RES1   0.0000
    95 C40       6.3016   -1.0850    1.7350   C.3       1 RES1   0.0000
    96 C41       4.4731   -2.1451    4.2808   C.3       1 RES1   0.0000
    97 C42       5.1685   -3.4299    3.8286   C.3       1 RES1   0.0000
    98 C43       4.4571   -4.2052    2.7210   C.3       1 RES1   0.0000
    99 C44       3.2311   -4.9609    3.2160   C.3       1 RES1   0.0000
   100 H45       4.1367   -5.5970   -0.4234   H         1 RES1   0.0000
   101 H46       3.5711   -3.9394   -0.3237   H         1 RES1   0.0000
   102 H47       2.4784   -5.2284   -0.8613   H         1 RES1   0.0000
   103 H48       5.0373   -4.6056   -2.3657   H         1 RES1   0.0000
   104 H49       3.6228   -5.4609   -2.9606   H         1 RES1   0.0000
   105 H50       3.6774   -3.3070   -3.9911   H         1 RES1   0.0000
   106 H51       2.3519   -3.2542   -2.8548   H         1 RES1   0.0000
   107 H52       3.4383   -1.6701   -1.4968   H         1 RES1   0.0000
   108 H53       5.0068   -2.4295   -1.7621   H         1 RES1   0.0000
   109 H54       4.8786   -1.4987   -4.1482   H         1 RES1   0.0000
   110 H55       5.7443    0.6783   -3.5517   H         1 RES1   0.0000
   111 H56       5.1800    0.4933   -1.8782   H         1 RES1   0.0000
   112 H57       7.1909   -1.3486   -3.2542   H         1 RES1   0.0000
   113 H58       7.6313    0.0397   -2.2739   H         1 RES1   0.0000
   114 H59       6.8117   -1.3185   -1.5293   H         1 RES1   0.0000
   115 H60       3.2159   -0.0799   -4.8055   H         1 RES1   0.0000
   116 H61       2.3136   -0.9460   -3.5484   H         1 RES1   0.0000
   117 H62       4.4310    2.1176   -3.9584   H         1 RES1   0.0000
   118 H63       2.8851    2.1303   -4.7958   H         1 RES1   0.0000
   119 H64       3.1048    3.0914   -3.3272   H         1 RES1   0.0000
   120 H65       3.2890    2.6065   -0.8994   H         1 RES1   0.0000
   121 H66       1.8281    3.1463   -1.7565   H         1 RES1   0.0000
   122 H67       3.1135    2.9119    1.1155   H         1 RES1   0.0000
   123 H68       1.5085    3.1838    1.8571   H         1 RES1   0.0000
   124 H69       3.2123    3.2706    3.2796   H         1 RES1   0.0000
   125 H70       3.1059    2.3961    4.8076   H         1 RES1   0.0000
   126 H71       4.5751    2.2888    3.8413   H         1 RES1   0.0000
   127 H72       3.5602    0.2076    4.8656   H         1 RES1   0.0000
   128 H73       2.2412   -0.6000    3.9936   H         1 RES1   0.0000
   129 H74       3.7187   -1.4831    2.3473   H         1 RES1   0.0000
   130 H75       5.1685    0.6137    2.2899   H         1 RES1   0.0000
   131 H76       6.0982   -0.0770    3.6206   H         1 RES1   0.0000
   132 H77       5.6607   -1.5085    0.9670   H         1 RES1   0.0000
   133 H78       7.0075   -0.4109    1.2580   H         1 RES1   0.0000
   134 H79       6.8705   -1.8913    2.1800   H         1 RES1   0.0000
   135 H80       5.0808   -1.7112    5.0750   H         1 RES1   0.0000
   136 H81       3.5185   -2.4183    4.7339   H         1 RES1   0.0000
   137 H82       6.1816   -3.2090    3.5058   H         1 RES1   0.0000
   138 H83       5.2525   -4.0755    4.7045   H         1 RES1   0.0000
   139 H84       4.1671   -3.5256    1.9173   H         1 RES1   0.0000
   140 H85       5.1547   -4.9270    2.2949   H         1 RES1   0.0000
   141 H86       2.4956   -4.2818    3.6353   H         1 RES1   0.0000
   142 H87       2.7648   -5.5156    2.4051   H         1 RES1   0.0000
   143 H88       3.5148   -5.6727    3.9850   H         1 RES1   0.0000
   144 C45      -0.0885    4.0516    5.3624   C.3       1 RES1   0.0000
   145 C46      -0.3549    2.6124    4.9296   C.3       1 RES1   0.0000
   146 C47      -0.1409    1.6415    6.0909   C.3       1 RES1   0.0000
   147 C48      -0.2482    0.1588    5.7216   C.3       1 RES1   0.0000
   148 C49      -1.6488   -0.2401    5.2549   C.3       1 RES1   0.0000
   149 C50      -2.6309   -0.2027    6.4330   C.3       1 RES1   0.0000
   150 C51      -4.0974   -0.3096    6.0390   C.3       1 RES1   0.0000
   151 C52      -1.7528   -1.6214    4.5716   C.3       1 RES1   0.0000
   152 N5       -0.5860   -2.1840    3.8963   N.am      1 RES1   0.0000
   153 C53       0.1733   -3.2077    4.5893   C.3       1 RES1   0.0000
   154 C54      -0.3038   -1.7866    2.6519   C.2       1 RES1   0.0000
   155 O7       -0.6911   -0.7003    2.1961   O.2       1 RES1   0.0000
   156 C55       0.3817   -2.7704    1.6879   C.3       1 RES1   0.0000
   157 O8       -0.1590   -2.4512    0.4020   O.3       1 RES1   0.0000
   158 C56       0.1913   -3.3774   -0.6297   C.3       1 RES1   0.0000
   159 C57      -0.4279   -2.8283   -1.9374   C.2       1 RES1   0.0000
   160 O9       -0.7974   -1.6351   -1.9006   O.2       1 RES1   0.0000
   161 N6       -0.5556   -3.6103   -3.0060   N.am      1 RES1   0.0000
   162 C58       0.0919   -4.8987   -3.1647   C.3       1 RES1   0.0000
   163 C59      -1.3485   -3.1791   -4.1657   C.3       1 RES1   0.0000
   164 C60      -2.6277   -4.0281   -4.3728   C.3       1 RES1   0.0000
   165 C61      -3.4640   -4.1207   -3.0856   C.3       1 RES1   0.0000
   166 C62      -3.1674   -5.3542   -2.2301   C.3       1 RES1   0.0000
   167 C63      -3.4100   -3.6334   -5.6517   C.3       1 RES1   0.0000
   168 C64      -4.0372   -2.2396   -5.8086   C.3       1 RES1   0.0000
   169 C65      -5.4588   -2.1011   -5.2508   C.3       1 RES1   0.0000
   170 C66      -6.0924   -0.7317   -5.5173   C.3       1 RES1   0.0000
   171 H89      -0.2103    4.7473    4.5331   H         1 RES1   0.0000
   172 H90       0.9190    4.1552    5.7574   H         1 RES1   0.0000
   173 H91      -0.7871    4.3405    6.1437   H         1 RES1   0.0000
   174 H92       0.2994    2.3392    4.0939   H         1 RES1   0.0000
   175 H93      -1.3852    2.5561    4.5714   H         1 RES1   0.0000
   176 H94      -0.8534    1.8816    6.8783   H         1 RES1   0.0000
   177 H95       0.8501    1.8243    6.5077   H         1 RES1   0.0000
   178 H96       0.0328   -0.4234    6.5969   H         1 RES1   0.0000
   179 H97       0.4680   -0.0569    4.9295   H         1 RES1   0.0000
   180 H98      -1.9538    0.4954    4.5104   H         1 RES1   0.0000
   181 H99      -2.5021    0.7338    6.9730   H         1 RES1   0.0000
   182 H100     -2.3804   -1.0079    7.1234   H         1 RES1   0.0000
   183 H101     -4.3905    0.5600    5.4589   H         1 RES1   0.0000
   184 H102     -4.7126   -0.3244    6.9342   H         1 RES1   0.0000
   185 H103     -4.3010   -1.2120    5.4669   H         1 RES1   0.0000
   186 H104     -2.5508   -1.5517    3.8236   H         1 RES1   0.0000
   187 H105     -2.0504   -2.3543    5.3204   H         1 RES1   0.0000
   188 H106     -0.1957   -3.3036    5.6061   H         1 RES1   0.0000
   189 H107      1.2199   -2.9101    4.6474   H         1 RES1   0.0000
   190 H108      0.1035   -4.1888    4.1174   H         1 RES1   0.0000
   191 H109      0.1102   -3.7957    1.9685   H         1 RES1   0.0000
   192 H110      1.4773   -2.6714    1.6830   H         1 RES1   0.0000
   193 H111     -0.2144   -4.3696   -0.3845   H         1 RES1   0.0000
   194 H112      1.2864   -3.4310   -0.7124   H         1 RES1   0.0000
   195 H113      0.5622   -5.2298   -2.2471   H         1 RES1   0.0000
   196 H114      0.8560   -4.8195   -3.9394   H         1 RES1   0.0000
   197 H115     -0.6331   -5.6438   -3.4841   H         1 RES1   0.0000
   198 H116     -0.7397   -3.2604   -5.0686   H         1 RES1   0.0000
   199 H117     -1.5798   -2.1254   -4.0113   H         1 RES1   0.0000
   200 H118     -2.2977   -5.0450   -4.6035   H         1 RES1   0.0000
   201 H119     -4.5188   -4.1585   -3.3461   H         1 RES1   0.0000
   202 H120     -3.2919   -3.2413   -2.4695   H         1 RES1   0.0000
   203 H121     -3.0630   -6.2425   -2.8473   H         1 RES1   0.0000
   204 H122     -3.9856   -5.5338   -1.5356   H         1 RES1   0.0000
   205 H123     -2.2606   -5.2250   -1.6436   H         1 RES1   0.0000
   206 H124     -4.1967   -4.3802   -5.7768   H         1 RES1   0.0000
   207 H125     -2.7144   -3.7588   -6.4825   H         1 RES1   0.0000
   208 H126     -4.0872   -2.0104   -6.8757   H         1 RES1   0.0000
   209 H127     -3.3888   -1.4882   -5.3618   H         1 RES1   0.0000
   210 H128     -5.4529   -2.2820   -4.1771   H         1 RES1   0.0000
   211 H129     -6.1072   -2.8580   -5.6973   H         1 RES1   0.0000
   212 H130     -5.4874    0.0923   -5.1378   H         1 RES1   0.0000
   213 H131     -7.0710   -0.6799   -5.0405   H         1 RES1   0.0000
   214 H132     -6.2271   -0.5615   -6.5815   H         1 RES1   0.0000
@<TRIPOS>BOND
     1     1    13    1
     2     1    15    1
     3     1    18    1
     4     1    84    1
     5     1    86    1
     6     1    89    1
     7     1   155    1
     8     1   157    1
     9     1   160    1
    10     2     3    1
    11     2    29    1
    12     2    30    1
    13     2    31    1
    14     3     4    1
    15     3    32    1
    16     3    33    1
    17     4     5    1
    18     4    34    1
    19     4    35    1
    20     5     6    1
    21     5    36    1
    22     5    37    1
    23     6     7    1
    24     6     9    1
    25     6    38    1
    26     7     8    1
    27     7    39    1
    28     7    40    1
    29     8    41    1
    30     8    42    1
    31     8    43    1
    32     9    10    1
    33     9    44    1
    34     9    45    1
    35    10    11    1
    36    10    12    1
    37    11    46    1
    38    11    47    1
    39    11    48    1
    40    12    13    2
    41    12    14    1
    42    14    15    1
    43    14    49    1
    44    14    50    1
    45    15    16    1
    46    16    17    1
    47    16    51    1
    48    16    52    1
    49    17    18    2
    50    17    19    1
    51    19    20    1
    52    19    21    1
    53    20    53    1
    54    20    54    1
    55    20    55    1
    56    21    22    1
    57    21    56    1
    58    21    57    1
    59    22    23    1
    60    22    25    1
    61    22    58    1
    62    23    24    1
    63    23    59    1
    64    23    60    1
    65    24    61    1
    66    24    62    1
    67    24    63    1
    68    25    26    1
    69    25    64    1
    70    25    65    1
    71    26    27    1
    72    26    66    1
    73    26    67    1
    74    27    28    1
    75    27    68    1
    76    27    69    1
    77    28    70    1
    78    28    71    1
    79    28    72    1
    80    73    74    1
    81    73   100    1
    82    73   101    1
    83    73   102    1
    84    74    75    1
    85    74   103    1
    86    74   104    1
    87    75    76    1
    88    75   105    1
    89    75   106    1
    90    76    77    1
    91    76   107    1
    92    76   108    1
    93    77    78    1
    94    77    80    1
    95    77   109    1
    96    78    79    1
    97    78   110    1
    98    78   111    1
    99    79   112    1
   100    79   113    1
   101    79   114    1
   102    80    81    1
   103    80   115    1
   104    80   116    1
   105    81    82    1
   106    81    83    1
   107    82   117    1
   108    82   118    1
   109    82   119    1
   110    83    84    2
   111    83    85    1
   112    85    86    1
   113    85   120    1
   114    85   121    1
   115    86    87    1
   116    87    88    1
   117    87   122    1
   118    87   123    1
   119    88    89    2
   120    88    90    1
   121    90    91    1
   122    90    92    1
   123    91   124    1
   124    91   125    1
   125    91   126    1
   126    92    93    1
   127    92   127    1
   128    92   128    1
   129    93    94    1
   130    93    96    1
   131    93   129    1
   132    94    95    1
   133    94   130    1
   134    94   131    1
   135    95   132    1
   136    95   133    1
   137    95   134    1
   138    96    97    1
   139    96   135    1
   140    96   136    1
   141    97    98    1
   142    97   137    1
   143    97   138    1
   144    98    99    1
   145    98   139    1
   146    98   140    1
   147    99   141    1
   148    99   142    1
   149    99   143    1
   150   144   145    1
   151   144   171    1
   152   144   172    1
   153   144   173    1
   154   145   146    1
   155   145   174    1
   156   145   175    1
   157   146   147    1
   158   146   176    1
   159   146   177    1
   160   147   148    1
   161   147   178    1
   162   147   179    1
   163   148   149    1
   164   148   151    1
   165   148   180    1
   166   149   150    1
   167   149   181    1
   168   149   182    1
   169   150   183    1
   170   150   184    1
   171   150   185    1
   172   151   152    1
   173   151   186    1
   174   151   187    1
   175   152   153    1
   176   152   154    1
   177   153   188    1
   178   153   189    1
   179   153   190    1
   180   154   155    2
   181   154   156    1
   182   156   157    1
   183   156   191    1
   184   156   192    1
   185   157   158    1
   186   158   159    1
   187   158   193    1
   188   158   194    1
   189   159   160    2
   190   159   161    1
   191   161   162    1
   192   161   163    1
   193   162   195    1
   194   162   196    1
   195   162   197    1
   196   163   164    1
   197   163   198    1
   198   163   199    1
   199   164   165    1
   200   164   167    1
   201   164   200    1
   202   165   166    1
   203   165   201    1
   204   165   202    1
   205   166   203    1
   206   166   204    1
   207   166   205    1
   208   167   168    1
   209   167   206    1
   210   167   207    1
   211   168   169    1
   212   168   208    1
   213   168   209    1
   214   169   170    1
   215   169   210    1
   216   169   211    1
   217   170   212    1
   218   170   213    1
   219   170   214    1
@<TRIPOS>SUBSTRUCTURE
     1 RES1      214 GROUP             0 ****  ****    0  
