@<TRIPOS>MOLECULE
am_c3_9H2O_c0_0_nunpairedes_0_charge_3 Charge: 3 Unpaired_Electrons: 1 XTB_Unpaired_Electrons: 0 XTB_Charge: 3
    64    69     1     0     0
SMALL
NoCharges
****
Generated from Architector

@<TRIPOS>ATOM
     1 Ce1       0.1788   -0.2461   -0.1119   Ce        1 RES1   0.0000
     2 C1       -0.5452    2.1819    3.1012   C.3       1 RES1   0.0000
     3 O1       -0.6437    2.0631    1.6746   O.3       1 RES1   0.0000
     4 C2       -0.9265    3.3163    1.0529   C.3       1 RES1   0.0000
     5 C3        0.3724    4.0554    0.6571   C.3       1 RES1   0.0000
     6 N1        1.3534    3.1017    0.1386   N.am      1 RES1   0.0000
     7 C4        2.5713    2.8894    0.9376   C.3       1 RES1   0.0000
     8 C5        2.9306    1.4358    1.3031   C.3       1 RES1   0.0000
     9 O2        1.7789    0.6519    1.6828   O.3       1 RES1   0.0000
    10 C6        1.9975   -0.0403    2.9224   C.3       1 RES1   0.0000
    11 C7        1.0828    2.3040   -0.8897   C.2       1 RES1   0.0000
    12 O3        1.6827    1.2261   -1.0815   O.2       1 RES1   0.0000
    13 C8       -0.0594    2.5794   -1.8906   C.3       1 RES1   0.0000
    14 O4       -0.9808    1.5337   -1.5467   O.3       1 RES1   0.0000
    15 C9       -1.7611    0.9227   -2.5857   C.3       1 RES1   0.0000
    16 C10      -1.8914   -0.5170   -2.0558   C.2       1 RES1   0.0000
    17 O5       -0.8312   -1.1728   -2.0442   O.2       1 RES1   0.0000
    18 N2       -3.0142   -1.0245   -1.5570   N.am      1 RES1   0.0000
    19 C11      -4.1154   -0.2019   -1.0785   C.3       1 RES1   0.0000
    20 C12      -3.6085    0.8457   -0.0609   C.3       1 RES1   0.0000
    21 O6       -2.4933    0.3220    0.6877   O.3       1 RES1   0.0000
    22 C13      -2.8377    0.0730    2.0612   C.3       1 RES1   0.0000
    23 C14      -2.9997   -2.4463   -1.1840   C.3       1 RES1   0.0000
    24 C15      -2.4638   -2.7346    0.2295   C.3       1 RES1   0.0000
    25 O7       -1.0598   -2.4547    0.3788   O.3       1 RES1   0.0000
    26 C16      -0.2340   -3.5700   -0.0323   C.3       1 RES1   0.0000
    27 H1        0.2992    2.8085    3.3837   H         1 RES1   0.0000
    28 H2       -0.3872    1.1813    3.4922   H         1 RES1   0.0000
    29 H3       -1.4585    2.6107    3.5265   H         1 RES1   0.0000
    30 H4       -1.5001    3.9665    1.7205   H         1 RES1   0.0000
    31 H5       -1.5551    3.0920    0.1886   H         1 RES1   0.0000
    32 H6        0.7867    4.5272    1.5504   H         1 RES1   0.0000
    33 H7        0.1604    4.8512   -0.0597   H         1 RES1   0.0000
    34 H8        2.4702    3.4786    1.8505   H         1 RES1   0.0000
    35 H9        3.4163    3.3001    0.3743   H         1 RES1   0.0000
    36 H10       3.6268    1.4972    2.1439   H         1 RES1   0.0000
    37 H11       3.4462    0.9438    0.4684   H         1 RES1   0.0000
    38 H12       2.0877    0.6677    3.7491   H         1 RES1   0.0000
    39 H13       2.9043   -0.6510    2.8919   H         1 RES1   0.0000
    40 H14       1.1325   -0.6856    3.0903   H         1 RES1   0.0000
    41 H15       0.3515    2.4495   -2.9040   H         1 RES1   0.0000
    42 H16      -0.5257    3.5684   -1.8340   H         1 RES1   0.0000
    43 H17      -1.2039    0.8814   -3.5325   H         1 RES1   0.0000
    44 H18      -2.6906    1.4721   -2.7575   H         1 RES1   0.0000
    45 H19      -4.8223   -0.8696   -0.5865   H         1 RES1   0.0000
    46 H20      -4.6445    0.2849   -1.9003   H         1 RES1   0.0000
    47 H21      -4.4346    1.1026    0.6058   H         1 RES1   0.0000
    48 H22      -3.2848    1.7677   -0.5513   H         1 RES1   0.0000
    49 H23      -3.7235   -0.5630    2.1374   H         1 RES1   0.0000
    50 H24      -3.0435    1.0055    2.5938   H         1 RES1   0.0000
    51 H25      -1.9805   -0.4359    2.5083   H         1 RES1   0.0000
    52 H26      -2.3664   -2.9715   -1.9035   H         1 RES1   0.0000
    53 H27      -4.0188   -2.8331   -1.2699   H         1 RES1   0.0000
    54 H28      -2.6494   -3.7911    0.4641   H         1 RES1   0.0000
    55 H29      -2.9855   -2.1280    0.9679   H         1 RES1   0.0000
    56 H30      -0.8490   -4.4481   -0.2315   H         1 RES1   0.0000
    57 H31       0.4450   -3.8078    0.7921   H         1 RES1   0.0000
    58 H32       0.3176   -3.3184   -0.9464   H         1 RES1   0.0000
    59 O8        2.0467   -1.7617    0.4969   O.3       1 RES1   0.0000
    60 H33       2.3795   -2.3221    1.2161   H         1 RES1   0.0000
    61 H34       2.6857   -1.8766   -0.2299   H         1 RES1   0.0000
    62 O9        1.7194   -1.1824   -2.2630   O.3       1 RES1   0.0000
    63 H35       2.0091   -0.5018   -2.8866   H         1 RES1   0.0000
    64 H36       1.6218   -1.9769   -2.8081   H         1 RES1   0.0000
@<TRIPOS>BOND
     1     1     3    1
     2     1     9    1
     3     1    12    1
     4     1    14    1
     5     1    17    1
     6     1    21    1
     7     1    25    1
     8     1    59    1
     9     1    62    1
    10     2     3    1
    11     2    27    1
    12     2    28    1
    13     2    29    1
    14     3     4    1
    15     4     5    1
    16     4    30    1
    17     4    31    1
    18     5     6    1
    19     5    32    1
    20     5    33    1
    21     6     7    1
    22     6    11    1
    23     7     8    1
    24     7    34    1
    25     7    35    1
    26     8     9    1
    27     8    36    1
    28     8    37    1
    29     9    10    1
    30    10    38    1
    31    10    39    1
    32    10    40    1
    33    11    12    2
    34    11    13    1
    35    13    14    1
    36    13    41    1
    37    13    42    1
    38    14    15    1
    39    15    16    1
    40    15    43    1
    41    15    44    1
    42    16    17    2
    43    16    18    1
    44    18    19    1
    45    18    23    1
    46    19    20    1
    47    19    45    1
    48    19    46    1
    49    20    21    1
    50    20    47    1
    51    20    48    1
    52    21    22    1
    53    22    49    1
    54    22    50    1
    55    22    51    1
    56    23    24    1
    57    23    52    1
    58    23    53    1
    59    24    25    1
    60    24    54    1
    61    24    55    1
    62    25    26    1
    63    26    56    1
    64    26    57    1
    65    26    58    1
    66    59    60    1
    67    59    61    1
    68    62    63    1
    69    62    64    1
@<TRIPOS>SUBSTRUCTURE
     1 RES1       64 GROUP             0 ****  ****    0  
