@<TRIPOS>MOLECULE
am_c3_9H2O_c0_0_nunpairedes_0_charge_3 Charge: 3 Unpaired_Electrons: 1 XTB_Unpaired_Electrons: 0 XTB_Charge: 3
   430   435     1     0     0
SMALL
NoCharges
****
Generated from Architector

@<TRIPOS>ATOM
     1 Ce1      -0.1549    0.4133   -0.3255   Ce        1 RES1   0.0000
     2 C1        8.5935    0.8872    2.7784   C.3       1 RES1   0.0000
     3 C2        7.2998    1.4401    2.1854   C.3       1 RES1   0.0000
     4 C3        6.9230    2.7895    2.7970   C.3       1 RES1   0.0000
     5 C4        5.5773    3.3034    2.2941   C.3       1 RES1   0.0000
     6 C5        5.2113    4.6412    2.9367   C.3       1 RES1   0.0000
     7 C6        3.8061    5.1385    2.5946   C.3       1 RES1   0.0000
     8 C7        2.7095    4.1863    3.0656   C.3       1 RES1   0.0000
     9 C8        1.3002    4.7601    2.9519   C.3       1 RES1   0.0000
    10 C9        0.2645    3.6320    2.9528   C.3       1 RES1   0.0000
    11 C10      -1.0774    4.0932    2.3819   C.3       1 RES1   0.0000
    12 N1       -2.0760    3.0397    2.1653   N.am      1 RES1   0.0000
    13 C11      -2.7632    2.5528    3.3555   C.3       1 RES1   0.0000
    14 C12      -3.2973    3.6230    4.3201   C.3       1 RES1   0.0000
    15 C13      -4.2939    2.9719    5.2865   C.3       1 RES1   0.0000
    16 C14      -4.6353    3.8472    6.4927   C.3       1 RES1   0.0000
    17 C15      -5.7783    3.3216    7.3708   C.3       1 RES1   0.0000
    18 C16      -5.3997    2.2750    8.4194   C.3       1 RES1   0.0000
    19 C17      -4.9698    0.9396    7.8223   C.3       1 RES1   0.0000
    20 C18      -4.6640   -0.1230    8.8732   C.3       1 RES1   0.0000
    21 C19      -3.9897   -1.3542    8.2616   C.3       1 RES1   0.0000
    22 C20      -2.5716   -1.0682    7.7658   C.3       1 RES1   0.0000
    23 C21      -2.0558    2.4063    0.9919   C.2       1 RES1   0.0000
    24 O1       -1.0392    2.4796    0.2529   O.2       1 RES1   0.0000
    25 C22      -3.2683    1.7537    0.2758   C.3       1 RES1   0.0000
    26 C23      -4.6609    1.7382    0.8832   C.3       1 RES1   0.0000
    27 O2       -2.8878    0.4015   -0.0669   O.3       1 RES1   0.0000
    28 C24      -3.5811   -0.1273   -1.2089   C.3       1 RES1   0.0000
    29 C25      -3.7809   -1.6332   -1.0024   C.3       1 RES1   0.0000
    30 C26      -2.6947    0.2115   -2.4250   C.2       1 RES1   0.0000
    31 O3       -1.5712    0.6953   -2.1692   O.2       1 RES1   0.0000
    32 N2       -3.1309    0.0130   -3.6564   N.am      1 RES1   0.0000
    33 C27      -2.2653    0.4448   -4.7543   C.3       1 RES1   0.0000
    34 C28      -1.8910    1.9304   -4.6959   C.3       1 RES1   0.0000
    35 C29      -3.0799    2.8630   -4.4882   C.3       1 RES1   0.0000
    36 C30      -2.6097    4.2865   -4.2067   C.3       1 RES1   0.0000
    37 C31      -3.7367    5.1846   -3.7046   C.3       1 RES1   0.0000
    38 C32      -3.2096    6.5523   -3.2905   C.3       1 RES1   0.0000
    39 C33      -4.2841    7.4203   -2.6464   C.3       1 RES1   0.0000
    40 C34      -3.6675    8.6821   -2.0513   C.3       1 RES1   0.0000
    41 C35      -4.6864    9.6044   -1.3870   C.3       1 RES1   0.0000
    42 C36      -4.0021   10.7875   -0.7102   C.3       1 RES1   0.0000
    43 C37      -4.3715   -0.6785   -3.9963   C.3       1 RES1   0.0000
    44 C38      -5.6000    0.2188   -4.1569   C.3       1 RES1   0.0000
    45 C39      -6.8018   -0.6022   -4.6396   C.3       1 RES1   0.0000
    46 C40      -7.9751    0.3075   -5.0188   C.3       1 RES1   0.0000
    47 C41      -7.7331    1.0529   -6.3394   C.3       1 RES1   0.0000
    48 C42      -8.3380    2.4556   -6.3878   C.3       1 RES1   0.0000
    49 C43      -7.5751    3.4610   -5.5268   C.3       1 RES1   0.0000
    50 C44      -8.1673    4.8749   -5.5665   C.3       1 RES1   0.0000
    51 C45      -9.1160    5.1785   -4.4052   C.3       1 RES1   0.0000
    52 C46     -10.3746    4.3186   -4.4147   C.3       1 RES1   0.0000
    53 H1        8.8170   -0.0986    2.3720   H         1 RES1   0.0000
    54 H2        8.5076    0.8046    3.8609   H         1 RES1   0.0000
    55 H3        9.4283    1.5462    2.5513   H         1 RES1   0.0000
    56 H4        6.4895    0.7236    2.3468   H         1 RES1   0.0000
    57 H5        7.4297    1.5565    1.1052   H         1 RES1   0.0000
    58 H6        7.6990    3.5141    2.5569   H         1 RES1   0.0000
    59 H7        6.8786    2.6947    3.8843   H         1 RES1   0.0000
    60 H8        4.8128    2.5591    2.5267   H         1 RES1   0.0000
    61 H9        5.6237    3.4359    1.2077   H         1 RES1   0.0000
    62 H10       5.9250    5.3953    2.6063   H         1 RES1   0.0000
    63 H11       5.3071    4.5550    4.0200   H         1 RES1   0.0000
    64 H12       3.7222    5.2759    1.5131   H         1 RES1   0.0000
    65 H13       3.6696    6.1123    3.0641   H         1 RES1   0.0000
    66 H14       2.8953    3.9119    4.1010   H         1 RES1   0.0000
    67 H15       2.7625    3.2776    2.4616   H         1 RES1   0.0000
    68 H16       1.2207    5.3545    2.0402   H         1 RES1   0.0000
    69 H17       1.1118    5.4345    3.7834   H         1 RES1   0.0000
    70 H18       0.1351    3.2822    3.9754   H         1 RES1   0.0000
    71 H19       0.6285    2.7967    2.3474   H         1 RES1   0.0000
    72 H20      -0.9154    4.5598    1.4065   H         1 RES1   0.0000
    73 H21      -1.5183    4.8312    3.0534   H         1 RES1   0.0000
    74 H22      -2.0411    1.9370    3.9049   H         1 RES1   0.0000
    75 H23      -3.5737    1.8981    3.0490   H         1 RES1   0.0000
    76 H24      -3.7733    4.4409    3.7772   H         1 RES1   0.0000
    77 H25      -2.4834    4.0434    4.9084   H         1 RES1   0.0000
    78 H26      -3.8624    2.0239    5.6034   H         1 RES1   0.0000
    79 H27      -5.2193    2.7485    4.7555   H         1 RES1   0.0000
    80 H28      -4.9325    4.8255    6.1116   H         1 RES1   0.0000
    81 H29      -3.7480    3.9977    7.1061   H         1 RES1   0.0000
    82 H30      -6.5737    2.9234    6.7390   H         1 RES1   0.0000
    83 H31      -6.1878    4.1785    7.9046   H         1 RES1   0.0000
    84 H32      -6.2681    2.1087    9.0595   H         1 RES1   0.0000
    85 H33      -4.6003    2.6628    9.0555   H         1 RES1   0.0000
    86 H34      -4.0673    1.0962    7.2356   H         1 RES1   0.0000
    87 H35      -5.7521    0.5731    7.1512   H         1 RES1   0.0000
    88 H36      -5.5867   -0.4314    9.3631   H         1 RES1   0.0000
    89 H37      -4.0092    0.3015    9.6358   H         1 RES1   0.0000
    90 H38      -4.5991   -1.7351    7.4348   H         1 RES1   0.0000
    91 H39      -3.9354   -2.1386    9.0186   H         1 RES1   0.0000
    92 H40      -1.9602   -0.6896    8.5849   H         1 RES1   0.0000
    93 H41      -2.5689   -0.3258    6.9646   H         1 RES1   0.0000
    94 H42      -2.1018   -1.9764    7.3839   H         1 RES1   0.0000
    95 H43      -3.2889    2.3561   -0.6512   H         1 RES1   0.0000
    96 H44      -4.7538    0.8761    1.5320   H         1 RES1   0.0000
    97 H45      -5.4081    1.6459    0.0956   H         1 RES1   0.0000
    98 H46      -4.8881    2.6511    1.4207   H         1 RES1   0.0000
    99 H47      -4.5566    0.3581   -1.3106   H         1 RES1   0.0000
   100 H48      -3.6524   -1.8330    0.0579   H         1 RES1   0.0000
   101 H49      -3.0616   -2.2276   -1.5635   H         1 RES1   0.0000
   102 H50      -4.7855   -1.9520   -1.2654   H         1 RES1   0.0000
   103 H51      -2.7842    0.2278   -5.6839   H         1 RES1   0.0000
   104 H52      -1.3427   -0.1473   -4.7031   H         1 RES1   0.0000
   105 H53      -1.3773    2.1741   -5.6270   H         1 RES1   0.0000
   106 H54      -1.1938    2.0809   -3.8683   H         1 RES1   0.0000
   107 H55      -3.6557    2.5116   -3.6292   H         1 RES1   0.0000
   108 H56      -3.7359    2.8550   -5.3582   H         1 RES1   0.0000
   109 H57      -2.1872    4.7120   -5.1173   H         1 RES1   0.0000
   110 H58      -1.8147    4.2579   -3.4517   H         1 RES1   0.0000
   111 H59      -4.2258    4.7155   -2.8460   H         1 RES1   0.0000
   112 H60      -4.4877    5.2991   -4.4860   H         1 RES1   0.0000
   113 H61      -2.8089    7.0654   -4.1650   H         1 RES1   0.0000
   114 H62      -2.3882    6.4213   -2.5796   H         1 RES1   0.0000
   115 H63      -4.7905    6.8554   -1.8604   H         1 RES1   0.0000
   116 H64      -5.0347    7.6941   -3.3863   H         1 RES1   0.0000
   117 H65      -3.1534    9.2341   -2.8398   H         1 RES1   0.0000
   118 H66      -2.9143    8.3909   -1.3144   H         1 RES1   0.0000
   119 H67      -5.2606    9.0393   -0.6484   H         1 RES1   0.0000
   120 H68      -5.3862    9.9717   -2.1401   H         1 RES1   0.0000
   121 H69      -3.3055   10.4429    0.0527   H         1 RES1   0.0000
   122 H70      -4.7372   11.4332   -0.2368   H         1 RES1   0.0000
   123 H71      -3.4474   11.3727   -1.4404   H         1 RES1   0.0000
   124 H72      -4.5860   -1.4414   -3.2497   H         1 RES1   0.0000
   125 H73      -4.1986   -1.1961   -4.9413   H         1 RES1   0.0000
   126 H74      -5.3890    1.0022   -4.8852   H         1 RES1   0.0000
   127 H75      -5.8588    0.7035   -3.2118   H         1 RES1   0.0000
   128 H76      -7.1062   -1.2959   -3.8500   H         1 RES1   0.0000
   129 H77      -6.5172   -1.1953   -5.5131   H         1 RES1   0.0000
   130 H78      -8.1500    1.0181   -4.2076   H         1 RES1   0.0000
   131 H79      -8.8737   -0.3015   -5.1199   H         1 RES1   0.0000
   132 H80      -8.1579    0.4641   -7.1531   H         1 RES1   0.0000
   133 H81      -6.6622    1.1392   -6.5317   H         1 RES1   0.0000
   134 H82      -9.3810    2.4039   -6.0828   H         1 RES1   0.0000
   135 H83      -8.3099    2.8052   -7.4208   H         1 RES1   0.0000
   136 H84      -6.5438    3.4997   -5.8871   H         1 RES1   0.0000
   137 H85      -7.5446    3.1207   -4.4902   H         1 RES1   0.0000
   138 H86      -8.7018    5.0184   -6.5058   H         1 RES1   0.0000
   139 H87      -7.3567    5.6064   -5.5372   H         1 RES1   0.0000
   140 H88      -9.4106    6.2282   -4.4668   H         1 RES1   0.0000
   141 H89      -8.5856    5.0499   -3.4559   H         1 RES1   0.0000
   142 H90     -10.8584    4.3815   -5.3855   H         1 RES1   0.0000
   143 H91     -11.0798    4.6621   -3.6624   H         1 RES1   0.0000
   144 H92     -10.1440    3.2765   -4.2073   H         1 RES1   0.0000
   145 C47      -3.7580   -7.9599    2.3205   C.3       1 RES1   0.0000
   146 C48      -2.5181   -7.1787    1.9082   C.3       1 RES1   0.0000
   147 C49      -1.2535   -7.6357    2.6397   C.3       1 RES1   0.0000
   148 C50      -0.0692   -6.7373    2.2948   C.3       1 RES1   0.0000
   149 C51       1.2553   -7.1535    2.9330   C.3       1 RES1   0.0000
   150 C52       2.4361   -6.2646    2.5250   C.3       1 RES1   0.0000
   151 C53       2.2824   -4.8134    2.9806   C.3       1 RES1   0.0000
   152 C54       3.4913   -3.9155    2.6877   C.3       1 RES1   0.0000
   153 C55       3.0748   -2.4607    2.9256   C.3       1 RES1   0.0000
   154 C56       4.0677   -1.3456    2.5367   C.3       1 RES1   0.0000
   155 N3        3.3196   -0.0812    2.5257   N.am      1 RES1   0.0000
   156 C57       2.8563    0.3564    3.8588   C.3       1 RES1   0.0000
   157 C58       4.0036    0.4603    4.8819   C.3       1 RES1   0.0000
   158 C59       3.9256    1.7550    5.6941   C.3       1 RES1   0.0000
   159 C60       4.7521    1.7120    6.9795   C.3       1 RES1   0.0000
   160 C61       4.7465    3.0301    7.7699   C.3       1 RES1   0.0000
   161 C62       3.5112    3.2368    8.6502   C.3       1 RES1   0.0000
   162 C63       2.3044    3.8481    7.9368   C.3       1 RES1   0.0000
   163 C64       1.0269    3.7418    8.7736   C.3       1 RES1   0.0000
   164 C65      -0.2229    3.5654    7.9104   C.3       1 RES1   0.0000
   165 C66      -1.3957    3.0265    8.7184   C.3       1 RES1   0.0000
   166 C67       2.4894    0.2413    1.5131   C.2       1 RES1   0.0000
   167 O4        1.2727    0.4546    1.6973   O.2       1 RES1   0.0000
   168 C68       2.9736    0.6129    0.0796   C.3       1 RES1   0.0000
   169 C69       4.4565    0.8656   -0.1304   C.3       1 RES1   0.0000
   170 O5        2.1448    1.8041   -0.1065   O.3       1 RES1   0.0000
   171 C70       2.3102    2.7012   -1.2146   C.3       1 RES1   0.0000
   172 C71       1.5938    3.9831   -0.7747   C.3       1 RES1   0.0000
   173 C72       1.7444    2.0115   -2.4681   C.2       1 RES1   0.0000
   174 O6        1.2846    0.8604   -2.2899   O.2       1 RES1   0.0000
   175 N4        1.8938    2.5443   -3.6768   N.am      1 RES1   0.0000
   176 C73       1.8377    1.6509   -4.8329   C.3       1 RES1   0.0000
   177 C74       2.9132    0.5600   -4.7610   C.3       1 RES1   0.0000
   178 C75       4.3215    1.0871   -4.4801   C.3       1 RES1   0.0000
   179 C76       5.2696   -0.0522   -4.1105   C.3       1 RES1   0.0000
   180 C77       6.5849    0.4240   -3.4935   C.3       1 RES1   0.0000
   181 C78       7.3466   -0.7501   -2.8813   C.3       1 RES1   0.0000
   182 C79       8.5915   -0.3275   -2.1049   C.3       1 RES1   0.0000
   183 C80       9.2247   -1.5207   -1.3920   C.3       1 RES1   0.0000
   184 C81      10.5016   -1.1551   -0.6414   C.3       1 RES1   0.0000
   185 C82      11.0655   -2.3495    0.1143   C.3       1 RES1   0.0000
   186 C83       1.8472    3.9747   -3.9663   C.3       1 RES1   0.0000
   187 C84       3.1172    4.6296   -4.5020   C.3       1 RES1   0.0000
   188 C85       2.7838    6.0779   -4.8875   C.3       1 RES1   0.0000
   189 C86       3.9802    6.8258   -5.4775   C.3       1 RES1   0.0000
   190 C87       4.4159    6.2910   -6.8529   C.3       1 RES1   0.0000
   191 C88       5.9021    5.9420   -6.9251   C.3       1 RES1   0.0000
   192 C89       6.2769    4.7275   -6.0770   C.3       1 RES1   0.0000
   193 C90       7.7921    4.5117   -5.9821   C.3       1 RES1   0.0000
   194 C91       8.4025    5.0526   -4.6877   C.3       1 RES1   0.0000
   195 C92       8.3142    6.5683   -4.5521   C.3       1 RES1   0.0000
   196 H93      -4.6377   -7.5686    1.8172   H         1 RES1   0.0000
   197 H94      -3.9120   -7.8864    3.3938   H         1 RES1   0.0000
   198 H95      -3.6561   -9.0075    2.0591   H         1 RES1   0.0000
   199 H96      -2.6814   -6.1173    2.1023   H         1 RES1   0.0000
   200 H97      -2.3627   -7.2890    0.8316   H         1 RES1   0.0000
   201 H98      -1.0289   -8.6632    2.3640   H         1 RES1   0.0000
   202 H99      -1.4236   -7.6153    3.7165   H         1 RES1   0.0000
   203 H100     -0.3200   -5.7282    2.6231   H         1 RES1   0.0000
   204 H101      0.0541   -6.7437    1.2080   H         1 RES1   0.0000
   205 H102      1.4876   -8.1742    2.6291   H         1 RES1   0.0000
   206 H103      1.1603   -7.1454    4.0167   H         1 RES1   0.0000
   207 H104      2.5568   -6.2997    1.4382   H         1 RES1   0.0000
   208 H105      3.3392   -6.6867    2.9650   H         1 RES1   0.0000
   209 H106      2.0757   -4.8044    4.0529   H         1 RES1   0.0000
   210 H107      1.4187   -4.3810    2.4678   H         1 RES1   0.0000
   211 H108      3.8163   -4.0665    1.6575   H         1 RES1   0.0000
   212 H109      4.3198   -4.1940    3.3375   H         1 RES1   0.0000
   213 H110      2.8529   -2.3613    3.9872   H         1 RES1   0.0000
   214 H111      2.1438   -2.2708    2.3737   H         1 RES1   0.0000
   215 H112      4.5187   -1.5112    1.5588   H         1 RES1   0.0000
   216 H113      4.8693   -1.2737    3.2692   H         1 RES1   0.0000
   217 H114      2.0655   -0.3010    4.2280   H         1 RES1   0.0000
   218 H115      2.4218    1.3451    3.7114   H         1 RES1   0.0000
   219 H116      4.9721    0.4416    4.3834   H         1 RES1   0.0000
   220 H117      3.9587   -0.3877    5.5667   H         1 RES1   0.0000
   221 H118      2.8852    1.9362    5.9490   H         1 RES1   0.0000
   222 H119      4.2783    2.5894    5.0856   H         1 RES1   0.0000
   223 H120      5.7840    1.4603    6.7232   H         1 RES1   0.0000
   224 H121      4.3745    0.9175    7.6249   H         1 RES1   0.0000
   225 H122      4.8626    3.8736    7.0860   H         1 RES1   0.0000
   226 H123      5.6187    3.0150    8.4260   H         1 RES1   0.0000
   227 H124      3.7797    3.8935    9.4766   H         1 RES1   0.0000
   228 H125      3.2315    2.2746    9.0854   H         1 RES1   0.0000
   229 H126      2.1300    3.3455    6.9847   H         1 RES1   0.0000
   230 H127      2.5195    4.8920    7.7105   H         1 RES1   0.0000
   231 H128      0.9141    4.6189    9.4077   H         1 RES1   0.0000
   232 H129      1.1110    2.8823    9.4396   H         1 RES1   0.0000
   233 H130     -0.0039    2.8624    7.1010   H         1 RES1   0.0000
   234 H131     -0.4907    4.5221    7.4583   H         1 RES1   0.0000
   235 H132     -2.2549    2.8256    8.0813   H         1 RES1   0.0000
   236 H133     -1.1147    2.0952    9.2070   H         1 RES1   0.0000
   237 H134     -1.6931    3.7394    9.4819   H         1 RES1   0.0000
   238 H135      2.6282   -0.1583   -0.6330   H         1 RES1   0.0000
   239 H136      4.7794    1.7096    0.4653   H         1 RES1   0.0000
   240 H137      4.6489    1.0740   -1.1792   H         1 RES1   0.0000
   241 H138      5.0521   -0.0026    0.1357   H         1 RES1   0.0000
   242 H139      3.3736    2.8978   -1.3942   H         1 RES1   0.0000
   243 H140      0.6147    4.0790   -1.2394   H         1 RES1   0.0000
   244 H141      2.1869    4.8727   -0.9765   H         1 RES1   0.0000
   245 H142      1.4431    3.9253    0.3005   H         1 RES1   0.0000
   246 H143      1.9889    2.2607   -5.7207   H         1 RES1   0.0000
   247 H144      0.8491    1.1820   -4.8853   H         1 RES1   0.0000
   248 H145      2.9108    0.0244   -5.7109   H         1 RES1   0.0000
   249 H146      2.6343   -0.1460   -3.9747   H         1 RES1   0.0000
   250 H147      4.2878    1.8003   -3.6533   H         1 RES1   0.0000
   251 H148      4.7110    1.6164   -5.3490   H         1 RES1   0.0000
   252 H149      5.4890   -0.6434   -4.9996   H         1 RES1   0.0000
   253 H150      4.7701   -0.7149   -3.3940   H         1 RES1   0.0000
   254 H151      6.3904    1.1697   -2.7158   H         1 RES1   0.0000
   255 H152      7.1972    0.9063   -4.2549   H         1 RES1   0.0000
   256 H153      6.6769   -1.2935   -2.2046   H         1 RES1   0.0000
   257 H154      7.6383   -1.4393   -3.6750   H         1 RES1   0.0000
   258 H155      8.3261    0.4363   -1.3689   H         1 RES1   0.0000
   259 H156      9.3164    0.1128   -2.7902   H         1 RES1   0.0000
   260 H157      9.4545   -2.2954   -2.1258   H         1 RES1   0.0000
   261 H158      8.5000   -1.9423   -0.6896   H         1 RES1   0.0000
   262 H159     10.2944   -0.3429    0.0580   H         1 RES1   0.0000
   263 H160     11.2408   -0.7929   -1.3561   H         1 RES1   0.0000
   264 H161     10.3561   -2.7095    0.8558   H         1 RES1   0.0000
   265 H162     11.9829   -2.0810    0.6272   H         1 RES1   0.0000
   266 H163     11.2827   -3.1636   -0.5711   H         1 RES1   0.0000
   267 H164      1.5450    4.5075   -3.0725   H         1 RES1   0.0000
   268 H165      1.0565    4.1061   -4.7126   H         1 RES1   0.0000
   269 H166      3.4876    4.0938   -5.3750   H         1 RES1   0.0000
   270 H167      3.9022    4.6269   -3.7422   H         1 RES1   0.0000
   271 H168      2.4228    6.6096   -4.0015   H         1 RES1   0.0000
   272 H169      1.9768    6.0777   -5.6246   H         1 RES1   0.0000
   273 H170      4.8158    6.7706   -4.7783   H         1 RES1   0.0000
   274 H171      3.7067    7.8775   -5.5675   H         1 RES1   0.0000
   275 H172      4.2071    7.0419   -7.6144   H         1 RES1   0.0000
   276 H173      3.8309    5.4081   -7.1146   H         1 RES1   0.0000
   277 H174      6.4787    6.8099   -6.6090   H         1 RES1   0.0000
   278 H175      6.1674    5.7303   -7.9625   H         1 RES1   0.0000
   279 H176      5.8084    3.8422   -6.5173   H         1 RES1   0.0000
   280 H177      5.8763    4.8427   -5.0691   H         1 RES1   0.0000
   281 H178      8.2782    4.9881   -6.8327   H         1 RES1   0.0000
   282 H179      8.0119    3.4436   -6.0393   H         1 RES1   0.0000
   283 H180      9.4548    4.7645   -4.6591   H         1 RES1   0.0000
   284 H181      7.9132    4.5767   -3.8310   H         1 RES1   0.0000
   285 H182      8.7785    7.0478   -5.4097   H         1 RES1   0.0000
   286 H183      8.8381    6.8963   -3.6574   H         1 RES1   0.0000
   287 H184      7.2836    6.9074   -4.4813   H         1 RES1   0.0000
   288 C93      -5.4775    5.6420    1.3843   C.3       1 RES1   0.0000
   289 C94      -6.7547    4.8081    1.3175   C.3       1 RES1   0.0000
   290 C95      -7.0076    3.9988    2.5931   C.3       1 RES1   0.0000
   291 C96      -7.9464    2.8194    2.3270   C.3       1 RES1   0.0000
   292 C97      -8.0013    1.7499    3.4385   C.3       1 RES1   0.0000
   293 C98      -7.4766    0.3589    3.0201   C.3       1 RES1   0.0000
   294 C99      -6.1382    0.0104    3.6781   C.3       1 RES1   0.0000
   295 C100     -5.4889   -1.2231    3.0523   C.3       1 RES1   0.0000
   296 C101     -4.0022   -1.3609    3.3864   C.3       1 RES1   0.0000
   297 C102     -3.4688   -2.6019    2.6803   C.3       1 RES1   0.0000
   298 N5       -2.0265   -2.8147    2.5574   N.am      1 RES1   0.0000
   299 C103     -1.2867   -3.2565    3.7548   C.3       1 RES1   0.0000
   300 C104     -2.0297   -4.3066    4.5828   C.3       1 RES1   0.0000
   301 C105     -1.0877   -5.0278    5.5659   C.3       1 RES1   0.0000
   302 C106     -1.6533   -5.1000    6.9856   C.3       1 RES1   0.0000
   303 C107     -0.6285   -5.5688    8.0270   C.3       1 RES1   0.0000
   304 C108      0.0574   -4.4104    8.7512   C.3       1 RES1   0.0000
   305 C109      0.8339   -3.4872    7.8172   C.3       1 RES1   0.0000
   306 C110      1.3097   -2.2175    8.5132   C.3       1 RES1   0.0000
   307 C111      1.9169   -1.2131    7.5196   C.3       1 RES1   0.0000
   308 C112      1.1610    0.1088    7.5359   C.3       1 RES1   0.0000
   309 C113     -1.3550   -2.0170    1.6488   C.2       1 RES1   0.0000
   310 O7       -1.3696   -0.7848    1.6349   O.2       1 RES1   0.0000
   311 C114     -0.7638   -2.6928    0.3888   C.3       1 RES1   0.0000
   312 C115     -1.0831   -4.1682    0.2361   C.3       1 RES1   0.0000
   313 O8        0.6391   -2.3213    0.2857   O.3       1 RES1   0.0000
   314 C116      1.3759   -3.0128   -0.7426   C.3       1 RES1   0.0000
   315 C117      2.8677   -2.7159   -0.5457   C.3       1 RES1   0.0000
   316 C118      0.8499   -2.5276   -2.1024   C.2       1 RES1   0.0000
   317 O9        0.0529   -1.5673   -2.0814   O.2       1 RES1   0.0000
   318 N6        1.2134   -3.1626   -3.2044   N.am      1 RES1   0.0000
   319 C119      0.6190   -2.7446   -4.4727   C.3       1 RES1   0.0000
   320 C120     -0.8732   -3.0831   -4.5583   C.3       1 RES1   0.0000
   321 C121     -1.2080   -4.5370   -4.2275   C.3       1 RES1   0.0000
   322 C122     -2.7032   -4.7094   -3.9905   C.3       1 RES1   0.0000
   323 C123     -3.0540   -6.0799   -3.4186   C.3       1 RES1   0.0000
   324 C124     -4.5020   -6.1185   -2.9380   C.3       1 RES1   0.0000
   325 C125     -4.8810   -7.4459   -2.2817   C.3       1 RES1   0.0000
   326 C126     -6.2707   -7.3662   -1.6504   C.3       1 RES1   0.0000
   327 C127     -6.7140   -8.6769   -1.0069   C.3       1 RES1   0.0000
   328 C128     -8.0611   -8.5331   -0.3130   C.3       1 RES1   0.0000
   329 C129      2.3368   -4.0930   -3.2905   C.3       1 RES1   0.0000
   330 C130      2.0478   -5.4606   -3.9094   C.3       1 RES1   0.0000
   331 C131      3.3640   -6.1115   -4.3516   C.3       1 RES1   0.0000
   332 C132      3.1227   -7.4678   -5.0131   C.3       1 RES1   0.0000
   333 C133      2.4329   -7.3551   -6.3793   C.3       1 RES1   0.0000
   334 C134      1.4112   -8.4641   -6.6158   C.3       1 RES1   0.0000
   335 C135      0.1214   -8.2548   -5.8214   C.3       1 RES1   0.0000
   336 C136     -0.8025   -9.4790   -5.8562   C.3       1 RES1   0.0000
   337 C137     -0.6984  -10.3675   -4.6145   C.3       1 RES1   0.0000
   338 C138      0.6405  -11.0827   -4.4845   C.3       1 RES1   0.0000
   339 H185     -4.6080    5.0233    1.6040   H         1 RES1   0.0000
   340 H186     -5.5572    6.4064    2.1543   H         1 RES1   0.0000
   341 H187     -5.2973    6.1358    0.4317   H         1 RES1   0.0000
   342 H188     -6.6875    4.1262    0.4647   H         1 RES1   0.0000
   343 H189     -7.5947    5.4764    1.1285   H         1 RES1   0.0000
   344 H190     -7.4402    4.6547    3.3469   H         1 RES1   0.0000
   345 H191     -6.0566    3.6324    2.9822   H         1 RES1   0.0000
   346 H192     -7.6374    2.3465    1.3905   H         1 RES1   0.0000
   347 H193     -8.9487    3.2124    2.1567   H         1 RES1   0.0000
   348 H194     -9.0307    1.6388    3.7714   H         1 RES1   0.0000
   349 H195     -7.4321    2.0931    4.3032   H         1 RES1   0.0000
   350 H196     -7.3639    0.3121    1.9350   H         1 RES1   0.0000
   351 H197     -8.2117   -0.4096    3.2698   H         1 RES1   0.0000
   352 H198     -6.2958   -0.1646    4.7403   H         1 RES1   0.0000
   353 H199     -5.4614    0.8549    3.5842   H         1 RES1   0.0000
   354 H200     -5.5996   -1.1804    1.9641   H         1 RES1   0.0000
   355 H201     -6.0086   -2.1219    3.3765   H         1 RES1   0.0000
   356 H202     -3.8646   -1.4524    4.4644   H         1 RES1   0.0000
   357 H203     -3.4424   -0.4889    3.0446   H         1 RES1   0.0000
   358 H204     -3.8557   -2.6138    1.6560   H         1 RES1   0.0000
   359 H205     -3.8636   -3.4887    3.1747   H         1 RES1   0.0000
   360 H206     -1.0581   -2.3914    4.3878   H         1 RES1   0.0000
   361 H207     -0.3401   -3.6695    3.4000   H         1 RES1   0.0000
   362 H208     -2.4867   -5.0355    3.9164   H         1 RES1   0.0000
   363 H209     -2.8275   -3.8201    5.1483   H         1 RES1   0.0000
   364 H210     -0.1246   -4.5221    5.5787   H         1 RES1   0.0000
   365 H211     -0.9036   -6.0438    5.2211   H         1 RES1   0.0000
   366 H212     -2.5127   -5.7716    6.9855   H         1 RES1   0.0000
   367 H213     -2.0204   -4.1159    7.2799   H         1 RES1   0.0000
   368 H214      0.1209   -6.2029    7.5509   H         1 RES1   0.0000
   369 H215     -1.1356   -6.1788    8.7748   H         1 RES1   0.0000
   370 H216      0.7412   -4.8110    9.4997   H         1 RES1   0.0000
   371 H217     -0.6976   -3.8287    9.2831   H         1 RES1   0.0000
   372 H218      0.1956   -3.1755    6.9905   H         1 RES1   0.0000
   373 H219      1.6891   -4.0289    7.4073   H         1 RES1   0.0000
   374 H220      2.0274   -2.4685    9.2906   H         1 RES1   0.0000
   375 H221      0.4492   -1.7556    9.0002   H         1 RES1   0.0000
   376 H222      1.8846   -1.6355    6.5098   H         1 RES1   0.0000
   377 H223      2.9648   -1.0293    7.7609   H         1 RES1   0.0000
   378 H224      0.1126   -0.0510    7.2919   H         1 RES1   0.0000
   379 H225      1.5764    0.8118    6.8186   H         1 RES1   0.0000
   380 H226      1.2224    0.5583    8.5233   H         1 RES1   0.0000
   381 H227     -1.2909   -2.1483   -0.4273   H         1 RES1   0.0000
   382 H228     -0.3813   -4.7820    0.7883   H         1 RES1   0.0000
   383 H229     -1.0707   -4.4593   -0.8127   H         1 RES1   0.0000
   384 H230     -2.0837   -4.3563    0.6160   H         1 RES1   0.0000
   385 H231      1.1955   -4.0870   -0.6334   H         1 RES1   0.0000
   386 H232      3.2491   -2.0677   -1.3288   H         1 RES1   0.0000
   387 H233      3.4704   -3.6234   -0.5332   H         1 RES1   0.0000
   388 H234      2.9767   -2.2349    0.4167   H         1 RES1   0.0000
   389 H235      1.1646   -3.2317   -5.2755   H         1 RES1   0.0000
   390 H236      0.7418   -1.6604   -4.5724   H         1 RES1   0.0000
   391 H237     -1.2158   -2.8542   -5.5696   H         1 RES1   0.0000
   392 H238     -1.4076   -2.4272   -3.8661   H         1 RES1   0.0000
   393 H239     -0.6735   -4.8367   -3.3246   H         1 RES1   0.0000
   394 H240     -0.8911   -5.1931   -5.0375   H         1 RES1   0.0000
   395 H241     -3.0460   -3.9409   -3.2893   H         1 RES1   0.0000
   396 H242     -3.2379   -4.5610   -4.9280   H         1 RES1   0.0000
   397 H243     -2.3951   -6.3137   -2.5779   H         1 RES1   0.0000
   398 H244     -2.8962   -6.8465   -4.1745   H         1 RES1   0.0000
   399 H245     -5.1654   -5.9362   -3.7850   H         1 RES1   0.0000
   400 H246     -4.6578   -5.3082   -2.2161   H         1 RES1   0.0000
   401 H247     -4.1451   -7.6980   -1.5134   H         1 RES1   0.0000
   402 H248     -4.8645   -8.2400   -3.0303   H         1 RES1   0.0000
   403 H249     -6.9961   -7.0866   -2.4171   H         1 RES1   0.0000
   404 H250     -6.2694   -6.5751   -0.8944   H         1 RES1   0.0000
   405 H251     -5.9640   -9.0009   -0.2835   H         1 RES1   0.0000
   406 H252     -6.7829   -9.4477   -1.7745   H         1 RES1   0.0000
   407 H253     -8.0100   -7.7924    0.4813   H         1 RES1   0.0000
   408 H254     -8.3684   -9.4762    0.1267   H         1 RES1   0.0000
   409 H255     -8.8240   -8.2194   -1.0197   H         1 RES1   0.0000
   410 H256      2.7373   -4.2807   -2.3018   H         1 RES1   0.0000
   411 H257      3.1124   -3.5984   -3.8871   H         1 RES1   0.0000
   412 H258      1.3908   -5.3695   -4.7699   H         1 RES1   0.0000
   413 H259      1.5560   -6.1156   -3.1841   H         1 RES1   0.0000
   414 H260      4.0121   -6.2338   -3.4793   H         1 RES1   0.0000
   415 H261      3.8774   -5.4566   -5.0621   H         1 RES1   0.0000
   416 H262      2.5226   -8.0817   -4.3389   H         1 RES1   0.0000
   417 H263      4.0844   -7.9643   -5.1453   H         1 RES1   0.0000
   418 H264      3.1911   -7.4015   -7.1585   H         1 RES1   0.0000
   419 H265      1.9283   -6.3929   -6.4839   H         1 RES1   0.0000
   420 H266      1.8659   -9.4183   -6.3548   H         1 RES1   0.0000
   421 H267      1.1550   -8.4948   -7.6756   H         1 RES1   0.0000
   422 H268     -0.4041   -7.3947   -6.2483   H         1 RES1   0.0000
   423 H269      0.3527   -8.0107   -4.7819   H         1 RES1   0.0000
   424 H270     -0.5706  -10.0736   -6.7400   H         1 RES1   0.0000
   425 H271     -1.8395   -9.1486   -5.9519   H         1 RES1   0.0000
   426 H272     -1.4869  -11.1200   -4.6684   H         1 RES1   0.0000
   427 H273     -0.8884   -9.7653   -3.7205   H         1 RES1   0.0000
   428 H274      0.8330  -11.6743   -5.3749   H         1 RES1   0.0000
   429 H275      0.6273  -11.7526   -3.6288   H         1 RES1   0.0000
   430 H276      1.4596  -10.3810   -4.3503   H         1 RES1   0.0000
@<TRIPOS>BOND
     1     1    24    1
     2     1    27    1
     3     1    31    1
     4     1   167    1
     5     1   170    1
     6     1   174    1
     7     1   310    1
     8     1   313    1
     9     1   317    1
    10     2     3    1
    11     2    53    1
    12     2    54    1
    13     2    55    1
    14     3     4    1
    15     3    56    1
    16     3    57    1
    17     4     5    1
    18     4    58    1
    19     4    59    1
    20     5     6    1
    21     5    60    1
    22     5    61    1
    23     6     7    1
    24     6    62    1
    25     6    63    1
    26     7     8    1
    27     7    64    1
    28     7    65    1
    29     8     9    1
    30     8    66    1
    31     8    67    1
    32     9    10    1
    33     9    68    1
    34     9    69    1
    35    10    11    1
    36    10    70    1
    37    10    71    1
    38    11    12    1
    39    11    72    1
    40    11    73    1
    41    12    13    1
    42    12    23    1
    43    13    14    1
    44    13    74    1
    45    13    75    1
    46    14    15    1
    47    14    76    1
    48    14    77    1
    49    15    16    1
    50    15    78    1
    51    15    79    1
    52    16    17    1
    53    16    80    1
    54    16    81    1
    55    17    18    1
    56    17    82    1
    57    17    83    1
    58    18    19    1
    59    18    84    1
    60    18    85    1
    61    19    20    1
    62    19    86    1
    63    19    87    1
    64    20    21    1
    65    20    88    1
    66    20    89    1
    67    21    22    1
    68    21    90    1
    69    21    91    1
    70    22    92    1
    71    22    93    1
    72    22    94    1
    73    23    24    2
    74    23    25    1
    75    25    26    1
    76    25    27    1
    77    25    95    1
    78    26    96    1
    79    26    97    1
    80    26    98    1
    81    27    28    1
    82    28    29    1
    83    28    30    1
    84    28    99    1
    85    29   100    1
    86    29   101    1
    87    29   102    1
    88    30    31    2
    89    30    32    1
    90    32    33    1
    91    32    43    1
    92    33    34    1
    93    33   103    1
    94    33   104    1
    95    34    35    1
    96    34   105    1
    97    34   106    1
    98    35    36    1
    99    35   107    1
   100    35   108    1
   101    36    37    1
   102    36   109    1
   103    36   110    1
   104    37    38    1
   105    37   111    1
   106    37   112    1
   107    38    39    1
   108    38   113    1
   109    38   114    1
   110    39    40    1
   111    39   115    1
   112    39   116    1
   113    40    41    1
   114    40   117    1
   115    40   118    1
   116    41    42    1
   117    41   119    1
   118    41   120    1
   119    42   121    1
   120    42   122    1
   121    42   123    1
   122    43    44    1
   123    43   124    1
   124    43   125    1
   125    44    45    1
   126    44   126    1
   127    44   127    1
   128    45    46    1
   129    45   128    1
   130    45   129    1
   131    46    47    1
   132    46   130    1
   133    46   131    1
   134    47    48    1
   135    47   132    1
   136    47   133    1
   137    48    49    1
   138    48   134    1
   139    48   135    1
   140    49    50    1
   141    49   136    1
   142    49   137    1
   143    50    51    1
   144    50   138    1
   145    50   139    1
   146    51    52    1
   147    51   140    1
   148    51   141    1
   149    52   142    1
   150    52   143    1
   151    52   144    1
   152   145   146    1
   153   145   196    1
   154   145   197    1
   155   145   198    1
   156   146   147    1
   157   146   199    1
   158   146   200    1
   159   147   148    1
   160   147   201    1
   161   147   202    1
   162   148   149    1
   163   148   203    1
   164   148   204    1
   165   149   150    1
   166   149   205    1
   167   149   206    1
   168   150   151    1
   169   150   207    1
   170   150   208    1
   171   151   152    1
   172   151   209    1
   173   151   210    1
   174   152   153    1
   175   152   211    1
   176   152   212    1
   177   153   154    1
   178   153   213    1
   179   153   214    1
   180   154   155    1
   181   154   215    1
   182   154   216    1
   183   155   156    1
   184   155   166    1
   185   156   157    1
   186   156   217    1
   187   156   218    1
   188   157   158    1
   189   157   219    1
   190   157   220    1
   191   158   159    1
   192   158   221    1
   193   158   222    1
   194   159   160    1
   195   159   223    1
   196   159   224    1
   197   160   161    1
   198   160   225    1
   199   160   226    1
   200   161   162    1
   201   161   227    1
   202   161   228    1
   203   162   163    1
   204   162   229    1
   205   162   230    1
   206   163   164    1
   207   163   231    1
   208   163   232    1
   209   164   165    1
   210   164   233    1
   211   164   234    1
   212   165   235    1
   213   165   236    1
   214   165   237    1
   215   166   167    2
   216   166   168    1
   217   168   169    1
   218   168   170    1
   219   168   238    1
   220   169   239    1
   221   169   240    1
   222   169   241    1
   223   170   171    1
   224   171   172    1
   225   171   173    1
   226   171   242    1
   227   172   243    1
   228   172   244    1
   229   172   245    1
   230   173   174    2
   231   173   175    1
   232   175   176    1
   233   175   186    1
   234   176   177    1
   235   176   246    1
   236   176   247    1
   237   177   178    1
   238   177   248    1
   239   177   249    1
   240   178   179    1
   241   178   250    1
   242   178   251    1
   243   179   180    1
   244   179   252    1
   245   179   253    1
   246   180   181    1
   247   180   254    1
   248   180   255    1
   249   181   182    1
   250   181   256    1
   251   181   257    1
   252   182   183    1
   253   182   258    1
   254   182   259    1
   255   183   184    1
   256   183   260    1
   257   183   261    1
   258   184   185    1
   259   184   262    1
   260   184   263    1
   261   185   264    1
   262   185   265    1
   263   185   266    1
   264   186   187    1
   265   186   267    1
   266   186   268    1
   267   187   188    1
   268   187   269    1
   269   187   270    1
   270   188   189    1
   271   188   271    1
   272   188   272    1
   273   189   190    1
   274   189   273    1
   275   189   274    1
   276   190   191    1
   277   190   275    1
   278   190   276    1
   279   191   192    1
   280   191   277    1
   281   191   278    1
   282   192   193    1
   283   192   279    1
   284   192   280    1
   285   193   194    1
   286   193   281    1
   287   193   282    1
   288   194   195    1
   289   194   283    1
   290   194   284    1
   291   195   285    1
   292   195   286    1
   293   195   287    1
   294   288   289    1
   295   288   339    1
   296   288   340    1
   297   288   341    1
   298   289   290    1
   299   289   342    1
   300   289   343    1
   301   290   291    1
   302   290   344    1
   303   290   345    1
   304   291   292    1
   305   291   346    1
   306   291   347    1
   307   292   293    1
   308   292   348    1
   309   292   349    1
   310   293   294    1
   311   293   350    1
   312   293   351    1
   313   294   295    1
   314   294   352    1
   315   294   353    1
   316   295   296    1
   317   295   354    1
   318   295   355    1
   319   296   297    1
   320   296   356    1
   321   296   357    1
   322   297   298    1
   323   297   358    1
   324   297   359    1
   325   298   299    1
   326   298   309    1
   327   299   300    1
   328   299   360    1
   329   299   361    1
   330   300   301    1
   331   300   362    1
   332   300   363    1
   333   301   302    1
   334   301   364    1
   335   301   365    1
   336   302   303    1
   337   302   366    1
   338   302   367    1
   339   303   304    1
   340   303   368    1
   341   303   369    1
   342   304   305    1
   343   304   370    1
   344   304   371    1
   345   305   306    1
   346   305   372    1
   347   305   373    1
   348   306   307    1
   349   306   374    1
   350   306   375    1
   351   307   308    1
   352   307   376    1
   353   307   377    1
   354   308   378    1
   355   308   379    1
   356   308   380    1
   357   309   310    2
   358   309   311    1
   359   311   312    1
   360   311   313    1
   361   311   381    1
   362   312   382    1
   363   312   383    1
   364   312   384    1
   365   313   314    1
   366   314   315    1
   367   314   316    1
   368   314   385    1
   369   315   386    1
   370   315   387    1
   371   315   388    1
   372   316   317    2
   373   316   318    1
   374   318   319    1
   375   318   329    1
   376   319   320    1
   377   319   389    1
   378   319   390    1
   379   320   321    1
   380   320   391    1
   381   320   392    1
   382   321   322    1
   383   321   393    1
   384   321   394    1
   385   322   323    1
   386   322   395    1
   387   322   396    1
   388   323   324    1
   389   323   397    1
   390   323   398    1
   391   324   325    1
   392   324   399    1
   393   324   400    1
   394   325   326    1
   395   325   401    1
   396   325   402    1
   397   326   327    1
   398   326   403    1
   399   326   404    1
   400   327   328    1
   401   327   405    1
   402   327   406    1
   403   328   407    1
   404   328   408    1
   405   328   409    1
   406   329   330    1
   407   329   410    1
   408   329   411    1
   409   330   331    1
   410   330   412    1
   411   330   413    1
   412   331   332    1
   413   331   414    1
   414   331   415    1
   415   332   333    1
   416   332   416    1
   417   332   417    1
   418   333   334    1
   419   333   418    1
   420   333   419    1
   421   334   335    1
   422   334   420    1
   423   334   421    1
   424   335   336    1
   425   335   422    1
   426   335   423    1
   427   336   337    1
   428   336   424    1
   429   336   425    1
   430   337   338    1
   431   337   426    1
   432   337   427    1
   433   338   428    1
   434   338   429    1
   435   338   430    1
@<TRIPOS>SUBSTRUCTURE
     1 RES1      430 GROUP             0 ****  ****    0  
