@<TRIPOS>MOLECULE
am_c3_9H2O_c0_0_nunpairedes_0_charge_3 Charge: 3 Unpaired_Electrons: 1 XTB_Unpaired_Electrons: 0 XTB_Charge: 3
   277   282     1     0     0
SMALL
NoCharges
****
Generated from Architector

@<TRIPOS>ATOM
     1 Ce1      -0.1269   -0.0262   -0.0857   Ce        1 RES1   0.0000
     2 C1        0.1012   -7.1786   -2.3716   C.3       1 RES1   0.0000
     3 C2       -0.4801   -7.0506   -3.7742   C.3       1 RES1   0.0000
     4 C3       -1.6738   -6.0982   -3.8384   C.3       1 RES1   0.0000
     5 C4       -1.2832   -4.6197   -3.7688   C.3       1 RES1   0.0000
     6 C5       -2.5232   -3.7319   -3.8623   C.3       1 RES1   0.0000
     7 C6       -2.2337   -2.2375   -3.7117   C.3       1 RES1   0.0000
     8 C7       -3.5382   -1.4422   -3.6199   C.3       1 RES1   0.0000
     9 C8       -4.2747   -1.7291   -2.2998   C.3       1 RES1   0.0000
    10 N1       -4.5897   -0.5350   -1.5098   N.am      1 RES1   0.0000
    11 C9       -6.0002   -0.2167   -1.4246   C.3       1 RES1   0.0000
    12 C10      -3.5610    0.0725   -0.9237   C.2       1 RES1   0.0000
    13 O1       -2.3947   -0.3097   -1.1346   O.2       1 RES1   0.0000
    14 C11      -3.8477    1.1813    0.0995   C.3       1 RES1   0.0000
    15 C12      -3.8628    0.5817    1.5253   C.3       1 RES1   0.0000
    16 C13      -3.1903   -0.7794    1.7554   C.3       1 RES1   0.0000
    17 O2       -1.8084   -0.7174    2.1534   O.3       1 RES1   0.0000
    18 C14      -1.5255   -1.7540    3.1113   C.3       1 RES1   0.0000
    19 C15      -0.3139   -1.5445    4.0148   C.3       1 RES1   0.0000
    20 C16       0.0324   -2.9178    4.6190   C.3       1 RES1   0.0000
    21 C17       1.4541   -3.1005    5.1640   C.3       1 RES1   0.0000
    22 C18       1.6386   -2.7755    6.6511   C.3       1 RES1   0.0000
    23 C19       2.1038   -1.3433    6.8772   C.3       1 RES1   0.0000
    24 C20      -2.8071    2.2602   -0.1355   C.2       1 RES1   0.0000
    25 O3       -1.6041    1.9639   -0.2216   O.2       1 RES1   0.0000
    26 N2       -3.2431    3.5058   -0.3480   N.am      1 RES1   0.0000
    27 C21      -4.5526    3.9678    0.0775   C.3       1 RES1   0.0000
    28 C22      -2.5012    4.4187   -1.2213   C.3       1 RES1   0.0000
    29 C23      -1.6327    5.5219   -0.6059   C.3       1 RES1   0.0000
    30 C24      -2.3010    6.4129    0.4352   C.3       1 RES1   0.0000
    31 C25      -1.3446    7.5168    0.8822   C.3       1 RES1   0.0000
    32 C26      -0.2356    7.0196    1.8065   C.3       1 RES1   0.0000
    33 C27       0.4592    8.1738    2.5449   C.3       1 RES1   0.0000
    34 C28       0.0053    8.3285    3.9960   C.3       1 RES1   0.0000
    35 C29      -1.4594    8.7128    4.1277   C.3       1 RES1   0.0000
    36 H1        0.9495   -7.8561   -2.3814   H         1 RES1   0.0000
    37 H2       -0.6475   -7.5828   -1.6934   H         1 RES1   0.0000
    38 H3        0.4300   -6.2070   -2.0044   H         1 RES1   0.0000
    39 H4       -0.8096   -8.0327   -4.1101   H         1 RES1   0.0000
    40 H5        0.2879   -6.7063   -4.4694   H         1 RES1   0.0000
    41 H6       -2.3689   -6.3300   -3.0258   H         1 RES1   0.0000
    42 H7       -2.2066   -6.2568   -4.7779   H         1 RES1   0.0000
    43 H8       -0.6016   -4.3850   -4.5894   H         1 RES1   0.0000
    44 H9       -0.7550   -4.4058   -2.8332   H         1 RES1   0.0000
    45 H10      -3.2312   -4.0556   -3.0945   H         1 RES1   0.0000
    46 H11      -3.0024   -3.8948   -4.8293   H         1 RES1   0.0000
    47 H12      -1.6678   -1.8945   -4.5802   H         1 RES1   0.0000
    48 H13      -1.6262   -2.0433   -2.8158   H         1 RES1   0.0000
    49 H14      -4.1666   -1.6980   -4.4741   H         1 RES1   0.0000
    50 H15      -3.3099   -0.3805   -3.6840   H         1 RES1   0.0000
    51 H16      -3.6206   -2.3530   -1.6823   H         1 RES1   0.0000
    52 H17      -5.2031   -2.2690   -2.4826   H         1 RES1   0.0000
    53 H18      -6.5408   -1.0421   -0.9567   H         1 RES1   0.0000
    54 H19      -6.3909   -0.0564   -2.4302   H         1 RES1   0.0000
    55 H20      -6.2148    0.6735   -0.8459   H         1 RES1   0.0000
    56 H21      -4.8148    1.6264   -0.1106   H         1 RES1   0.0000
    57 H22      -4.9113    0.4489    1.7925   H         1 RES1   0.0000
    58 H23      -3.4457    1.2886    2.2388   H         1 RES1   0.0000
    59 H24      -3.7472   -1.2419    2.5781   H         1 RES1   0.0000
    60 H25      -3.2649   -1.4372    0.8853   H         1 RES1   0.0000
    61 H26      -1.4078   -2.6916    2.5630   H         1 RES1   0.0000
    62 H27      -2.3952   -1.8824    3.7612   H         1 RES1   0.0000
    63 H28      -0.5758   -0.8574    4.8158   H         1 RES1   0.0000
    64 H29       0.5224   -1.1107    3.4635   H         1 RES1   0.0000
    65 H30      -0.1174   -3.6775    3.8479   H         1 RES1   0.0000
    66 H31      -0.6865   -3.1441    5.4065   H         1 RES1   0.0000
    67 H32       2.1457   -2.4949    4.5784   H         1 RES1   0.0000
    68 H33       1.7391   -4.1420    5.0015   H         1 RES1   0.0000
    69 H34       2.3792   -3.4664    7.0608   H         1 RES1   0.0000
    70 H35       0.7025   -2.9475    7.1841   H         1 RES1   0.0000
    71 H36       3.0945   -1.2085    6.4464   H         1 RES1   0.0000
    72 H37       2.1706   -1.1324    7.9401   H         1 RES1   0.0000
    73 H38       1.4117   -0.6380    6.4185   H         1 RES1   0.0000
    74 H39      -5.3282    3.7999   -0.6715   H         1 RES1   0.0000
    75 H40      -4.4951    5.0382    0.2562   H         1 RES1   0.0000
    76 H41      -4.8607    3.4862    1.0021   H         1 RES1   0.0000
    77 H42      -3.2609    4.8907   -1.8484   H         1 RES1   0.0000
    78 H43      -1.8571    3.7964   -1.8478   H         1 RES1   0.0000
    79 H44      -1.3286    6.1678   -1.4367   H         1 RES1   0.0000
    80 H45      -0.7310    5.0798   -0.1904   H         1 RES1   0.0000
    81 H46      -2.6164    5.8312    1.3052   H         1 RES1   0.0000
    82 H47      -3.1785    6.8770   -0.0155   H         1 RES1   0.0000
    83 H48      -1.9093    8.2853    1.4015   H         1 RES1   0.0000
    84 H49      -0.9024    7.9861    0.0024   H         1 RES1   0.0000
    85 H50       0.5073    6.4658    1.2240   H         1 RES1   0.0000
    86 H51      -0.6667    6.3307    2.5387   H         1 RES1   0.0000
    87 H52       1.5379    8.0123    2.5421   H         1 RES1   0.0000
    88 H53       0.2763    9.1083    2.0122   H         1 RES1   0.0000
    89 H54       0.6156    9.1002    4.4640   H         1 RES1   0.0000
    90 H55       0.1974    7.4004    4.5389   H         1 RES1   0.0000
    91 H56      -1.6481    9.6440    3.6051   H         1 RES1   0.0000
    92 H57      -1.7238    8.8524    5.1698   H         1 RES1   0.0000
    93 H58      -2.1152    7.9520    3.7166   H         1 RES1   0.0000
    94 C30       6.2483    3.2829   -3.6559   C.3       1 RES1   0.0000
    95 C31       6.2742    2.5116   -4.9736   C.3       1 RES1   0.0000
    96 C32       5.8426    1.0495   -4.8404   C.3       1 RES1   0.0000
    97 C33       4.3474    0.8598   -4.5848   C.3       1 RES1   0.0000
    98 C34       3.9633   -0.6212   -4.5838   C.3       1 RES1   0.0000
    99 C35       2.5107   -0.8364   -4.1505   C.3       1 RES1   0.0000
   100 C36       2.0646   -2.3005   -4.1415   C.3       1 RES1   0.0000
   101 C37       2.8894   -3.2310   -3.2597   C.3       1 RES1   0.0000
   102 N3        2.6694   -3.3129   -1.8037   N.am      1 RES1   0.0000
   103 C38       3.5930   -4.2835   -1.2313   C.3       1 RES1   0.0000
   104 C39       1.7001   -2.7246   -1.0977   C.2       1 RES1   0.0000
   105 O4        1.0092   -1.7858   -1.5188   O.2       1 RES1   0.0000
   106 C40       1.3769   -3.3885    0.2704   C.3       1 RES1   0.0000
   107 C41       1.8880   -2.7673    1.5993   C.3       1 RES1   0.0000
   108 C42       2.7989   -1.5359    1.4666   C.3       1 RES1   0.0000
   109 O5        2.3687   -0.3648    2.1784   O.3       1 RES1   0.0000
   110 C43       3.2523   -0.0529    3.2841   C.3       1 RES1   0.0000
   111 C44       3.3327    1.3972    3.7629   C.3       1 RES1   0.0000
   112 C45       2.2359    1.9583    4.6634   C.3       1 RES1   0.0000
   113 C46       2.6084    3.4008    5.0493   C.3       1 RES1   0.0000
   114 C47       1.9987    3.9049    6.3593   C.3       1 RES1   0.0000
   115 C48       0.4886    4.0938    6.3607   C.3       1 RES1   0.0000
   116 C49      -0.1468   -3.4353    0.3218   C.2       1 RES1   0.0000
   117 O6       -0.8206   -2.4011    0.1501   O.2       1 RES1   0.0000
   118 N4       -0.7176   -4.6199    0.5393   N.am      1 RES1   0.0000
   119 C50      -0.0542   -5.7494    1.1663   C.3       1 RES1   0.0000
   120 C51      -2.0856   -4.8334    0.0782   C.3       1 RES1   0.0000
   121 C52      -3.2211   -4.4112    1.0213   C.3       1 RES1   0.0000
   122 C53      -3.9896   -5.5830    1.6353   C.3       1 RES1   0.0000
   123 C54      -5.3766   -5.1676    2.1314   C.3       1 RES1   0.0000
   124 C55      -5.3464   -3.9623    3.0698   C.3       1 RES1   0.0000
   125 C56      -6.6839   -3.7346    3.7880   C.3       1 RES1   0.0000
   126 C57      -6.6440   -4.1010    5.2713   C.3       1 RES1   0.0000
   127 C58      -6.2144   -5.5385    5.5274   C.3       1 RES1   0.0000
   128 H59       6.6043    4.2993   -3.8166   H         1 RES1   0.0000
   129 H60       6.9116    2.8025   -2.9345   H         1 RES1   0.0000
   130 H61       5.2337    3.3288   -3.2512   H         1 RES1   0.0000
   131 H62       7.2942    2.5291   -5.3611   H         1 RES1   0.0000
   132 H63       5.6355    3.0120   -5.7048   H         1 RES1   0.0000
   133 H64       6.4084    0.5771   -4.0329   H         1 RES1   0.0000
   134 H65       6.1029    0.5324   -5.7647   H         1 RES1   0.0000
   135 H66       3.7802    1.3808   -5.3577   H         1 RES1   0.0000
   136 H67       4.0746    1.2986   -3.6198   H         1 RES1   0.0000
   137 H68       4.6491   -1.1524   -3.9192   H         1 RES1   0.0000
   138 H69       4.1052   -1.0345   -5.5835   H         1 RES1   0.0000
   139 H70       1.8638   -0.3186   -4.8617   H         1 RES1   0.0000
   140 H71       2.3378   -0.4010   -3.1608   H         1 RES1   0.0000
   141 H72       2.1786   -2.6939   -5.1551   H         1 RES1   0.0000
   142 H73       1.0078   -2.3449   -3.8816   H         1 RES1   0.0000
   143 H74       3.9452   -2.9911   -3.4110   H         1 RES1   0.0000
   144 H75       2.7375   -4.2528   -3.6259   H         1 RES1   0.0000
   145 H76       4.4957   -4.2945   -1.8424   H         1 RES1   0.0000
   146 H77       3.1753   -5.2921   -1.2376   H         1 RES1   0.0000
   147 H78       3.8786   -4.0251   -0.2144   H         1 RES1   0.0000
   148 H79       1.7432   -4.4072    0.1965   H         1 RES1   0.0000
   149 H80       2.4106   -3.5528    2.1494   H         1 RES1   0.0000
   150 H81       1.0304   -2.4896    2.2061   H         1 RES1   0.0000
   151 H82       2.8526   -1.2578    0.4124   H         1 RES1   0.0000
   152 H83       3.7921   -1.8056    1.8161   H         1 RES1   0.0000
   153 H84       4.2691   -0.2821    2.9501   H         1 RES1   0.0000
   154 H85       3.0143   -0.7078    4.1281   H         1 RES1   0.0000
   155 H86       3.4621    2.0533    2.9059   H         1 RES1   0.0000
   156 H87       4.2522    1.4494    4.3525   H         1 RES1   0.0000
   157 H88       2.1768    1.3475    5.5661   H         1 RES1   0.0000
   158 H89       1.2715    1.9308    4.1641   H         1 RES1   0.0000
   159 H90       2.3561    4.0933    4.2382   H         1 RES1   0.0000
   160 H91       3.6930    3.4335    5.1851   H         1 RES1   0.0000
   161 H92       2.4753    4.8611    6.5850   H         1 RES1   0.0000
   162 H93       2.2745    3.2162    7.1586   H         1 RES1   0.0000
   163 H94       0.1945    4.8385    5.6252   H         1 RES1   0.0000
   164 H95       0.1884    4.4464    7.3437   H         1 RES1   0.0000
   165 H96      -0.0259    3.1620    6.1416   H         1 RES1   0.0000
   166 H97       0.2856   -6.4820    0.4301   H         1 RES1   0.0000
   167 H98      -0.7743   -6.2321    1.8278   H         1 RES1   0.0000
   168 H99       0.7907   -5.4291    1.7735   H         1 RES1   0.0000
   169 H100     -2.1727   -5.8972   -0.1356   H         1 RES1   0.0000
   170 H101     -2.1778   -4.2867   -0.8621   H         1 RES1   0.0000
   171 H102     -3.9190   -3.8040    0.4432   H         1 RES1   0.0000
   172 H103     -2.8347   -3.7836    1.8189   H         1 RES1   0.0000
   173 H104     -3.4248   -6.0120    2.4657   H         1 RES1   0.0000
   174 H105     -4.1160   -6.3597    0.8804   H         1 RES1   0.0000
   175 H106     -5.8179   -6.0173    2.6483   H         1 RES1   0.0000
   176 H107     -6.0185   -4.9374    1.2778   H         1 RES1   0.0000
   177 H108     -5.0913   -3.0771    2.4833   H         1 RES1   0.0000
   178 H109     -4.5563   -4.1043    3.8087   H         1 RES1   0.0000
   179 H110     -7.4630   -4.3168    3.2969   H         1 RES1   0.0000
   180 H111     -6.9672   -2.6845    3.7049   H         1 RES1   0.0000
   181 H112     -7.6376   -3.9505    5.6933   H         1 RES1   0.0000
   182 H113     -5.9667   -3.4229    5.7949   H         1 RES1   0.0000
   183 H114     -6.8617   -6.2306    4.9977   H         1 RES1   0.0000
   184 H115     -6.2707   -5.7659    6.5875   H         1 RES1   0.0000
   185 H116     -5.1907   -5.7159    5.2085   H         1 RES1   0.0000
   186 C59      -6.8947    3.5658   -3.0385   C.3       1 RES1   0.0000
   187 C60      -6.3862    3.5758   -4.4803   C.3       1 RES1   0.0000
   188 C61      -4.8923    3.8788   -4.6266   C.3       1 RES1   0.0000
   189 C62      -3.9712    2.7553   -4.1472   C.3       1 RES1   0.0000
   190 C63      -2.5177    3.0223   -4.5428   C.3       1 RES1   0.0000
   191 C64      -1.5560    1.9458   -4.0307   C.3       1 RES1   0.0000
   192 C65      -0.0910    2.1715   -4.4245   C.3       1 RES1   0.0000
   193 C66       0.5421    3.4753   -3.9335   C.3       1 RES1   0.0000
   194 N5        1.2521    3.5208   -2.6401   N.am      1 RES1   0.0000
   195 C67       1.9641    4.7801   -2.4874   C.3       1 RES1   0.0000
   196 C68       1.3124    2.5506   -1.7278   C.2       1 RES1   0.0000
   197 O7        0.5152    1.5981   -1.7177   O.2       1 RES1   0.0000
   198 C69       2.4717    2.6372   -0.7041   C.3       1 RES1   0.0000
   199 C70       2.0907    3.0141    0.7496   C.3       1 RES1   0.0000
   200 C71       0.6126    3.2200    1.0620   C.3       1 RES1   0.0000
   201 O8        0.1447    2.1905    1.9478   O.3       1 RES1   0.0000
   202 C72      -0.8632    2.7500    2.8085   C.3       1 RES1   0.0000
   203 C73      -1.3892    1.7963    3.8826   C.3       1 RES1   0.0000
   204 C74      -2.6745    2.3575    4.5195   C.3       1 RES1   0.0000
   205 C75      -3.6407    1.3421    5.1574   C.3       1 RES1   0.0000
   206 C76      -3.4009    0.9344    6.6183   C.3       1 RES1   0.0000
   207 C77      -2.6108   -0.3521    6.8187   C.3       1 RES1   0.0000
   208 C78       3.0908    1.2412   -0.6562   C.2       1 RES1   0.0000
   209 O9        2.3446    0.2494   -0.6766   O.2       1 RES1   0.0000
   210 N6        4.4187    1.1205   -0.5789   N.am      1 RES1   0.0000
   211 C79       5.2972    2.2065   -0.1787   C.3       1 RES1   0.0000
   212 C80       5.0848   -0.0490   -1.1652   C.3       1 RES1   0.0000
   213 C81       5.6234   -1.1995   -0.2997   C.3       1 RES1   0.0000
   214 C82       6.4357   -0.8636    0.9479   C.3       1 RES1   0.0000
   215 C83       6.9599   -2.1459    1.6065   C.3       1 RES1   0.0000
   216 C84       5.8980   -2.9600    2.3417   C.3       1 RES1   0.0000
   217 C85       6.4593   -4.2014    3.0490   C.3       1 RES1   0.0000
   218 C86       6.4869   -4.0648    4.5709   C.3       1 RES1   0.0000
   219 C87       7.4709   -3.0022    5.0428   C.3       1 RES1   0.0000
   220 H117     -7.9621    3.3448   -3.0291   H         1 RES1   0.0000
   221 H118     -6.7512    4.5446   -2.5771   H         1 RES1   0.0000
   222 H119     -6.3811    2.8013   -2.4490   H         1 RES1   0.0000
   223 H120     -6.9417    4.3366   -5.0328   H         1 RES1   0.0000
   224 H121     -6.6045    2.6111   -4.9450   H         1 RES1   0.0000
   225 H122     -4.6591    4.8025   -4.0921   H         1 RES1   0.0000
   226 H123     -4.6942    4.0566   -5.6844   H         1 RES1   0.0000
   227 H124     -4.2987    1.8128   -4.5894   H         1 RES1   0.0000
   228 H125     -4.0361    2.6527   -3.0603   H         1 RES1   0.0000
   229 H126     -2.2353    4.0077   -4.1673   H         1 RES1   0.0000
   230 H127     -2.4467    3.0634   -5.6307   H         1 RES1   0.0000
   231 H128     -1.8514    0.9931   -4.4747   H         1 RES1   0.0000
   232 H129     -1.6255    1.8367   -2.9425   H         1 RES1   0.0000
   233 H130     -0.0406    2.2029   -5.5159   H         1 RES1   0.0000
   234 H131      0.5003    1.3162   -4.0963   H         1 RES1   0.0000
   235 H132     -0.2166    4.2654   -3.9324   H         1 RES1   0.0000
   236 H133      1.3022    3.7594   -4.6702   H         1 RES1   0.0000
   237 H134      1.5094    5.5105   -3.1555   H         1 RES1   0.0000
   238 H135      3.0156    4.6878   -2.7623   H         1 RES1   0.0000
   239 H136      1.8972    5.1542   -1.4667   H         1 RES1   0.0000
   240 H137      3.2196    3.3266   -1.0907   H         1 RES1   0.0000
   241 H138      2.6327    3.9172    1.0276   H         1 RES1   0.0000
   242 H139      2.3954    2.1968    1.4076   H         1 RES1   0.0000
   243 H140      0.0055    3.1989    0.1557   H         1 RES1   0.0000
   244 H141      0.4706    4.1922    1.5458   H         1 RES1   0.0000
   245 H142     -1.6986    3.0738    2.1756   H         1 RES1   0.0000
   246 H143     -0.4571    3.6550    3.2801   H         1 RES1   0.0000
   247 H144     -0.6348    1.6489    4.6540   H         1 RES1   0.0000
   248 H145     -1.5737    0.8326    3.4206   H         1 RES1   0.0000
   249 H146     -3.2192    2.9016    3.7390   H         1 RES1   0.0000
   250 H147     -2.4049    3.1040    5.2653   H         1 RES1   0.0000
   251 H148     -3.6791    0.4336    4.5554   H         1 RES1   0.0000
   252 H149     -4.6233    1.8151    5.1242   H         1 RES1   0.0000
   253 H150     -4.3803    0.7767    7.0666   H         1 RES1   0.0000
   254 H151     -2.9222    1.7464    7.1627   H         1 RES1   0.0000
   255 H152     -3.1323   -1.2085    6.3957   H         1 RES1   0.0000
   256 H153     -2.4813   -0.5469    7.8790   H         1 RES1   0.0000
   257 H154     -1.6233   -0.2901    6.3749   H         1 RES1   0.0000
   258 H155      5.7201    2.7300   -1.0396   H         1 RES1   0.0000
   259 H156      6.1187    1.7721    0.3887   H         1 RES1   0.0000
   260 H157      4.7829    2.9187    0.4629   H         1 RES1   0.0000
   261 H158      5.9262    0.3555   -1.7324   H         1 RES1   0.0000
   262 H159      4.3654   -0.4840   -1.8639   H         1 RES1   0.0000
   263 H160      6.2850   -1.7637   -0.9608   H         1 RES1   0.0000
   264 H161      4.8079   -1.8651   -0.0366   H         1 RES1   0.0000
   265 H162      5.8397   -0.2840    1.6560   H         1 RES1   0.0000
   266 H163      7.2950   -0.2589    0.6586   H         1 RES1   0.0000
   267 H164      7.7461   -1.8862    2.3120   H         1 RES1   0.0000
   268 H165      7.4056   -2.7644    0.8263   H         1 RES1   0.0000
   269 H166      5.1391   -3.2896    1.6283   H         1 RES1   0.0000
   270 H167      5.4147   -2.3276    3.0898   H         1 RES1   0.0000
   271 H168      7.4681   -4.4059    2.6923   H         1 RES1   0.0000
   272 H169      5.8453   -5.0664    2.7957   H         1 RES1   0.0000
   273 H170      6.7728   -5.0257    5.0003   H         1 RES1   0.0000
   274 H171      5.4820   -3.8326    4.9372   H         1 RES1   0.0000
   275 H172      8.4667   -3.2239    4.6678   H         1 RES1   0.0000
   276 H173      7.5161   -2.9734    6.1281   H         1 RES1   0.0000
   277 H174      7.1866   -2.0114    4.6947   H         1 RES1   0.0000
@<TRIPOS>BOND
     1     1    13    1
     2     1    17    1
     3     1    25    1
     4     1   105    1
     5     1   109    1
     6     1   117    1
     7     1   197    1
     8     1   201    1
     9     1   209    1
    10     2     3    1
    11     2    36    1
    12     2    37    1
    13     2    38    1
    14     3     4    1
    15     3    39    1
    16     3    40    1
    17     4     5    1
    18     4    41    1
    19     4    42    1
    20     5     6    1
    21     5    43    1
    22     5    44    1
    23     6     7    1
    24     6    45    1
    25     6    46    1
    26     7     8    1
    27     7    47    1
    28     7    48    1
    29     8     9    1
    30     8    49    1
    31     8    50    1
    32     9    10    1
    33     9    51    1
    34     9    52    1
    35    10    11    1
    36    10    12    1
    37    11    53    1
    38    11    54    1
    39    11    55    1
    40    12    13    2
    41    12    14    1
    42    14    15    1
    43    14    24    1
    44    14    56    1
    45    15    16    1
    46    15    57    1
    47    15    58    1
    48    16    17    1
    49    16    59    1
    50    16    60    1
    51    17    18    1
    52    18    19    1
    53    18    61    1
    54    18    62    1
    55    19    20    1
    56    19    63    1
    57    19    64    1
    58    20    21    1
    59    20    65    1
    60    20    66    1
    61    21    22    1
    62    21    67    1
    63    21    68    1
    64    22    23    1
    65    22    69    1
    66    22    70    1
    67    23    71    1
    68    23    72    1
    69    23    73    1
    70    24    25    2
    71    24    26    1
    72    26    27    1
    73    26    28    1
    74    27    74    1
    75    27    75    1
    76    27    76    1
    77    28    29    1
    78    28    77    1
    79    28    78    1
    80    29    30    1
    81    29    79    1
    82    29    80    1
    83    30    31    1
    84    30    81    1
    85    30    82    1
    86    31    32    1
    87    31    83    1
    88    31    84    1
    89    32    33    1
    90    32    85    1
    91    32    86    1
    92    33    34    1
    93    33    87    1
    94    33    88    1
    95    34    35    1
    96    34    89    1
    97    34    90    1
    98    35    91    1
    99    35    92    1
   100    35    93    1
   101    94    95    1
   102    94   128    1
   103    94   129    1
   104    94   130    1
   105    95    96    1
   106    95   131    1
   107    95   132    1
   108    96    97    1
   109    96   133    1
   110    96   134    1
   111    97    98    1
   112    97   135    1
   113    97   136    1
   114    98    99    1
   115    98   137    1
   116    98   138    1
   117    99   100    1
   118    99   139    1
   119    99   140    1
   120   100   101    1
   121   100   141    1
   122   100   142    1
   123   101   102    1
   124   101   143    1
   125   101   144    1
   126   102   103    1
   127   102   104    1
   128   103   145    1
   129   103   146    1
   130   103   147    1
   131   104   105    2
   132   104   106    1
   133   106   107    1
   134   106   116    1
   135   106   148    1
   136   107   108    1
   137   107   149    1
   138   107   150    1
   139   108   109    1
   140   108   151    1
   141   108   152    1
   142   109   110    1
   143   110   111    1
   144   110   153    1
   145   110   154    1
   146   111   112    1
   147   111   155    1
   148   111   156    1
   149   112   113    1
   150   112   157    1
   151   112   158    1
   152   113   114    1
   153   113   159    1
   154   113   160    1
   155   114   115    1
   156   114   161    1
   157   114   162    1
   158   115   163    1
   159   115   164    1
   160   115   165    1
   161   116   117    2
   162   116   118    1
   163   118   119    1
   164   118   120    1
   165   119   166    1
   166   119   167    1
   167   119   168    1
   168   120   121    1
   169   120   169    1
   170   120   170    1
   171   121   122    1
   172   121   171    1
   173   121   172    1
   174   122   123    1
   175   122   173    1
   176   122   174    1
   177   123   124    1
   178   123   175    1
   179   123   176    1
   180   124   125    1
   181   124   177    1
   182   124   178    1
   183   125   126    1
   184   125   179    1
   185   125   180    1
   186   126   127    1
   187   126   181    1
   188   126   182    1
   189   127   183    1
   190   127   184    1
   191   127   185    1
   192   186   187    1
   193   186   220    1
   194   186   221    1
   195   186   222    1
   196   187   188    1
   197   187   223    1
   198   187   224    1
   199   188   189    1
   200   188   225    1
   201   188   226    1
   202   189   190    1
   203   189   227    1
   204   189   228    1
   205   190   191    1
   206   190   229    1
   207   190   230    1
   208   191   192    1
   209   191   231    1
   210   191   232    1
   211   192   193    1
   212   192   233    1
   213   192   234    1
   214   193   194    1
   215   193   235    1
   216   193   236    1
   217   194   195    1
   218   194   196    1
   219   195   237    1
   220   195   238    1
   221   195   239    1
   222   196   197    2
   223   196   198    1
   224   198   199    1
   225   198   208    1
   226   198   240    1
   227   199   200    1
   228   199   241    1
   229   199   242    1
   230   200   201    1
   231   200   243    1
   232   200   244    1
   233   201   202    1
   234   202   203    1
   235   202   245    1
   236   202   246    1
   237   203   204    1
   238   203   247    1
   239   203   248    1
   240   204   205    1
   241   204   249    1
   242   204   250    1
   243   205   206    1
   244   205   251    1
   245   205   252    1
   246   206   207    1
   247   206   253    1
   248   206   254    1
   249   207   255    1
   250   207   256    1
   251   207   257    1
   252   208   209    2
   253   208   210    1
   254   210   211    1
   255   210   212    1
   256   211   258    1
   257   211   259    1
   258   211   260    1
   259   212   213    1
   260   212   261    1
   261   212   262    1
   262   213   214    1
   263   213   263    1
   264   213   264    1
   265   214   215    1
   266   214   265    1
   267   214   266    1
   268   215   216    1
   269   215   267    1
   270   215   268    1
   271   216   217    1
   272   216   269    1
   273   216   270    1
   274   217   218    1
   275   217   271    1
   276   217   272    1
   277   218   219    1
   278   218   273    1
   279   218   274    1
   280   219   275    1
   281   219   276    1
   282   219   277    1
@<TRIPOS>SUBSTRUCTURE
     1 RES1      277 GROUP             0 ****  ****    0  
