@<TRIPOS>MOLECULE
capped_square_antiprismatic_0_nunpairedes_0_charge_3 Charge: 3 Unpaired_Electrons: 1 XTB_Unpaired_Electrons: 0 XTB_Charge: 3
   124   137     1     0     0
SMALL
NoCharges
****
Generated from Architector

@<TRIPOS>ATOM
     1 Ce1      -0.0167   -0.0238   -0.0421   Ce        1 RES1   0.0000
     2 C1        0.9390   -2.4525   -4.6098   C.3       1 RES1   0.0000
     3 C2        0.1131   -3.3099   -3.6619   C.3       1 RES1   0.0000
     4 N1       -1.1617   -2.6739   -3.3174   N.am      1 RES1   0.0000
     5 C3       -1.0891   -1.6206   -2.5035   C.2       1 RES1   0.0000
     6 O1        0.0098   -1.2859   -2.0073   O.2       1 RES1   0.0000
     7 C4       -2.2681   -0.7197   -2.2178   C.ar      1 RES1   0.0000
     8 C5       -3.3513   -0.5175   -3.0730   C.ar      1 RES1   0.0000
     9 C6       -4.2649    0.4683   -2.7376   C.ar      1 RES1   0.0000
    10 C7       -4.0473    1.2716   -1.6260   C.ar      1 RES1   0.0000
    11 C8       -2.9123    1.0492   -0.8441   C.ar      1 RES1   0.0000
    12 C9       -2.5171    1.9449    0.2832   C.ar      1 RES1   0.0000
    13 C10      -3.3845    2.9235    0.7761   C.ar      1 RES1   0.0000
    14 C11      -2.9570    3.6789    1.8490   C.ar      1 RES1   0.0000
    15 C12      -1.6673    3.5414    2.3516   C.ar      1 RES1   0.0000
    16 C13      -0.8082    2.6246    1.7483   C.ar      1 RES1   0.0000
    17 C14       0.6874    2.3676    1.9743   C.2       1 RES1   0.0000
    18 O2        1.2131    1.6006    1.1407   O.2       1 RES1   0.0000
    19 N2        1.4181    2.8846    2.9770   N.am      1 RES1   0.0000
    20 C15       0.9710    3.9459    3.8769   C.3       1 RES1   0.0000
    21 C16       0.8976    5.2800    3.1389   C.3       1 RES1   0.0000
    22 C17       2.7945    2.5025    3.1447   C.ar      1 RES1   0.0000
    23 C18       3.2277    1.1948    2.9293   C.ar      1 RES1   0.0000
    24 C19       4.5435    0.8393    3.1757   C.ar      1 RES1   0.0000
    25 C20       5.4514    1.7682    3.6579   C.ar      1 RES1   0.0000
    26 C21       5.0272    3.0653    3.8848   C.ar      1 RES1   0.0000
    27 C22       3.7182    3.4340    3.6219   C.ar      1 RES1   0.0000
    28 N3       -1.2813    1.8147    0.7806   N.ar      1 RES1   0.0000
    29 N4       -2.0813    0.0437   -1.1362   N.ar      1 RES1   0.0000
    30 C23      -2.3525   -3.3469   -3.6884   C.ar      1 RES1   0.0000
    31 C24      -2.4582   -3.9463   -4.9399   C.ar      1 RES1   0.0000
    32 C25      -3.5999   -4.6559   -5.2665   C.ar      1 RES1   0.0000
    33 C26      -4.6504   -4.7509   -4.3706   C.ar      1 RES1   0.0000
    34 C27      -4.5337   -4.1685   -3.1202   C.ar      1 RES1   0.0000
    35 C28      -3.3819   -3.4919   -2.7618   C.ar      1 RES1   0.0000
    36 H1        1.8434   -2.9931   -4.8649   H         1 RES1   0.0000
    37 H2        1.2086   -1.5134   -4.1329   H         1 RES1   0.0000
    38 H3        0.3970   -2.2391   -5.5261   H         1 RES1   0.0000
    39 H4        0.6627   -3.4577   -2.7265   H         1 RES1   0.0000
    40 H5       -0.1055   -4.2809   -4.1028   H         1 RES1   0.0000
    41 H6       -3.4726   -1.1017   -3.9717   H         1 RES1   0.0000
    42 H7       -5.1188    0.6302   -3.3759   H         1 RES1   0.0000
    43 H8       -4.7288    2.0805   -1.4258   H         1 RES1   0.0000
    44 H9       -4.3652    3.0753    0.3537   H         1 RES1   0.0000
    45 H10      -3.6210    4.4009    2.2917   H         1 RES1   0.0000
    46 H11      -1.3919    4.1623    3.1819   H         1 RES1   0.0000
    47 H12       1.6814    3.9967    4.7070   H         1 RES1   0.0000
    48 H13       0.0186    3.6446    4.3139   H         1 RES1   0.0000
    49 H14       1.8818    5.6068    2.8178   H         1 RES1   0.0000
    50 H15       0.4983    6.0413    3.7975   H         1 RES1   0.0000
    51 H16       0.2781    5.2148    2.2479   H         1 RES1   0.0000
    52 H17       2.5507    0.4338    2.5626   H         1 RES1   0.0000
    53 H18       4.8575   -0.1785    2.9986   H         1 RES1   0.0000
    54 H19       6.4783    1.4929    3.8453   H         1 RES1   0.0000
    55 H20       5.7242    3.7934    4.2732   H         1 RES1   0.0000
    56 H21       3.4416    4.4598    3.8007   H         1 RES1   0.0000
    57 H22      -1.6603   -3.8697   -5.6617   H         1 RES1   0.0000
    58 H23      -3.6651   -5.1350   -6.2270   H         1 RES1   0.0000
    59 H24      -5.5516   -5.2810   -4.6367   H         1 RES1   0.0000
    60 H25      -5.3450   -4.2581   -2.4195   H         1 RES1   0.0000
    61 H26      -3.2576   -3.0920   -1.7647   H         1 RES1   0.0000
    62 C29      -0.8254    2.7623   -4.4038   C.3       1 RES1   0.0000
    63 C30      -0.0286    3.5971   -3.4101   C.3       1 RES1   0.0000
    64 N5        1.2639    2.9823   -3.0897   N.am      1 RES1   0.0000
    65 C31       1.2111    1.9167   -2.2851   C.2       1 RES1   0.0000
    66 O3        0.1196    1.5885   -1.7689   O.2       1 RES1   0.0000
    67 C32       2.3853    1.0044   -2.0190   C.ar      1 RES1   0.0000
    68 C33       3.5427    0.9089   -2.7896   C.ar      1 RES1   0.0000
    69 C34       4.4731   -0.0581   -2.4443   C.ar      1 RES1   0.0000
    70 C35       4.2103   -0.9379   -1.4035   C.ar      1 RES1   0.0000
    71 C36       2.9995   -0.8271   -0.7147   C.ar      1 RES1   0.0000
    72 C37       2.5767   -1.8205    0.3206   C.ar      1 RES1   0.0000
    73 C38       3.4752   -2.7540    0.8474   C.ar      1 RES1   0.0000
    74 C39       2.9995   -3.6657    1.7688   C.ar      1 RES1   0.0000
    75 C40       1.6537   -3.6807    2.1245   C.ar      1 RES1   0.0000
    76 C41       0.7975   -2.7479    1.5441   C.ar      1 RES1   0.0000
    77 C42      -0.7222   -2.5935    1.6572   C.2       1 RES1   0.0000
    78 O4       -1.2395   -1.9283    0.7351   O.2       1 RES1   0.0000
    79 N6       -1.4643   -3.0606    2.6765   N.am      1 RES1   0.0000
    80 C43      -1.0134   -4.0477    3.6594   C.3       1 RES1   0.0000
    81 C44      -0.9711   -5.4479    3.0549   C.3       1 RES1   0.0000
    82 C45      -2.8121   -2.6034    2.8642   C.ar      1 RES1   0.0000
    83 C46      -3.1739   -1.2872    2.5785   C.ar      1 RES1   0.0000
    84 C47      -4.4329   -0.8199    2.9104   C.ar      1 RES1   0.0000
    85 C48      -5.3561   -1.6419    3.5351   C.ar      1 RES1   0.0000
    86 C49      -5.0098   -2.9526    3.8054   C.ar      1 RES1   0.0000
    87 C50      -3.7555   -3.4350    3.4698   C.ar      1 RES1   0.0000
    88 N7        1.2906   -1.8295    0.6897   N.ar      1 RES1   0.0000
    89 N8        2.1391    0.1477   -1.0210   N.ar      1 RES1   0.0000
    90 C51       2.4236    3.6902   -3.4979   C.ar      1 RES1   0.0000
    91 C52       2.4680    4.2904   -4.7532   C.ar      1 RES1   0.0000
    92 C53       3.5714    5.0403   -5.1196   C.ar      1 RES1   0.0000
    93 C54       4.6450    5.1819   -4.2582   C.ar      1 RES1   0.0000
    94 C55       4.5854    4.6085   -2.9997   C.ar      1 RES1   0.0000
    95 C56       3.4730    3.8876   -2.6037   C.ar      1 RES1   0.0000
    96 H27      -1.7424    3.2911   -4.6387   H         1 RES1   0.0000
    97 H28      -1.0711    1.7933   -3.9753   H         1 RES1   0.0000
    98 H29      -0.2765    2.6075   -5.3282   H         1 RES1   0.0000
    99 H30      -0.5877    3.6850   -2.4726   H         1 RES1   0.0000
   100 H31       0.1645    4.5933   -3.8044   H         1 RES1   0.0000
   101 H32       3.7125    1.5582   -3.6335   H         1 RES1   0.0000
   102 H33       5.3823   -0.1359   -3.0187   H         1 RES1   0.0000
   103 H34       4.9220   -1.7164   -1.1863   H         1 RES1   0.0000
   104 H35       4.5073   -2.7739    0.5335   H         1 RES1   0.0000
   105 H36       3.6763   -4.3840    2.2010   H         1 RES1   0.0000
   106 H37       1.3288   -4.4221    2.8287   H         1 RES1   0.0000
   107 H38      -1.7060   -4.0264    4.5059   H         1 RES1   0.0000
   108 H39      -0.0459   -3.7299    4.0468   H         1 RES1   0.0000
   109 H40      -1.9697   -5.7855    2.7969   H         1 RES1   0.0000
   110 H41      -0.5516   -6.1433    3.7742   H         1 RES1   0.0000
   111 H42      -0.3829   -5.4758    2.1421   H         1 RES1   0.0000
   112 H43      -2.4814   -0.6056    2.0950   H         1 RES1   0.0000
   113 H44      -4.6921    0.2001    2.6769   H         1 RES1   0.0000
   114 H45      -6.3385   -1.2758    3.7898   H         1 RES1   0.0000
   115 H46      -5.7285   -3.6015    4.2811   H         1 RES1   0.0000
   116 H47      -3.5313   -4.4645    3.6963   H         1 RES1   0.0000
   117 H48       1.6514    4.1863   -5.4499   H         1 RES1   0.0000
   118 H49       3.5858    5.5182   -6.0827   H         1 RES1   0.0000
   119 H50       5.5181    5.7412   -4.5562   H         1 RES1   0.0000
   120 H51       5.4095    4.7418   -2.3211   H         1 RES1   0.0000
   121 H52       3.3971    3.4864   -1.6030   H         1 RES1   0.0000
   122 O5       -0.1271   -0.1095    2.8525   O.3       1 RES1   0.0000
   123 H53      -0.8061    0.2473    3.4403   H         1 RES1   0.0000
   124 H54       0.6607   -0.2118    3.4027   H         1 RES1   0.0000
@<TRIPOS>BOND
     1     1     6    1
     2     1    18    1
     3     1    28    1
     4     1    29    1
     5     1    66    1
     6     1    78    1
     7     1    88    1
     8     1    89    1
     9     1   122    1
    10     2     3    1
    11     2    36    1
    12     2    37    1
    13     2    38    1
    14     3     4    1
    15     3    39    1
    16     3    40    1
    17     4     5    1
    18     4    30    1
    19     5     6    2
    20     5     7    1
    21     7     8    1
    22     7    29    2
    23     8     9    2
    24     8    41    1
    25     9    10    1
    26     9    42    1
    27    10    11    2
    28    10    43    1
    29    11    12    1
    30    11    29    1
    31    12    13    1
    32    12    28    2
    33    13    14    2
    34    13    44    1
    35    14    15    1
    36    14    45    1
    37    15    16    2
    38    15    46    1
    39    16    17    1
    40    16    28    1
    41    17    18    2
    42    17    19    1
    43    19    20    1
    44    19    22    1
    45    20    21    1
    46    20    47    1
    47    20    48    1
    48    21    49    1
    49    21    50    1
    50    21    51    1
    51    22    23    1
    52    22    27    2
    53    23    24    2
    54    23    52    1
    55    24    25    1
    56    24    53    1
    57    25    26    2
    58    25    54    1
    59    26    27    1
    60    26    55    1
    61    27    56    1
    62    30    31    1
    63    30    35    2
    64    31    32    2
    65    31    57    1
    66    32    33    1
    67    32    58    1
    68    33    34    2
    69    33    59    1
    70    34    35    1
    71    34    60    1
    72    35    61    1
    73    62    63    1
    74    62    96    1
    75    62    97    1
    76    62    98    1
    77    63    64    1
    78    63    99    1
    79    63   100    1
    80    64    65    1
    81    64    90    1
    82    65    66    2
    83    65    67    1
    84    67    68    1
    85    67    89    2
    86    68    69    2
    87    68   101    1
    88    69    70    1
    89    69   102    1
    90    70    71    2
    91    70   103    1
    92    71    72    1
    93    71    89    1
    94    72    73    1
    95    72    88    2
    96    73    74    2
    97    73   104    1
    98    74    75    1
    99    74   105    1
   100    75    76    2
   101    75   106    1
   102    76    77    1
   103    76    88    1
   104    77    78    2
   105    77    79    1
   106    79    80    1
   107    79    82    1
   108    80    81    1
   109    80   107    1
   110    80   108    1
   111    81   109    1
   112    81   110    1
   113    81   111    1
   114    82    83    1
   115    82    87    2
   116    83    84    2
   117    83   112    1
   118    84    85    1
   119    84   113    1
   120    85    86    2
   121    85   114    1
   122    86    87    1
   123    86   115    1
   124    87   116    1
   125    90    91    1
   126    90    95    2
   127    91    92    2
   128    91   117    1
   129    92    93    1
   130    92   118    1
   131    93    94    2
   132    93   119    1
   133    94    95    1
   134    94   120    1
   135    95   121    1
   136   122   123    1
   137   122   124    1
@<TRIPOS>SUBSTRUCTURE
     1 RES1      124 GROUP             0 ****  ****    0  
