@<TRIPOS>MOLECULE
am_c3_9H2O_c0_0_nunpairedes_0_charge_3 Charge: 3 Unpaired_Electrons: 1 XTB_Unpaired_Electrons: 0 XTB_Charge: 3
   196   209     1     0     0
SMALL
NoCharges
****
Generated from Architector

@<TRIPOS>ATOM
     1 Ce1      -0.0387    0.0220    0.0181   Ce        1 RES1   0.0000
     2 C1        4.4358   -1.4888   -6.0583   C.3       1 RES1   0.0000
     3 C2        3.7156   -0.1483   -6.1569   C.3       1 RES1   0.0000
     4 C3        4.2296    0.7209   -7.3067   C.3       1 RES1   0.0000
     5 C4        3.8163    2.1835   -7.1376   C.3       1 RES1   0.0000
     6 C5        2.3407    2.4443   -7.4374   C.3       1 RES1   0.0000
     7 C6        1.8811    3.8549   -7.0193   C.3       1 RES1   0.0000
     8 C7        1.9017    3.9310   -5.5317   C.ar      1 RES1   0.0000
     9 C8        3.0661    4.3283   -4.8827   C.ar      1 RES1   0.0000
    10 C9        3.1818    4.2509   -3.5116   C.ar      1 RES1   0.0000
    11 C10       2.0988    3.8124   -2.7536   C.ar      1 RES1   0.0000
    12 N1        2.1293    3.9017   -1.3241   N.am      1 RES1   0.0000
    13 C11       2.6375    5.2034   -0.8912   C.3       1 RES1   0.0000
    14 C12       4.0140    5.0881   -0.2344   C.3       1 RES1   0.0000
    15 C13       1.6975    2.8911   -0.5536   C.2       1 RES1   0.0000
    16 O1        1.4193    1.7725   -1.0418   O.2       1 RES1   0.0000
    17 C14       1.4452    3.0484    0.9333   C.ar      1 RES1   0.0000
    18 C15       1.6982    4.1737    1.7169   C.ar      1 RES1   0.0000
    19 C16       1.2739    4.1846    3.0355   C.ar      1 RES1   0.0000
    20 C17       0.6404    3.0768    3.5574   C.ar      1 RES1   0.0000
    21 C18       0.4713    1.9548    2.7401   C.ar      1 RES1   0.0000
    22 C19      -0.1500    0.7246    3.2964   C.ar      1 RES1   0.0000
    23 C20      -0.2276    0.5630    4.6827   C.ar      1 RES1   0.0000
    24 C21      -0.8275   -0.5712    5.1792   C.ar      1 RES1   0.0000
    25 C22      -1.3129   -1.5251    4.3037   C.ar      1 RES1   0.0000
    26 C23      -1.1786   -1.3277    2.9329   C.ar      1 RES1   0.0000
    27 C24      -1.5181   -2.3304    1.8468   C.2       1 RES1   0.0000
    28 O2       -1.1106   -2.0483    0.6964   O.2       1 RES1   0.0000
    29 N2       -2.1819   -3.4809    2.0739   N.am      1 RES1   0.0000
    30 C25      -2.7923   -3.9246    3.3327   C.3       1 RES1   0.0000
    31 C26      -4.0095   -3.0891    3.7254   C.3       1 RES1   0.0000
    32 C27      -2.3819   -4.4079    0.9934   C.ar      1 RES1   0.0000
    33 C28      -1.3565   -4.7293    0.1127   C.ar      1 RES1   0.0000
    34 C29      -1.5747   -5.6333   -0.9110   C.ar      1 RES1   0.0000
    35 C30      -2.7960   -6.2805   -1.0641   C.ar      1 RES1   0.0000
    36 C31      -3.0628   -7.1867   -2.2225   C.3       1 RES1   0.0000
    37 C32      -4.3323   -6.8051   -2.9991   C.3       1 RES1   0.0000
    38 C33      -4.2633   -5.4376   -3.6815   C.3       1 RES1   0.0000
    39 C34      -4.3617   -4.2529   -2.7197   C.3       1 RES1   0.0000
    40 C35      -4.4805   -2.8892   -3.4081   C.3       1 RES1   0.0000
    41 C36      -5.8394   -2.6788   -4.0619   C.3       1 RES1   0.0000
    42 C37      -3.7872   -6.0188   -0.1217   C.ar      1 RES1   0.0000
    43 C38      -3.6015   -5.0732    0.8637   C.ar      1 RES1   0.0000
    44 N3       -0.6255   -0.1967    2.4519   N.ar      1 RES1   0.0000
    45 N4        0.8548    1.9573    1.4597   N.ar      1 RES1   0.0000
    46 C39       0.9165    3.4663   -3.3849   C.ar      1 RES1   0.0000
    47 C40       0.8290    3.5021   -4.7630   C.ar      1 RES1   0.0000
    48 H1        4.0314   -2.0889   -5.2438   H         1 RES1   0.0000
    49 H2        5.4945   -1.3351   -5.8682   H         1 RES1   0.0000
    50 H3        4.3433   -2.0578   -6.9782   H         1 RES1   0.0000
    51 H4        3.8689    0.3992   -5.2222   H         1 RES1   0.0000
    52 H5        2.6398   -0.3139   -6.2677   H         1 RES1   0.0000
    53 H6        3.8703    0.3392   -8.2624   H         1 RES1   0.0000
    54 H7        5.3198    0.6653   -7.3209   H         1 RES1   0.0000
    55 H8        4.4203    2.8107   -7.7925   H         1 RES1   0.0000
    56 H9        4.0416    2.4735   -6.1104   H         1 RES1   0.0000
    57 H10       1.7143    1.7185   -6.9129   H         1 RES1   0.0000
    58 H11       2.1753    2.3317   -8.5076   H         1 RES1   0.0000
    59 H12       0.8723    4.0331   -7.3958   H         1 RES1   0.0000
    60 H13       2.5569    4.5986   -7.4417   H         1 RES1   0.0000
    61 H14       3.8870    4.7012   -5.4698   H         1 RES1   0.0000
    62 H15       4.1082    4.5422   -3.0450   H         1 RES1   0.0000
    63 H16       1.8820    5.7166   -0.2886   H         1 RES1   0.0000
    64 H17       2.7377    5.8228   -1.7858   H         1 RES1   0.0000
    65 H18       4.0419    4.3653    0.5790   H         1 RES1   0.0000
    66 H19       4.3234    6.0608    0.1388   H         1 RES1   0.0000
    67 H20       4.7446    4.7698   -0.9748   H         1 RES1   0.0000
    68 H21       2.1996    5.0445    1.3538   H         1 RES1   0.0000
    69 H22       1.4375    5.0570    3.6446   H         1 RES1   0.0000
    70 H23       0.2773    3.0934    4.5701   H         1 RES1   0.0000
    71 H24       0.1734    1.2967    5.3585   H         1 RES1   0.0000
    72 H25      -0.9202   -0.7254    6.2391   H         1 RES1   0.0000
    73 H26      -1.7664   -2.3955    4.7251   H         1 RES1   0.0000
    74 H27      -2.0304   -3.9936    4.1125   H         1 RES1   0.0000
    75 H28      -3.1117   -4.9582    3.1864   H         1 RES1   0.0000
    76 H29      -3.7906   -2.0274    3.8174   H         1 RES1   0.0000
    77 H30      -4.4049   -3.4447    4.6726   H         1 RES1   0.0000
    78 H31      -4.7853   -3.2113    2.9742   H         1 RES1   0.0000
    79 H32      -0.3863   -4.2745    0.2275   H         1 RES1   0.0000
    80 H33      -0.7870   -5.8360   -1.6194   H         1 RES1   0.0000
    81 H34      -3.1857   -8.2045   -1.8399   H         1 RES1   0.0000
    82 H35      -2.2072   -7.1804   -2.9032   H         1 RES1   0.0000
    83 H36      -5.1974   -6.8404   -2.3356   H         1 RES1   0.0000
    84 H37      -4.4781   -7.5621   -3.7698   H         1 RES1   0.0000
    85 H38      -5.0926   -5.3837   -4.3847   H         1 RES1   0.0000
    86 H39      -3.3363   -5.3646   -4.2538   H         1 RES1   0.0000
    87 H40      -3.4801   -4.2271   -2.0776   H         1 RES1   0.0000
    88 H41      -5.2352   -4.3895   -2.0779   H         1 RES1   0.0000
    89 H42      -3.6846   -2.7793   -4.1502   H         1 RES1   0.0000
    90 H43      -4.3264   -2.1098   -2.6487   H         1 RES1   0.0000
    91 H44      -5.9800   -3.3519   -4.8996   H         1 RES1   0.0000
    92 H45      -5.9422   -1.6624   -4.4295   H         1 RES1   0.0000
    93 H46      -6.6323   -2.8629   -3.3432   H         1 RES1   0.0000
    94 H47      -4.7351   -6.5301   -0.1786   H         1 RES1   0.0000
    95 H48      -4.4324   -4.8540    1.5142   H         1 RES1   0.0000
    96 H49       0.0712    3.2044   -2.7699   H         1 RES1   0.0000
    97 H50      -0.0874    3.2066   -5.2515   H         1 RES1   0.0000
    98 C41      -6.2264    2.0953    4.1694   C.3       1 RES1   0.0000
    99 C42      -5.4905    3.2577    3.5131   C.3       1 RES1   0.0000
   100 C43      -6.3024    4.5518    3.5955   C.3       1 RES1   0.0000
   101 C44      -5.7370    5.6738    2.7241   C.3       1 RES1   0.0000
   102 C45      -4.4174    6.2282    3.2596   C.3       1 RES1   0.0000
   103 C46      -3.6215    7.0457    2.2278   C.3       1 RES1   0.0000
   104 C47      -3.2097    6.1416    1.1168   C.ar      1 RES1   0.0000
   105 C48      -4.0118    6.0391   -0.0136   C.ar      1 RES1   0.0000
   106 C49      -3.7590    5.0956   -0.9852   C.ar      1 RES1   0.0000
   107 C50      -2.6474    4.2544   -0.8940   C.ar      1 RES1   0.0000
   108 N5       -2.3719    3.3413   -1.9647   N.am      1 RES1   0.0000
   109 C51      -2.8580    3.7872   -3.2668   C.3       1 RES1   0.0000
   110 C52      -4.1699    3.0857   -3.6376   C.3       1 RES1   0.0000
   111 C53      -1.7725    2.1535   -1.7619   C.2       1 RES1   0.0000
   112 O3       -1.4587    1.7877   -0.6074   O.2       1 RES1   0.0000
   113 C54      -1.3725    1.2055   -2.8926   C.ar      1 RES1   0.0000
   114 C55      -1.6564    1.2895   -4.2589   C.ar      1 RES1   0.0000
   115 C56      -1.0588    0.3915   -5.1306   C.ar      1 RES1   0.0000
   116 C57      -0.2431   -0.6076   -4.6440   C.ar      1 RES1   0.0000
   117 C58      -0.0963   -0.7125   -3.2582   C.ar      1 RES1   0.0000
   118 C59       0.6311   -1.8658   -2.6693   C.ar      1 RES1   0.0000
   119 C60       0.8304   -3.0221   -3.4298   C.ar      1 RES1   0.0000
   120 C61       1.4904   -4.0831   -2.8495   C.ar      1 RES1   0.0000
   121 C62       1.9269   -3.9796   -1.5407   C.ar      1 RES1   0.0000
   122 C63       1.6880   -2.8070   -0.8298   C.ar      1 RES1   0.0000
   123 C64       1.9882   -2.5840    0.6369   C.2       1 RES1   0.0000
   124 O4        1.5697   -1.5161    1.1368   O.2       1 RES1   0.0000
   125 N6        2.6027   -3.5068    1.3944   N.am      1 RES1   0.0000
   126 C65       3.3917   -4.6698    0.9727   C.3       1 RES1   0.0000
   127 C66       4.6071   -4.2731    0.1414   C.3       1 RES1   0.0000
   128 C67       2.5598   -3.3874    2.8251   C.ar      1 RES1   0.0000
   129 C68       1.3318   -3.4172    3.4669   C.ar      1 RES1   0.0000
   130 C69       1.2755   -3.4322    4.8482   C.ar      1 RES1   0.0000
   131 C70       2.4313   -3.4515    5.6197   C.ar      1 RES1   0.0000
   132 C71       2.3422   -3.4408    7.1128   C.3       1 RES1   0.0000
   133 C72       3.2220   -2.3769    7.7815   C.3       1 RES1   0.0000
   134 C73       2.8711   -0.9378    7.4006   C.3       1 RES1   0.0000
   135 C74       3.3272   -0.5428    5.9959   C.3       1 RES1   0.0000
   136 C75       3.2890    0.9618    5.7148   C.3       1 RES1   0.0000
   137 C76       4.3635    1.7339    6.4682   C.3       1 RES1   0.0000
   138 C77       3.6569   -3.4834    4.9589   C.ar      1 RES1   0.0000
   139 C78       3.7265   -3.4287    3.5831   C.ar      1 RES1   0.0000
   140 N7        1.0490   -1.7702   -1.4024   N.ar      1 RES1   0.0000
   141 N8       -0.6324    0.1828   -2.4251   N.ar      1 RES1   0.0000
   142 C79      -1.8110    4.3876    0.2104   C.ar      1 RES1   0.0000
   143 C80      -2.1145    5.2932    1.2108   C.ar      1 RES1   0.0000
   144 H51      -5.6374    1.1802    4.1336   H         1 RES1   0.0000
   145 H52      -7.1710    1.9140    3.6647   H         1 RES1   0.0000
   146 H53      -6.4405    2.3183    5.2100   H         1 RES1   0.0000
   147 H54      -5.3041    3.0229    2.4600   H         1 RES1   0.0000
   148 H55      -4.5187    3.3864    3.9964   H         1 RES1   0.0000
   149 H56      -6.3588    4.8818    4.6335   H         1 RES1   0.0000
   150 H57      -7.3184    4.3309    3.2622   H         1 RES1   0.0000
   151 H58      -6.4691    6.4799    2.6710   H         1 RES1   0.0000
   152 H59      -5.6072    5.2835    1.7127   H         1 RES1   0.0000
   153 H60      -3.7787    5.4078    3.5898   H         1 RES1   0.0000
   154 H61      -4.6270    6.8646    4.1174   H         1 RES1   0.0000
   155 H62      -2.7433    7.4689    2.7178   H         1 RES1   0.0000
   156 H63      -4.2372    7.8567    1.8377   H         1 RES1   0.0000
   157 H64      -4.8603    6.6943   -0.1127   H         1 RES1   0.0000
   158 H65      -4.4562    5.0270   -1.8012   H         1 RES1   0.0000
   159 H66      -2.0590    3.6671   -4.0000   H         1 RES1   0.0000
   160 H67      -3.0289    4.8643   -3.2243   H         1 RES1   0.0000
   161 H68      -4.1040    2.0010   -3.5516   H         1 RES1   0.0000
   162 H69      -4.4585    3.3545   -4.6512   H         1 RES1   0.0000
   163 H70      -4.9666    3.4094   -2.9703   H         1 RES1   0.0000
   164 H71      -2.3313    1.9989   -4.6907   H         1 RES1   0.0000
   165 H72      -1.2467    0.4688   -6.1875   H         1 RES1   0.0000
   166 H73       0.2487   -1.2905   -5.3160   H         1 RES1   0.0000
   167 H74       0.4613   -3.1015   -4.4381   H         1 RES1   0.0000
   168 H75       1.6670   -4.9913   -3.3991   H         1 RES1   0.0000
   169 H76       2.4152   -4.8273   -1.1109   H         1 RES1   0.0000
   170 H77       2.7514   -5.4195    0.4974   H         1 RES1   0.0000
   171 H78       3.7379   -5.1547    1.8885   H         1 RES1   0.0000
   172 H79       4.3478   -3.7336   -0.7662   H         1 RES1   0.0000
   173 H80       5.1685   -5.1612   -0.1336   H         1 RES1   0.0000
   174 H81       5.2520   -3.6367    0.7411   H         1 RES1   0.0000
   175 H82       0.4348   -3.4602    2.8694   H         1 RES1   0.0000
   176 H83       0.3237   -3.4458    5.3553   H         1 RES1   0.0000
   177 H84       2.6555   -4.4238    7.4786   H         1 RES1   0.0000
   178 H85       1.3008   -3.2893    7.4118   H         1 RES1   0.0000
   179 H86       4.2716   -2.5687    7.5559   H         1 RES1   0.0000
   180 H87       3.0942   -2.4880    8.8584   H         1 RES1   0.0000
   181 H88       3.3598   -0.2832    8.1200   H         1 RES1   0.0000
   182 H89       1.7930   -0.7871    7.4939   H         1 RES1   0.0000
   183 H90       2.7065   -1.0413    5.2482   H         1 RES1   0.0000
   184 H91       4.3545   -0.8815    5.8503   H         1 RES1   0.0000
   185 H92       2.3044    1.3602    5.9723   H         1 RES1   0.0000
   186 H93       3.4338    1.1047    4.6370   H         1 RES1   0.0000
   187 H94       4.1665    1.7453    7.5348   H         1 RES1   0.0000
   188 H95       4.4102    2.7636    6.1264   H         1 RES1   0.0000
   189 H96       5.3352    1.2780    6.3065   H         1 RES1   0.0000
   190 H97       4.5744   -3.5343    5.5220   H         1 RES1   0.0000
   191 H98       4.6949   -3.4218    3.1080   H         1 RES1   0.0000
   192 H99      -0.9177    3.7874    0.2903   H         1 RES1   0.0000
   193 H100     -1.4913    5.3318    2.0923   H         1 RES1   0.0000
   194 O5       -2.9440   -0.3608   -0.1056   O.3       1 RES1   0.0000
   195 H101     -3.6466    0.0679    0.3976   H         1 RES1   0.0000
   196 H102     -3.3331   -1.1507   -0.5013   H         1 RES1   0.0000
@<TRIPOS>BOND
     1     1    16    1
     2     1    28    1
     3     1    44    1
     4     1    45    1
     5     1   112    1
     6     1   124    1
     7     1   140    1
     8     1   141    1
     9     1   194    1
    10     2     3    1
    11     2    48    1
    12     2    49    1
    13     2    50    1
    14     3     4    1
    15     3    51    1
    16     3    52    1
    17     4     5    1
    18     4    53    1
    19     4    54    1
    20     5     6    1
    21     5    55    1
    22     5    56    1
    23     6     7    1
    24     6    57    1
    25     6    58    1
    26     7     8    1
    27     7    59    1
    28     7    60    1
    29     8     9    1
    30     8    47    2
    31     9    10    2
    32     9    61    1
    33    10    11    1
    34    10    62    1
    35    11    12    1
    36    11    46    2
    37    12    13    1
    38    12    15    1
    39    13    14    1
    40    13    63    1
    41    13    64    1
    42    14    65    1
    43    14    66    1
    44    14    67    1
    45    15    16    2
    46    15    17    1
    47    17    18    1
    48    17    45    2
    49    18    19    2
    50    18    68    1
    51    19    20    1
    52    19    69    1
    53    20    21    2
    54    20    70    1
    55    21    22    1
    56    21    45    1
    57    22    23    1
    58    22    44    2
    59    23    24    2
    60    23    71    1
    61    24    25    1
    62    24    72    1
    63    25    26    2
    64    25    73    1
    65    26    27    1
    66    26    44    1
    67    27    28    2
    68    27    29    1
    69    29    30    1
    70    29    32    1
    71    30    31    1
    72    30    74    1
    73    30    75    1
    74    31    76    1
    75    31    77    1
    76    31    78    1
    77    32    33    1
    78    32    43    2
    79    33    34    2
    80    33    79    1
    81    34    35    1
    82    34    80    1
    83    35    36    1
    84    35    42    2
    85    36    37    1
    86    36    81    1
    87    36    82    1
    88    37    38    1
    89    37    83    1
    90    37    84    1
    91    38    39    1
    92    38    85    1
    93    38    86    1
    94    39    40    1
    95    39    87    1
    96    39    88    1
    97    40    41    1
    98    40    89    1
    99    40    90    1
   100    41    91    1
   101    41    92    1
   102    41    93    1
   103    42    43    1
   104    42    94    1
   105    43    95    1
   106    46    47    1
   107    46    96    1
   108    47    97    1
   109    98    99    1
   110    98   144    1
   111    98   145    1
   112    98   146    1
   113    99   100    1
   114    99   147    1
   115    99   148    1
   116   100   101    1
   117   100   149    1
   118   100   150    1
   119   101   102    1
   120   101   151    1
   121   101   152    1
   122   102   103    1
   123   102   153    1
   124   102   154    1
   125   103   104    1
   126   103   155    1
   127   103   156    1
   128   104   105    1
   129   104   143    2
   130   105   106    2
   131   105   157    1
   132   106   107    1
   133   106   158    1
   134   107   108    1
   135   107   142    2
   136   108   109    1
   137   108   111    1
   138   109   110    1
   139   109   159    1
   140   109   160    1
   141   110   161    1
   142   110   162    1
   143   110   163    1
   144   111   112    2
   145   111   113    1
   146   113   114    1
   147   113   141    2
   148   114   115    2
   149   114   164    1
   150   115   116    1
   151   115   165    1
   152   116   117    2
   153   116   166    1
   154   117   118    1
   155   117   141    1
   156   118   119    1
   157   118   140    2
   158   119   120    2
   159   119   167    1
   160   120   121    1
   161   120   168    1
   162   121   122    2
   163   121   169    1
   164   122   123    1
   165   122   140    1
   166   123   124    2
   167   123   125    1
   168   125   126    1
   169   125   128    1
   170   126   127    1
   171   126   170    1
   172   126   171    1
   173   127   172    1
   174   127   173    1
   175   127   174    1
   176   128   129    1
   177   128   139    2
   178   129   130    2
   179   129   175    1
   180   130   131    1
   181   130   176    1
   182   131   132    1
   183   131   138    2
   184   132   133    1
   185   132   177    1
   186   132   178    1
   187   133   134    1
   188   133   179    1
   189   133   180    1
   190   134   135    1
   191   134   181    1
   192   134   182    1
   193   135   136    1
   194   135   183    1
   195   135   184    1
   196   136   137    1
   197   136   185    1
   198   136   186    1
   199   137   187    1
   200   137   188    1
   201   137   189    1
   202   138   139    1
   203   138   190    1
   204   139   191    1
   205   142   143    1
   206   142   192    1
   207   143   193    1
   208   194   195    1
   209   194   196    1
@<TRIPOS>SUBSTRUCTURE
     1 RES1      196 GROUP             0 ****  ****    0  
