@<TRIPOS>MOLECULE
am_c3_9H2O_c0_0_nunpairedes_0_charge_3 Charge: 3 Unpaired_Electrons: 1 XTB_Unpaired_Electrons: 0 XTB_Charge: 3
   394   399     1     0     0
SMALL
NoCharges
****
Generated from Architector

@<TRIPOS>ATOM
     1 Ce1      -0.1720    0.1122   -0.1792   Ce        1 RES1   0.0000
     2 C1        4.8519    6.1610   -2.6487   C.3       1 RES1   0.0000
     3 C2        3.8400    7.3038   -2.7022   C.3       1 RES1   0.0000
     4 C3        2.4583    6.8991   -3.2467   C.3       1 RES1   0.0000
     5 C4        1.3506    6.7439   -2.1964   C.3       1 RES1   0.0000
     6 C5        0.0302    6.3724   -2.8807   C.3       1 RES1   0.0000
     7 C6       -1.1946    6.0066   -2.0245   C.3       1 RES1   0.0000
     8 C7       -1.2969    4.5578   -1.5157   C.3       1 RES1   0.0000
     9 C8       -1.4689    3.4389   -2.5641   C.3       1 RES1   0.0000
    10 N1       -2.6888    2.6426   -2.3804   N.am      1 RES1   0.0000
    11 C9       -3.8975    3.4555   -2.5401   C.3       1 RES1   0.0000
    12 C10      -4.5448    3.4779   -3.9450   C.3       1 RES1   0.0000
    13 C11      -3.6202    3.4109   -5.1613   C.3       1 RES1   0.0000
    14 C12      -3.0330    4.7511   -5.6016   C.3       1 RES1   0.0000
    15 C13      -2.1133    4.5626   -6.8156   C.3       1 RES1   0.0000
    16 C14      -1.9849    5.7881   -7.7375   C.3       1 RES1   0.0000
    17 C15      -0.6078    6.4484   -7.7098   C.3       1 RES1   0.0000
    18 C16      -0.3090    7.1140   -6.3742   C.3       1 RES1   0.0000
    19 C17      -2.5249    1.3510   -2.0878   C.2       1 RES1   0.0000
    20 O1       -1.3830    0.8181   -2.1209   O.2       1 RES1   0.0000
    21 C18      -3.6077    0.3449   -1.6172   C.3       1 RES1   0.0000
    22 C19      -5.0762    0.5200   -2.0344   C.3       1 RES1   0.0000
    23 C20      -5.5400   -0.5297   -3.0517   C.3       1 RES1   0.0000
    24 C21      -5.0649   -0.2263   -4.4661   C.3       1 RES1   0.0000
    25 O2       -3.3977    0.2989   -0.1827   O.3       1 RES1   0.0000
    26 C22      -3.5283   -0.9850    0.4552   C.3       1 RES1   0.0000
    27 C23      -4.9622   -1.4965    0.5211   C.3       1 RES1   0.0000
    28 C24      -5.0151   -2.9675    0.9485   C.3       1 RES1   0.0000
    29 C25      -6.4382   -3.3902    1.2844   C.3       1 RES1   0.0000
    30 C26      -2.6619   -0.9182    1.7404   C.2       1 RES1   0.0000
    31 O3       -1.4790   -0.5616    1.5266   O.2       1 RES1   0.0000
    32 N2       -3.0050   -1.3275    2.9663   N.am      1 RES1   0.0000
    33 C27      -1.8915   -1.6015    3.8816   C.3       1 RES1   0.0000
    34 C28      -1.4472   -3.0705    3.8221   C.3       1 RES1   0.0000
    35 C29      -2.2853   -4.0290    4.6848   C.3       1 RES1   0.0000
    36 C30      -1.4582   -5.1719    5.2839   C.3       1 RES1   0.0000
    37 C31      -0.7505   -6.0787    4.2749   C.3       1 RES1   0.0000
    38 C32      -1.6374   -7.1137    3.5764   C.3       1 RES1   0.0000
    39 C33      -2.4940   -6.5841    2.4139   C.3       1 RES1   0.0000
    40 C34      -3.9880   -6.7952    2.6374   C.3       1 RES1   0.0000
    41 C35      -4.3066   -1.3871    3.6145   C.3       1 RES1   0.0000
    42 C36      -4.5382   -0.2042    4.5734   C.3       1 RES1   0.0000
    43 C37      -5.3240   -0.6508    5.8072   C.3       1 RES1   0.0000
    44 C38      -5.4673    0.4403    6.8716   C.3       1 RES1   0.0000
    45 C39      -6.2491    1.7067    6.4974   C.3       1 RES1   0.0000
    46 C40      -7.7668    1.6402    6.6792   C.3       1 RES1   0.0000
    47 C41      -8.4852    0.6685    5.7354   C.3       1 RES1   0.0000
    48 C42      -8.8134   -0.6641    6.4025   C.3       1 RES1   0.0000
    49 H1        5.8392    6.5459   -2.4105   H         1 RES1   0.0000
    50 H2        4.9162    5.6619   -3.6128   H         1 RES1   0.0000
    51 H3        4.5925    5.4248   -1.8924   H         1 RES1   0.0000
    52 H4        4.2510    8.0706   -3.3501   H         1 RES1   0.0000
    53 H5        3.7451    7.7490   -1.7114   H         1 RES1   0.0000
    54 H6        2.5640    5.9571   -3.7806   H         1 RES1   0.0000
    55 H7        2.1282    7.6366   -3.9782   H         1 RES1   0.0000
    56 H8        1.2326    7.6814   -1.6537   H         1 RES1   0.0000
    57 H9        1.6545    5.9809   -1.4846   H         1 RES1   0.0000
    58 H10       0.2215    5.5520   -3.5684   H         1 RES1   0.0000
    59 H11      -0.2556    7.2361   -3.4832   H         1 RES1   0.0000
    60 H12      -2.0827    6.2154   -2.6245   H         1 RES1   0.0000
    61 H13      -1.2402    6.6679   -1.1558   H         1 RES1   0.0000
    62 H14      -2.1209    4.5106   -0.8038   H         1 RES1   0.0000
    63 H15      -0.4071    4.3207   -0.9519   H         1 RES1   0.0000
    64 H16      -0.6342    2.7459   -2.4613   H         1 RES1   0.0000
    65 H17      -1.4743    3.8582   -3.5680   H         1 RES1   0.0000
    66 H18      -3.6017    4.4785   -2.3037   H         1 RES1   0.0000
    67 H19      -4.6408    3.1667   -1.7962   H         1 RES1   0.0000
    68 H20      -5.1249    4.4005   -3.9958   H         1 RES1   0.0000
    69 H21      -5.2621    2.6657   -4.0363   H         1 RES1   0.0000
    70 H22      -4.2119    3.0401   -5.9962   H         1 RES1   0.0000
    71 H23      -2.8319    2.6785   -4.9839   H         1 RES1   0.0000
    72 H24      -2.4865    5.2276   -4.7871   H         1 RES1   0.0000
    73 H25      -3.8547    5.4183   -5.8677   H         1 RES1   0.0000
    74 H26      -2.5034    3.7297   -7.4017   H         1 RES1   0.0000
    75 H27      -1.1184    4.2631   -6.4767   H         1 RES1   0.0000
    76 H28      -2.7374    6.5328   -7.4741   H         1 RES1   0.0000
    77 H29      -2.1897    5.4789   -8.7628   H         1 RES1   0.0000
    78 H30      -0.5631    7.1946   -8.5019   H         1 RES1   0.0000
    79 H31       0.1576    5.7014   -7.9260   H         1 RES1   0.0000
    80 H32      -1.0174    7.9140   -6.1785   H         1 RES1   0.0000
    81 H33       0.6919    7.5377   -6.3674   H         1 RES1   0.0000
    82 H34      -0.3801    6.3857   -5.5728   H         1 RES1   0.0000
    83 H35      -3.2347   -0.6114   -2.0223   H         1 RES1   0.0000
    84 H36      -5.7041    0.4836   -1.1408   H         1 RES1   0.0000
    85 H37      -5.2451    1.4806   -2.5007   H         1 RES1   0.0000
    86 H38      -6.6285   -0.5477   -3.0564   H         1 RES1   0.0000
    87 H39      -5.1936   -1.5222   -2.7729   H         1 RES1   0.0000
    88 H40      -5.3224   -1.0458   -5.1317   H         1 RES1   0.0000
    89 H41      -3.9848   -0.0807   -4.5053   H         1 RES1   0.0000
    90 H42      -5.5401    0.6734   -4.8463   H         1 RES1   0.0000
    91 H43      -2.9464   -1.7165   -0.1439   H         1 RES1   0.0000
    92 H44      -5.5764   -0.8478    1.1456   H         1 RES1   0.0000
    93 H45      -5.3912   -1.4557   -0.4781   H         1 RES1   0.0000
    94 H46      -4.3541   -3.1520    1.7964   H         1 RES1   0.0000
    95 H47      -4.6446   -3.5752    0.1201   H         1 RES1   0.0000
    96 H48      -6.7771   -2.9167    2.2019   H         1 RES1   0.0000
    97 H49      -6.4841   -4.4650    1.4209   H         1 RES1   0.0000
    98 H50      -7.1160   -3.1190    0.4818   H         1 RES1   0.0000
    99 H51      -2.1942   -1.3541    4.8982   H         1 RES1   0.0000
   100 H52      -1.0528   -0.9605    3.5974   H         1 RES1   0.0000
   101 H53      -0.4158   -3.1141    4.1843   H         1 RES1   0.0000
   102 H54      -1.4579   -3.3941    2.7763   H         1 RES1   0.0000
   103 H55      -3.1146   -4.4365    4.1096   H         1 RES1   0.0000
   104 H56      -2.7103   -3.4712    5.5239   H         1 RES1   0.0000
   105 H57      -2.1165   -5.7816    5.9066   H         1 RES1   0.0000
   106 H58      -0.6986   -4.7309    5.9380   H         1 RES1   0.0000
   107 H59       0.0161   -6.6307    4.8213   H         1 RES1   0.0000
   108 H60      -0.2321   -5.4628    3.5329   H         1 RES1   0.0000
   109 H61      -2.2872   -7.5692    4.3243   H         1 RES1   0.0000
   110 H62      -0.9898   -7.9104    3.2055   H         1 RES1   0.0000
   111 H63      -2.2082   -7.0914    1.4901   H         1 RES1   0.0000
   112 H64      -2.3022   -5.5196    2.2530   H         1 RES1   0.0000
   113 H65      -4.2172   -7.8560    2.6770   H         1 RES1   0.0000
   114 H66      -4.5640   -6.3534    1.8275   H         1 RES1   0.0000
   115 H67      -4.3136   -6.3462    3.5741   H         1 RES1   0.0000
   116 H68      -4.3491   -2.3152    4.1891   H         1 RES1   0.0000
   117 H69      -5.1117   -1.4091    2.8935   H         1 RES1   0.0000
   118 H70      -5.0995    0.5717    4.0578   H         1 RES1   0.0000
   119 H71      -3.5937    0.2443    4.8809   H         1 RES1   0.0000
   120 H72      -4.7996   -1.4908    6.2757   H         1 RES1   0.0000
   121 H73      -6.2964   -1.0079    5.4810   H         1 RES1   0.0000
   122 H74      -4.4604    0.7487    7.1580   H         1 RES1   0.0000
   123 H75      -5.9328   -0.0081    7.7505   H         1 RES1   0.0000
   124 H76      -6.0241    2.0071    5.4720   H         1 RES1   0.0000
   125 H77      -5.8904    2.5083    7.1509   H         1 RES1   0.0000
   126 H78      -8.1549    2.6497    6.5250   H         1 RES1   0.0000
   127 H79      -7.9908    1.3734    7.7128   H         1 RES1   0.0000
   128 H80      -7.8703    0.5033    4.8474   H         1 RES1   0.0000
   129 H81      -9.4181    1.1175    5.3943   H         1 RES1   0.0000
   130 H82      -7.9465   -1.0837    6.9055   H         1 RES1   0.0000
   131 H83      -9.1731   -1.3869    5.6735   H         1 RES1   0.0000
   132 H84      -9.5926   -0.5274    7.1474   H         1 RES1   0.0000
   133 C43       0.0501    7.5726    3.3620   C.3       1 RES1   0.0000
   134 C44       1.1100    7.8147    4.4343   C.3       1 RES1   0.0000
   135 C45       1.4365    6.5869    5.2925   C.3       1 RES1   0.0000
   136 C46       2.3609    5.6041    4.5760   C.3       1 RES1   0.0000
   137 C47       2.7374    4.3908    5.4236   C.3       1 RES1   0.0000
   138 C48       3.6939    3.4037    4.7443   C.3       1 RES1   0.0000
   139 C49       3.0789    2.6224    3.5769   C.3       1 RES1   0.0000
   140 C50       2.1194    1.4704    3.9449   C.3       1 RES1   0.0000
   141 N3        2.6185    0.1293    3.6393   N.am      1 RES1   0.0000
   142 C51       3.5960   -0.3017    4.6398   C.3       1 RES1   0.0000
   143 C52       3.0100   -0.8393    5.9598   C.3       1 RES1   0.0000
   144 C53       2.7547    0.1298    7.1171   C.3       1 RES1   0.0000
   145 C54       3.9709    0.8320    7.7171   C.3       1 RES1   0.0000
   146 C55       3.5315    1.7048    8.9017   C.3       1 RES1   0.0000
   147 C56       4.5156    2.8297    9.2602   C.3       1 RES1   0.0000
   148 C57       4.0399    4.2187    8.8034   C.3       1 RES1   0.0000
   149 C58       5.1382    5.0473    8.1469   C.3       1 RES1   0.0000
   150 C59       2.1253   -0.4796    2.5513   C.2       1 RES1   0.0000
   151 O4        1.3837    0.1668    1.7705   O.2       1 RES1   0.0000
   152 C60       2.2837   -1.9953    2.2249   C.3       1 RES1   0.0000
   153 C61       3.6713   -2.6671    2.3314   C.3       1 RES1   0.0000
   154 C62       3.7700   -3.9188    3.2231   C.3       1 RES1   0.0000
   155 C63       3.7663   -3.7328    4.7335   C.3       1 RES1   0.0000
   156 O5        1.7958   -2.1404    0.8704   O.3       1 RES1   0.0000
   157 C64       1.0643   -3.3442    0.5685   C.3       1 RES1   0.0000
   158 C65       1.8493   -4.6500    0.5117   C.3       1 RES1   0.0000
   159 C66       0.8839   -5.8448    0.5732   C.3       1 RES1   0.0000
   160 C67       1.6055   -7.1708    0.3405   C.3       1 RES1   0.0000
   161 C68       0.2614   -2.9861   -0.6969   C.2       1 RES1   0.0000
   162 O6       -0.5350   -2.0261   -0.5274   O.2       1 RES1   0.0000
   163 N4        0.2725   -3.5924   -1.8788   N.am      1 RES1   0.0000
   164 C69      -0.7034   -3.0392   -2.8253   C.3       1 RES1   0.0000
   165 C70      -2.1455   -3.4596   -2.5047   C.3       1 RES1   0.0000
   166 C71      -2.4853   -4.9225   -2.8471   C.3       1 RES1   0.0000
   167 C72      -3.7698   -5.0549   -3.6747   C.3       1 RES1   0.0000
   168 C73      -5.0434   -4.5937   -2.9501   C.3       1 RES1   0.0000
   169 C74      -5.8811   -5.7052   -2.3130   C.3       1 RES1   0.0000
   170 C75      -5.2868   -6.3643   -1.0579   C.3       1 RES1   0.0000
   171 C76      -4.7891   -7.7825   -1.3112   C.3       1 RES1   0.0000
   172 C77       1.1091   -4.6545   -2.4337   C.3       1 RES1   0.0000
   173 C78       2.3986   -4.1607   -3.1036   C.3       1 RES1   0.0000
   174 C79       3.0783   -5.3375   -3.8131   C.3       1 RES1   0.0000
   175 C80       4.3920   -4.9954   -4.5181   C.3       1 RES1   0.0000
   176 C81       5.5892   -4.7605   -3.5850   C.3       1 RES1   0.0000
   177 C82       6.7554   -5.7402   -3.7699   C.3       1 RES1   0.0000
   178 C83       6.4940   -7.1906   -3.3436   C.3       1 RES1   0.0000
   179 C84       5.8400   -8.0762   -4.3986   C.3       1 RES1   0.0000
   180 H85      -0.1545    8.4947    2.8238   H         1 RES1   0.0000
   181 H86      -0.8830    7.2362    3.8144   H         1 RES1   0.0000
   182 H87       0.3771    6.8333    2.6306   H         1 RES1   0.0000
   183 H88       0.7558    8.6075    5.0910   H         1 RES1   0.0000
   184 H89       2.0237    8.1718    3.9576   H         1 RES1   0.0000
   185 H90       0.5057    6.0923    5.5788   H         1 RES1   0.0000
   186 H91       1.9176    6.9157    6.2165   H         1 RES1   0.0000
   187 H92       3.2797    6.1403    4.3261   H         1 RES1   0.0000
   188 H93       1.8824    5.2912    3.6474   H         1 RES1   0.0000
   189 H94       1.8436    3.8652    5.7574   H         1 RES1   0.0000
   190 H95       3.2393    4.7735    6.3063   H         1 RES1   0.0000
   191 H96       4.0608    2.7191    5.5068   H         1 RES1   0.0000
   192 H97       4.5544    3.9562    4.3632   H         1 RES1   0.0000
   193 H98       3.8701    2.2268    2.9358   H         1 RES1   0.0000
   194 H99       2.5269    3.3610    3.0045   H         1 RES1   0.0000
   195 H100      1.1718    1.5728    3.4121   H         1 RES1   0.0000
   196 H101      1.9261    1.4823    5.0179   H         1 RES1   0.0000
   197 H102      4.2222    0.5676    4.8518   H         1 RES1   0.0000
   198 H103      4.2410   -1.0625    4.2149   H         1 RES1   0.0000
   199 H104      3.7135   -1.5730    6.3426   H         1 RES1   0.0000
   200 H105      2.0751   -1.3601    5.7422   H         1 RES1   0.0000
   201 H106      2.3062   -0.4720    7.9104   H         1 RES1   0.0000
   202 H107      2.0187    0.8827    6.8424   H         1 RES1   0.0000
   203 H108      4.4628    1.4484    6.9642   H         1 RES1   0.0000
   204 H109      4.6948    0.0919    8.0554   H         1 RES1   0.0000
   205 H110      3.3715    1.0600    9.7656   H         1 RES1   0.0000
   206 H111      2.5672    2.1548    8.6644   H         1 RES1   0.0000
   207 H112      5.4848    2.6150    8.8089   H         1 RES1   0.0000
   208 H113      4.6597    2.8447   10.3381   H         1 RES1   0.0000
   209 H114      3.6472    4.7753    9.6536   H         1 RES1   0.0000
   210 H115      3.2138    4.1013    8.1029   H         1 RES1   0.0000
   211 H116      5.9601    5.2135    8.8351   H         1 RES1   0.0000
   212 H117      4.7582    6.0223    7.8442   H         1 RES1   0.0000
   213 H118      5.5341    4.5464    7.2638   H         1 RES1   0.0000
   214 H119      1.5709   -2.4859    2.9058   H         1 RES1   0.0000
   215 H120      3.9181   -2.9677    1.3094   H         1 RES1   0.0000
   216 H121      4.4379   -1.9526    2.6183   H         1 RES1   0.0000
   217 H122      4.6961   -4.4224    2.9434   H         1 RES1   0.0000
   218 H123      2.9570   -4.6134    3.0134   H         1 RES1   0.0000
   219 H124      4.5956   -3.1166    5.0661   H         1 RES1   0.0000
   220 H125      3.8713   -4.7072    5.2069   H         1 RES1   0.0000
   221 H126      2.8289   -3.3034    5.0774   H         1 RES1   0.0000
   222 H127      0.2857   -3.4531    1.3444   H         1 RES1   0.0000
   223 H128      2.5067   -4.6674   -0.3543   H         1 RES1   0.0000
   224 H129      2.5010   -4.7360    1.3722   H         1 RES1   0.0000
   225 H130      0.0660   -5.7376   -0.1454   H         1 RES1   0.0000
   226 H131      0.4291   -5.8708    1.5657   H         1 RES1   0.0000
   227 H132      2.0541   -7.2178   -0.6528   H         1 RES1   0.0000
   228 H133      0.9040   -7.9961    0.4407   H         1 RES1   0.0000
   229 H134      2.3930   -7.3169    1.0778   H         1 RES1   0.0000
   230 H135     -0.4368   -3.3745   -3.8265   H         1 RES1   0.0000
   231 H136     -0.6348   -1.9410   -2.7864   H         1 RES1   0.0000
   232 H137     -2.8023   -2.8019   -3.0784   H         1 RES1   0.0000
   233 H138     -2.3418   -3.2743   -1.4446   H         1 RES1   0.0000
   234 H139     -2.5894   -5.5022   -1.9312   H         1 RES1   0.0000
   235 H140     -1.6724   -5.3621   -3.4264   H         1 RES1   0.0000
   236 H141     -3.8863   -6.0992   -3.9674   H         1 RES1   0.0000
   237 H142     -3.6435   -4.4705   -4.5917   H         1 RES1   0.0000
   238 H143     -5.6891   -4.0977   -3.6771   H         1 RES1   0.0000
   239 H144     -4.7832   -3.8564   -2.1865   H         1 RES1   0.0000
   240 H145     -6.0668   -6.4739   -3.0635   H         1 RES1   0.0000
   241 H146     -6.8498   -5.2713   -2.0584   H         1 RES1   0.0000
   242 H147     -6.0569   -6.4076   -0.2836   H         1 RES1   0.0000
   243 H148     -4.4650   -5.7607   -0.6603   H         1 RES1   0.0000
   244 H149     -5.6032   -8.4046   -1.6705   H         1 RES1   0.0000
   245 H150     -4.4092   -8.2261   -0.3948   H         1 RES1   0.0000
   246 H151     -3.9940   -7.7957   -2.0520   H         1 RES1   0.0000
   247 H152      0.5111   -5.1648   -3.1897   H         1 RES1   0.0000
   248 H153      1.3541   -5.4110   -1.6994   H         1 RES1   0.0000
   249 H154      3.0768   -3.7213   -2.3662   H         1 RES1   0.0000
   250 H155      2.1498   -3.3960   -3.8371   H         1 RES1   0.0000
   251 H156      2.3839   -5.7270   -4.5591   H         1 RES1   0.0000
   252 H157      3.2630   -6.1307   -3.0880   H         1 RES1   0.0000
   253 H158      4.2515   -4.1223   -5.1562   H         1 RES1   0.0000
   254 H159      4.6304   -5.8194   -5.1859   H         1 RES1   0.0000
   255 H160      5.2688   -4.7993   -2.5408   H         1 RES1   0.0000
   256 H161      5.9899   -3.7589   -3.7647   H         1 RES1   0.0000
   257 H162      7.5882   -5.3611   -3.1700   H         1 RES1   0.0000
   258 H163      7.0857   -5.7236   -4.8104   H         1 RES1   0.0000
   259 H164      5.8894   -7.2045   -2.4346   H         1 RES1   0.0000
   260 H165      7.4582   -7.6348   -3.0950   H         1 RES1   0.0000
   261 H166      4.8091   -7.7982   -4.5922   H         1 RES1   0.0000
   262 H167      5.8402   -9.1111   -4.0698   H         1 RES1   0.0000
   263 H168      6.3917   -8.0291   -5.3329   H         1 RES1   0.0000
   264 C85      -9.3639   -0.3770    0.3224   C.3       1 RES1   0.0000
   265 C86      -9.0713    1.0387    0.8061   C.3       1 RES1   0.0000
   266 C87      -7.6595    1.1789    1.3772   C.3       1 RES1   0.0000
   267 C88      -7.3933    2.5887    1.9079   C.3       1 RES1   0.0000
   268 C89      -5.9530    2.8349    2.3778   C.3       1 RES1   0.0000
   269 C90      -4.9945    3.2075    1.2467   C.3       1 RES1   0.0000
   270 C91      -3.6373    3.7321    1.7322   C.3       1 RES1   0.0000
   271 C92      -2.6754    2.6374    2.2077   C.3       1 RES1   0.0000
   272 N5       -1.2629    3.0885    2.2016   N.am      1 RES1   0.0000
   273 C93      -0.9946    3.9937    3.3080   C.3       1 RES1   0.0000
   274 C94      -0.6360    3.3816    4.6746   C.3       1 RES1   0.0000
   275 C95      -1.5568    2.4414    5.4644   C.3       1 RES1   0.0000
   276 C96      -0.9777    2.3284    6.8871   C.3       1 RES1   0.0000
   277 C97      -1.7980    1.5504    7.9178   C.3       1 RES1   0.0000
   278 C98      -1.8633    0.0340    7.7348   C.3       1 RES1   0.0000
   279 C99      -0.4908   -0.6334    7.7629   C.3       1 RES1   0.0000
   280 C100     -0.5705   -2.1294    8.0364   C.3       1 RES1   0.0000
   281 C101     -0.5245    2.7204    1.1427   C.2       1 RES1   0.0000
   282 O7       -1.0888    2.0139    0.2825   O.2       1 RES1   0.0000
   283 C102      1.0076    2.9935    0.8082   C.3       1 RES1   0.0000
   284 C103      1.4635    4.4689    0.8039   C.3       1 RES1   0.0000
   285 C104      2.9684    4.7270    0.5642   C.3       1 RES1   0.0000
   286 C105      3.4427    6.0867    1.0820   C.3       1 RES1   0.0000
   287 O8        1.1313    2.2817   -0.4502   O.3       1 RES1   0.0000
   288 C106      2.3637    2.2443   -1.2031   C.3       1 RES1   0.0000
   289 C107      2.2517    3.2246   -2.4068   C.3       1 RES1   0.0000
   290 C108      1.8140    2.5548   -3.7165   C.3       1 RES1   0.0000
   291 C109      1.4063    3.5135   -4.8268   C.3       1 RES1   0.0000
   292 C110      2.5013    0.8132   -1.7607   C.2       1 RES1   0.0000
   293 O9        1.5400    0.0271   -1.6007   O.2       1 RES1   0.0000
   294 N6        3.5622    0.4598   -2.4893   N.am      1 RES1   0.0000
   295 C111      3.4055   -0.7157   -3.3520   C.3       1 RES1   0.0000
   296 C112      2.9139   -0.3365   -4.7606   C.3       1 RES1   0.0000
   297 C113      2.8199   -1.5272   -5.7253   C.3       1 RES1   0.0000
   298 C114      1.3761   -1.9366   -6.0306   C.3       1 RES1   0.0000
   299 C115      1.3329   -3.2530   -6.8083   C.3       1 RES1   0.0000
   300 C116     -0.0366   -3.9286   -6.8772   C.3       1 RES1   0.0000
   301 C117      0.0985   -5.3487   -7.4330   C.3       1 RES1   0.0000
   302 C118     -1.2023   -6.1385   -7.3693   C.3       1 RES1   0.0000
   303 C119      4.7560    1.2770   -2.6923   C.3       1 RES1   0.0000
   304 C120      6.1049    0.5486   -2.6133   C.3       1 RES1   0.0000
   305 C121      6.5655    0.1401   -1.2151   C.3       1 RES1   0.0000
   306 C122      5.8354   -1.0537   -0.5964   C.3       1 RES1   0.0000
   307 C123      6.6947   -1.7384    0.4775   C.3       1 RES1   0.0000
   308 C124      7.0831   -0.8353    1.6503   C.3       1 RES1   0.0000
   309 C125      8.0602   -1.5049    2.6223   C.3       1 RES1   0.0000
   310 C126      7.4441   -2.5903    3.4993   C.3       1 RES1   0.0000
   311 H169    -10.3780   -0.4387   -0.0570   H         1 RES1   0.0000
   312 H170     -9.2585   -1.0928    1.1342   H         1 RES1   0.0000
   313 H171     -8.6819   -0.6628   -0.4774   H         1 RES1   0.0000
   314 H172     -9.7989    1.3124    1.5713   H         1 RES1   0.0000
   315 H173     -9.1924    1.7365   -0.0250   H         1 RES1   0.0000
   316 H174     -6.9344    0.9341    0.5951   H         1 RES1   0.0000
   317 H175     -7.5345    0.4602    2.1940   H         1 RES1   0.0000
   318 H176     -8.0701    2.7630    2.7474   H         1 RES1   0.0000
   319 H177     -7.6430    3.3169    1.1337   H         1 RES1   0.0000
   320 H178     -5.5807    1.9481    2.8900   H         1 RES1   0.0000
   321 H179     -5.9740    3.6489    3.1062   H         1 RES1   0.0000
   322 H180     -5.4582    4.0026    0.6610   H         1 RES1   0.0000
   323 H181     -4.8305    2.3522    0.5905   H         1 RES1   0.0000
   324 H182     -3.8110    4.4582    2.5250   H         1 RES1   0.0000
   325 H183     -3.1584    4.2520    0.9016   H         1 RES1   0.0000
   326 H184     -2.7680    1.7774    1.5455   H         1 RES1   0.0000
   327 H185     -2.9077    2.3382    3.2297   H         1 RES1   0.0000
   328 H186     -1.8778    4.6276    3.4094   H         1 RES1   0.0000
   329 H187     -0.1623    4.6456    3.0526   H         1 RES1   0.0000
   330 H188     -0.4761    4.2539    5.3064   H         1 RES1   0.0000
   331 H189      0.3169    2.8782    4.5697   H         1 RES1   0.0000
   332 H190     -1.5810    1.4489    5.0047   H         1 RES1   0.0000
   333 H191     -2.5745    2.8323    5.5253   H         1 RES1   0.0000
   334 H192     -0.8505    3.3375    7.2841   H         1 RES1   0.0000
   335 H193      0.0165    1.8859    6.8290   H         1 RES1   0.0000
   336 H194     -2.8102    1.9561    7.9512   H         1 RES1   0.0000
   337 H195     -1.3461    1.7368    8.8935   H         1 RES1   0.0000
   338 H196     -2.3746   -0.2161    6.8037   H         1 RES1   0.0000
   339 H197     -2.4644   -0.3691    8.5516   H         1 RES1   0.0000
   340 H198      0.1068   -0.1659    8.5458   H         1 RES1   0.0000
   341 H199      0.0072   -0.4686    6.8047   H         1 RES1   0.0000
   342 H200     -0.9863   -2.3120    9.0225   H         1 RES1   0.0000
   343 H201      0.4194   -2.5785    8.0001   H         1 RES1   0.0000
   344 H202     -1.1994   -2.6287    7.3036   H         1 RES1   0.0000
   345 H203      1.6059    2.4435    1.5446   H         1 RES1   0.0000
   346 H204      0.9037    5.0503    0.0750   H         1 RES1   0.0000
   347 H205      1.2021    4.8830    1.7761   H         1 RES1   0.0000
   348 H206      3.1734    4.6959   -0.5076   H         1 RES1   0.0000
   349 H207      3.5846    3.9665    1.0534   H         1 RES1   0.0000
   350 H208      2.8107    6.9017    0.7366   H         1 RES1   0.0000
   351 H209      4.4536    6.2642    0.7199   H         1 RES1   0.0000
   352 H210      3.4736    6.1077    2.1662   H         1 RES1   0.0000
   353 H211      3.2012    2.4897   -0.5448   H         1 RES1   0.0000
   354 H212      1.5143    3.9789   -2.1386   H         1 RES1   0.0000
   355 H213      3.2102    3.7179   -2.5715   H         1 RES1   0.0000
   356 H214      0.9902    1.8645   -3.5144   H         1 RES1   0.0000
   357 H215      2.6520    1.9859   -4.1006   H         1 RES1   0.0000
   358 H216      0.4221    3.9285   -4.6550   H         1 RES1   0.0000
   359 H217      1.3758    2.9735   -5.7682   H         1 RES1   0.0000
   360 H218      2.1238    4.3223   -4.9266   H         1 RES1   0.0000
   361 H219      2.6768   -1.3688   -2.8742   H         1 RES1   0.0000
   362 H220      4.3577   -1.2387   -3.4125   H         1 RES1   0.0000
   363 H221      3.5865    0.4055   -5.1879   H         1 RES1   0.0000
   364 H222      1.9234    0.1023   -4.6670   H         1 RES1   0.0000
   365 H223      3.3688   -2.3715   -5.3086   H         1 RES1   0.0000
   366 H224      3.3158   -1.2754   -6.6639   H         1 RES1   0.0000
   367 H225      0.8266   -2.0367   -5.0899   H         1 RES1   0.0000
   368 H226      0.8886   -1.1449   -6.6018   H         1 RES1   0.0000
   369 H227      2.0268   -3.9513   -6.3381   H         1 RES1   0.0000
   370 H228      1.6905   -3.0778   -7.8242   H         1 RES1   0.0000
   371 H229     -0.7240   -3.3527   -7.5012   H         1 RES1   0.0000
   372 H230     -0.4787   -3.9892   -5.8760   H         1 RES1   0.0000
   373 H231      0.8614   -5.8815   -6.8571   H         1 RES1   0.0000
   374 H232      0.4502   -5.3064   -8.4656   H         1 RES1   0.0000
   375 H233     -1.5623   -6.2054   -6.3443   H         1 RES1   0.0000
   376 H234     -1.0475   -7.1468   -7.7427   H         1 RES1   0.0000
   377 H235     -1.9714   -5.6665   -7.9705   H         1 RES1   0.0000
   378 H236      4.7677    2.0737   -1.9525   H         1 RES1   0.0000
   379 H237      4.6983    1.7340   -3.6866   H         1 RES1   0.0000
   380 H238      6.8387    1.2576   -3.0036   H         1 RES1   0.0000
   381 H239      6.1243   -0.3129   -3.2781   H         1 RES1   0.0000
   382 H240      6.4928    1.0041   -0.5520   H         1 RES1   0.0000
   383 H241      7.6201   -0.1262   -1.2968   H         1 RES1   0.0000
   384 H242      5.6416   -1.7937   -1.3784   H         1 RES1   0.0000
   385 H243      4.8691   -0.7422   -0.1828   H         1 RES1   0.0000
   386 H244      7.6113   -2.0902   -0.0024   H         1 RES1   0.0000
   387 H245      6.1632   -2.6170    0.8493   H         1 RES1   0.0000
   388 H246      6.1861   -0.5074    2.1884   H         1 RES1   0.0000
   389 H247      7.5758    0.0549    1.2574   H         1 RES1   0.0000
   390 H248      8.4790   -0.7337    3.2715   H         1 RES1   0.0000
   391 H249      8.8866   -1.9335    2.0529   H         1 RES1   0.0000
   392 H250      8.2075   -2.9991    4.1579   H         1 RES1   0.0000
   393 H251      6.6471   -2.1792    4.1204   H         1 RES1   0.0000
   394 H252      7.0435   -3.4068    2.9010   H         1 RES1   0.0000
@<TRIPOS>BOND
     1     1    20    1
     2     1    25    1
     3     1    31    1
     4     1   151    1
     5     1   156    1
     6     1   162    1
     7     1   282    1
     8     1   287    1
     9     1   293    1
    10     2     3    1
    11     2    49    1
    12     2    50    1
    13     2    51    1
    14     3     4    1
    15     3    52    1
    16     3    53    1
    17     4     5    1
    18     4    54    1
    19     4    55    1
    20     5     6    1
    21     5    56    1
    22     5    57    1
    23     6     7    1
    24     6    58    1
    25     6    59    1
    26     7     8    1
    27     7    60    1
    28     7    61    1
    29     8     9    1
    30     8    62    1
    31     8    63    1
    32     9    10    1
    33     9    64    1
    34     9    65    1
    35    10    11    1
    36    10    19    1
    37    11    12    1
    38    11    66    1
    39    11    67    1
    40    12    13    1
    41    12    68    1
    42    12    69    1
    43    13    14    1
    44    13    70    1
    45    13    71    1
    46    14    15    1
    47    14    72    1
    48    14    73    1
    49    15    16    1
    50    15    74    1
    51    15    75    1
    52    16    17    1
    53    16    76    1
    54    16    77    1
    55    17    18    1
    56    17    78    1
    57    17    79    1
    58    18    80    1
    59    18    81    1
    60    18    82    1
    61    19    20    2
    62    19    21    1
    63    21    22    1
    64    21    25    1
    65    21    83    1
    66    22    23    1
    67    22    84    1
    68    22    85    1
    69    23    24    1
    70    23    86    1
    71    23    87    1
    72    24    88    1
    73    24    89    1
    74    24    90    1
    75    25    26    1
    76    26    27    1
    77    26    30    1
    78    26    91    1
    79    27    28    1
    80    27    92    1
    81    27    93    1
    82    28    29    1
    83    28    94    1
    84    28    95    1
    85    29    96    1
    86    29    97    1
    87    29    98    1
    88    30    31    2
    89    30    32    1
    90    32    33    1
    91    32    41    1
    92    33    34    1
    93    33    99    1
    94    33   100    1
    95    34    35    1
    96    34   101    1
    97    34   102    1
    98    35    36    1
    99    35   103    1
   100    35   104    1
   101    36    37    1
   102    36   105    1
   103    36   106    1
   104    37    38    1
   105    37   107    1
   106    37   108    1
   107    38    39    1
   108    38   109    1
   109    38   110    1
   110    39    40    1
   111    39   111    1
   112    39   112    1
   113    40   113    1
   114    40   114    1
   115    40   115    1
   116    41    42    1
   117    41   116    1
   118    41   117    1
   119    42    43    1
   120    42   118    1
   121    42   119    1
   122    43    44    1
   123    43   120    1
   124    43   121    1
   125    44    45    1
   126    44   122    1
   127    44   123    1
   128    45    46    1
   129    45   124    1
   130    45   125    1
   131    46    47    1
   132    46   126    1
   133    46   127    1
   134    47    48    1
   135    47   128    1
   136    47   129    1
   137    48   130    1
   138    48   131    1
   139    48   132    1
   140   133   134    1
   141   133   180    1
   142   133   181    1
   143   133   182    1
   144   134   135    1
   145   134   183    1
   146   134   184    1
   147   135   136    1
   148   135   185    1
   149   135   186    1
   150   136   137    1
   151   136   187    1
   152   136   188    1
   153   137   138    1
   154   137   189    1
   155   137   190    1
   156   138   139    1
   157   138   191    1
   158   138   192    1
   159   139   140    1
   160   139   193    1
   161   139   194    1
   162   140   141    1
   163   140   195    1
   164   140   196    1
   165   141   142    1
   166   141   150    1
   167   142   143    1
   168   142   197    1
   169   142   198    1
   170   143   144    1
   171   143   199    1
   172   143   200    1
   173   144   145    1
   174   144   201    1
   175   144   202    1
   176   145   146    1
   177   145   203    1
   178   145   204    1
   179   146   147    1
   180   146   205    1
   181   146   206    1
   182   147   148    1
   183   147   207    1
   184   147   208    1
   185   148   149    1
   186   148   209    1
   187   148   210    1
   188   149   211    1
   189   149   212    1
   190   149   213    1
   191   150   151    2
   192   150   152    1
   193   152   153    1
   194   152   156    1
   195   152   214    1
   196   153   154    1
   197   153   215    1
   198   153   216    1
   199   154   155    1
   200   154   217    1
   201   154   218    1
   202   155   219    1
   203   155   220    1
   204   155   221    1
   205   156   157    1
   206   157   158    1
   207   157   161    1
   208   157   222    1
   209   158   159    1
   210   158   223    1
   211   158   224    1
   212   159   160    1
   213   159   225    1
   214   159   226    1
   215   160   227    1
   216   160   228    1
   217   160   229    1
   218   161   162    2
   219   161   163    1
   220   163   164    1
   221   163   172    1
   222   164   165    1
   223   164   230    1
   224   164   231    1
   225   165   166    1
   226   165   232    1
   227   165   233    1
   228   166   167    1
   229   166   234    1
   230   166   235    1
   231   167   168    1
   232   167   236    1
   233   167   237    1
   234   168   169    1
   235   168   238    1
   236   168   239    1
   237   169   170    1
   238   169   240    1
   239   169   241    1
   240   170   171    1
   241   170   242    1
   242   170   243    1
   243   171   244    1
   244   171   245    1
   245   171   246    1
   246   172   173    1
   247   172   247    1
   248   172   248    1
   249   173   174    1
   250   173   249    1
   251   173   250    1
   252   174   175    1
   253   174   251    1
   254   174   252    1
   255   175   176    1
   256   175   253    1
   257   175   254    1
   258   176   177    1
   259   176   255    1
   260   176   256    1
   261   177   178    1
   262   177   257    1
   263   177   258    1
   264   178   179    1
   265   178   259    1
   266   178   260    1
   267   179   261    1
   268   179   262    1
   269   179   263    1
   270   264   265    1
   271   264   311    1
   272   264   312    1
   273   264   313    1
   274   265   266    1
   275   265   314    1
   276   265   315    1
   277   266   267    1
   278   266   316    1
   279   266   317    1
   280   267   268    1
   281   267   318    1
   282   267   319    1
   283   268   269    1
   284   268   320    1
   285   268   321    1
   286   269   270    1
   287   269   322    1
   288   269   323    1
   289   270   271    1
   290   270   324    1
   291   270   325    1
   292   271   272    1
   293   271   326    1
   294   271   327    1
   295   272   273    1
   296   272   281    1
   297   273   274    1
   298   273   328    1
   299   273   329    1
   300   274   275    1
   301   274   330    1
   302   274   331    1
   303   275   276    1
   304   275   332    1
   305   275   333    1
   306   276   277    1
   307   276   334    1
   308   276   335    1
   309   277   278    1
   310   277   336    1
   311   277   337    1
   312   278   279    1
   313   278   338    1
   314   278   339    1
   315   279   280    1
   316   279   340    1
   317   279   341    1
   318   280   342    1
   319   280   343    1
   320   280   344    1
   321   281   282    2
   322   281   283    1
   323   283   284    1
   324   283   287    1
   325   283   345    1
   326   284   285    1
   327   284   346    1
   328   284   347    1
   329   285   286    1
   330   285   348    1
   331   285   349    1
   332   286   350    1
   333   286   351    1
   334   286   352    1
   335   287   288    1
   336   288   289    1
   337   288   292    1
   338   288   353    1
   339   289   290    1
   340   289   354    1
   341   289   355    1
   342   290   291    1
   343   290   356    1
   344   290   357    1
   345   291   358    1
   346   291   359    1
   347   291   360    1
   348   292   293    2
   349   292   294    1
   350   294   295    1
   351   294   303    1
   352   295   296    1
   353   295   361    1
   354   295   362    1
   355   296   297    1
   356   296   363    1
   357   296   364    1
   358   297   298    1
   359   297   365    1
   360   297   366    1
   361   298   299    1
   362   298   367    1
   363   298   368    1
   364   299   300    1
   365   299   369    1
   366   299   370    1
   367   300   301    1
   368   300   371    1
   369   300   372    1
   370   301   302    1
   371   301   373    1
   372   301   374    1
   373   302   375    1
   374   302   376    1
   375   302   377    1
   376   303   304    1
   377   303   378    1
   378   303   379    1
   379   304   305    1
   380   304   380    1
   381   304   381    1
   382   305   306    1
   383   305   382    1
   384   305   383    1
   385   306   307    1
   386   306   384    1
   387   306   385    1
   388   307   308    1
   389   307   386    1
   390   307   387    1
   391   308   309    1
   392   308   388    1
   393   308   389    1
   394   309   310    1
   395   309   390    1
   396   309   391    1
   397   310   392    1
   398   310   393    1
   399   310   394    1
@<TRIPOS>SUBSTRUCTURE
     1 RES1      394 GROUP             0 ****  ****    0  
