@<TRIPOS>MOLECULE
am_c3_9H2O_c0_0_nunpairedes_0_charge_3 Charge: 3 Unpaired_Electrons: 1 XTB_Unpaired_Electrons: 0 XTB_Charge: 3
   130   141     1     0     0
SMALL
NoCharges
****
Generated from Architector

@<TRIPOS>ATOM
     1 Ce1      -0.1085   -0.0171    0.0432   Ce        1 RES1   0.0000
     2 C1       -1.2999    3.6966    3.1241   C.3       1 RES1   0.0000
     3 N1       -1.2013    3.9448    1.6885   N.am      1 RES1   0.0000
     4 C2       -1.0501    2.8859    0.8983   C.2       1 RES1   0.0000
     5 O1       -0.8625    1.7423    1.3472   O.2       1 RES1   0.0000
     6 C3       -1.0844    3.0674   -0.6343   C.3       1 RES1   0.0000
     7 O2       -1.2532    1.8219   -1.3098   O.3       1 RES1   0.0000
     8 C4       -2.5812    1.5309   -1.7598   C.3       1 RES1   0.0000
     9 C5       -3.2087    0.3619   -0.9602   C.2       1 RES1   0.0000
    10 O3       -2.5259   -0.1066   -0.0410   O.2       1 RES1   0.0000
    11 N2       -4.4108   -0.0635   -1.3593   N.am      1 RES1   0.0000
    12 C6       -5.1817    0.6987   -2.3356   C.3       1 RES1   0.0000
    13 C7       -5.0956   -1.2066   -0.8166   C.ar      1 RES1   0.0000
    14 C8       -6.4440   -1.4009   -1.1266   C.ar      1 RES1   0.0000
    15 C9       -7.1451   -2.4867   -0.6322   C.ar      1 RES1   0.0000
    16 C10      -6.5270   -3.4088    0.1900   C.ar      1 RES1   0.0000
    17 C11      -5.1879   -3.2271    0.4952   C.ar      1 RES1   0.0000
    18 C12      -4.4689   -2.1497   -0.0029   C.ar      1 RES1   0.0000
    19 C13      -1.2468    5.2859    1.2073   C.ar      1 RES1   0.0000
    20 C14      -2.2205    6.1510    1.6883   C.ar      1 RES1   0.0000
    21 C15      -2.2546    7.4583    1.2358   C.ar      1 RES1   0.0000
    22 C16      -1.3556    7.8970    0.2807   C.ar      1 RES1   0.0000
    23 C17      -0.3805    7.0330   -0.1852   C.ar      1 RES1   0.0000
    24 C18      -0.3024    5.7380    0.2908   C.ar      1 RES1   0.0000
    25 H1       -0.4106    3.1638    3.4673   H         1 RES1   0.0000
    26 H2       -1.3866    4.6404    3.6551   H         1 RES1   0.0000
    27 H3       -2.1698    3.0736    3.3436   H         1 RES1   0.0000
    28 H4       -1.8599    3.7862   -0.9162   H         1 RES1   0.0000
    29 H5       -0.1165    3.4349   -0.9880   H         1 RES1   0.0000
    30 H6       -3.2073    2.4221   -1.6827   H         1 RES1   0.0000
    31 H7       -2.4908    1.2282   -2.8108   H         1 RES1   0.0000
    32 H8       -4.5949    1.4644   -2.8298   H         1 RES1   0.0000
    33 H9       -5.5689    0.0225   -3.0996   H         1 RES1   0.0000
    34 H10      -6.0201    1.1860   -1.8289   H         1 RES1   0.0000
    35 H11      -6.9972   -0.7234   -1.7515   H         1 RES1   0.0000
    36 H12      -8.1865   -2.5971   -0.8902   H         1 RES1   0.0000
    37 H13      -7.0752   -4.2494    0.5891   H         1 RES1   0.0000
    38 H14      -4.7035   -3.9395    1.1455   H         1 RES1   0.0000
    39 H15      -3.4243   -2.0510    0.2523   H         1 RES1   0.0000
    40 H16      -2.9402    5.8010    2.4136   H         1 RES1   0.0000
    41 H17      -2.9923    8.1279    1.6380   H         1 RES1   0.0000
    42 H18      -1.4039    8.9049   -0.0954   H         1 RES1   0.0000
    43 H19       0.3289    7.3765   -0.9157   H         1 RES1   0.0000
    44 H20       0.5135    5.1021   -0.0246   H         1 RES1   0.0000
    45 C19       2.0364    0.2136   -4.6799   C.3       1 RES1   0.0000
    46 N3        2.1444    1.3261   -3.7518   N.am      1 RES1   0.0000
    47 C20       1.8656    1.1273   -2.4725   C.2       1 RES1   0.0000
    48 O4        1.3476    0.0907   -2.0140   O.2       1 RES1   0.0000
    49 C21       2.3172    2.2017   -1.4782   C.3       1 RES1   0.0000
    50 O5        1.7344    1.8311   -0.2371   O.3       1 RES1   0.0000
    51 C22       2.3177    2.4386    0.9074   C.3       1 RES1   0.0000
    52 C23       2.2508    1.3900    2.0405   C.2       1 RES1   0.0000
    53 O6        1.7060    0.3104    1.7568   O.2       1 RES1   0.0000
    54 N4        2.8212    1.7345    3.1961   N.am      1 RES1   0.0000
    55 C24       3.3097    3.0929    3.4046   C.3       1 RES1   0.0000
    56 C25       3.1081    0.8322    4.2733   C.ar      1 RES1   0.0000
    57 C26       3.8834    1.2642    5.3516   C.ar      1 RES1   0.0000
    58 C27       4.2460    0.3890    6.3598   C.ar      1 RES1   0.0000
    59 C28       3.8605   -0.9365    6.3230   C.ar      1 RES1   0.0000
    60 C29       3.0773   -1.3633    5.2648   C.ar      1 RES1   0.0000
    61 C30       2.6908   -0.4961    4.2563   C.ar      1 RES1   0.0000
    62 C31       2.3813    2.6293   -4.3022   C.ar      1 RES1   0.0000
    63 C32       3.5290    2.8925   -5.0359   C.ar      1 RES1   0.0000
    64 C33       3.7004    4.1471   -5.6005   C.ar      1 RES1   0.0000
    65 C34       2.7415    5.1305   -5.4368   C.ar      1 RES1   0.0000
    66 C35       1.5873    4.8518   -4.7222   C.ar      1 RES1   0.0000
    67 C36       1.3954    3.6025   -4.1603   C.ar      1 RES1   0.0000
    68 H21       1.0267   -0.1992   -4.6815   H         1 RES1   0.0000
    69 H22       2.2870    0.5722   -5.6726   H         1 RES1   0.0000
    70 H23       2.7354   -0.5731   -4.3944   H         1 RES1   0.0000
    71 H24       3.4165    2.1668   -1.4201   H         1 RES1   0.0000
    72 H25       2.0216    3.2185   -1.7672   H         1 RES1   0.0000
    73 H26       3.3636    2.7038    0.7134   H         1 RES1   0.0000
    74 H27       1.7474    3.3426    1.1634   H         1 RES1   0.0000
    75 H28       2.9957    3.7891    2.6341   H         1 RES1   0.0000
    76 H29       2.9155    3.4472    4.3582   H         1 RES1   0.0000
    77 H30       4.4015    3.0931    3.4396   H         1 RES1   0.0000
    78 H31       4.2394    2.2735    5.4508   H         1 RES1   0.0000
    79 H32       4.8529    0.7545    7.1708   H         1 RES1   0.0000
    80 H33       4.1682   -1.6254    7.0946   H         1 RES1   0.0000
    81 H34       2.7798   -2.3986    5.2235   H         1 RES1   0.0000
    82 H35       2.0654   -0.8546    3.4567   H         1 RES1   0.0000
    83 H36       4.2805    2.1294   -5.1754   H         1 RES1   0.0000
    84 H37       4.5847    4.3475   -6.1792   H         1 RES1   0.0000
    85 H38       2.8770    6.1079   -5.8709   H         1 RES1   0.0000
    86 H39       0.8266    5.6067   -4.6214   H         1 RES1   0.0000
    87 H40       0.4741    3.3586   -3.6428   H         1 RES1   0.0000
    88 C37       0.0878   -3.7737    4.0532   C.3       1 RES1   0.0000
    89 N5       -0.6025   -2.6418    3.4573   N.am      1 RES1   0.0000
    90 C38      -0.2603   -2.1841    2.2565   C.2       1 RES1   0.0000
    91 O7       -0.7702   -1.1949    1.7143   O.2       1 RES1   0.0000
    92 C39       0.8529   -2.8947    1.4499   C.3       1 RES1   0.0000
    93 O8        0.9988   -2.1765    0.2258   O.3       1 RES1   0.0000
    94 C40       1.1311   -2.9329   -0.9724   C.3       1 RES1   0.0000
    95 C41      -0.0335   -2.5416   -1.9088   C.2       1 RES1   0.0000
    96 O9       -0.7697   -1.6286   -1.4909   O.2       1 RES1   0.0000
    97 N6       -0.1515   -3.1541   -3.0858   N.am      1 RES1   0.0000
    98 C42       0.7531   -4.2247   -3.4837   C.3       1 RES1   0.0000
    99 C43      -1.1880   -2.8732   -4.0392   C.ar      1 RES1   0.0000
   100 C44      -2.0851   -1.8196   -3.8718   C.ar      1 RES1   0.0000
   101 C45      -3.0817   -1.5807   -4.8031   C.ar      1 RES1   0.0000
   102 C46      -3.2169   -2.3744   -5.9260   C.ar      1 RES1   0.0000
   103 C47      -2.3271   -3.4183   -6.1019   C.ar      1 RES1   0.0000
   104 C48      -1.3254   -3.6691   -5.1793   C.ar      1 RES1   0.0000
   105 C49      -1.6695   -2.0824    4.2457   C.ar      1 RES1   0.0000
   106 C50      -2.5315   -1.0899    3.7747   C.ar      1 RES1   0.0000
   107 C51      -3.5621   -0.6181    4.5741   C.ar      1 RES1   0.0000
   108 C52      -3.7712   -1.1103    5.8486   C.ar      1 RES1   0.0000
   109 C53      -2.9228   -2.0967    6.3170   C.ar      1 RES1   0.0000
   110 C54      -1.8879   -2.5767    5.5332   C.ar      1 RES1   0.0000
   111 H41       0.8805   -4.1518    3.4174   H         1 RES1   0.0000
   112 H42       0.5313   -3.4630    5.0012   H         1 RES1   0.0000
   113 H43      -0.6245   -4.5809    4.2374   H         1 RES1   0.0000
   114 H44       1.8072   -2.8283    1.9887   H         1 RES1   0.0000
   115 H45       0.5899   -3.9429    1.2764   H         1 RES1   0.0000
   116 H46       2.0747   -2.6203   -1.4386   H         1 RES1   0.0000
   117 H47       1.1517   -4.0048   -0.7646   H         1 RES1   0.0000
   118 H48       1.5823   -4.3566   -2.7983   H         1 RES1   0.0000
   119 H49       0.1971   -5.1642   -3.5376   H         1 RES1   0.0000
   120 H50       1.1618   -3.9891   -4.4684   H         1 RES1   0.0000
   121 H51      -2.0253   -1.1821   -3.0069   H         1 RES1   0.0000
   122 H52      -3.7634   -0.7623   -4.6368   H         1 RES1   0.0000
   123 H53      -3.9987   -2.1933   -6.6471   H         1 RES1   0.0000
   124 H54      -2.4195   -4.0519   -6.9688   H         1 RES1   0.0000
   125 H55      -0.6767   -4.5008   -5.3875   H         1 RES1   0.0000
   126 H56      -2.4278   -0.6687    2.7867   H         1 RES1   0.0000
   127 H57      -4.2166    0.1409    4.1754   H         1 RES1   0.0000
   128 H58      -4.5804   -0.7468    6.4635   H         1 RES1   0.0000
   129 H59      -3.0773   -2.5072    7.3015   H         1 RES1   0.0000
   130 H60      -1.2740   -3.3455    5.9656   H         1 RES1   0.0000
@<TRIPOS>BOND
     1     1     5    1
     2     1     7    1
     3     1    10    1
     4     1    48    1
     5     1    50    1
     6     1    53    1
     7     1    91    1
     8     1    93    1
     9     1    96    1
    10     2     3    1
    11     2    25    1
    12     2    26    1
    13     2    27    1
    14     3     4    1
    15     3    19    1
    16     4     5    2
    17     4     6    1
    18     6     7    1
    19     6    28    1
    20     6    29    1
    21     7     8    1
    22     8     9    1
    23     8    30    1
    24     8    31    1
    25     9    10    2
    26     9    11    1
    27    11    12    1
    28    11    13    1
    29    12    32    1
    30    12    33    1
    31    12    34    1
    32    13    14    1
    33    13    18    2
    34    14    15    2
    35    14    35    1
    36    15    16    1
    37    15    36    1
    38    16    17    2
    39    16    37    1
    40    17    18    1
    41    17    38    1
    42    18    39    1
    43    19    20    1
    44    19    24    2
    45    20    21    2
    46    20    40    1
    47    21    22    1
    48    21    41    1
    49    22    23    2
    50    22    42    1
    51    23    24    1
    52    23    43    1
    53    24    44    1
    54    45    46    1
    55    45    68    1
    56    45    69    1
    57    45    70    1
    58    46    47    1
    59    46    62    1
    60    47    48    2
    61    47    49    1
    62    49    50    1
    63    49    71    1
    64    49    72    1
    65    50    51    1
    66    51    52    1
    67    51    73    1
    68    51    74    1
    69    52    53    2
    70    52    54    1
    71    54    55    1
    72    54    56    1
    73    55    75    1
    74    55    76    1
    75    55    77    1
    76    56    57    1
    77    56    61    2
    78    57    58    2
    79    57    78    1
    80    58    59    1
    81    58    79    1
    82    59    60    2
    83    59    80    1
    84    60    61    1
    85    60    81    1
    86    61    82    1
    87    62    63    1
    88    62    67    2
    89    63    64    2
    90    63    83    1
    91    64    65    1
    92    64    84    1
    93    65    66    2
    94    65    85    1
    95    66    67    1
    96    66    86    1
    97    67    87    1
    98    88    89    1
    99    88   111    1
   100    88   112    1
   101    88   113    1
   102    89    90    1
   103    89   105    1
   104    90    91    2
   105    90    92    1
   106    92    93    1
   107    92   114    1
   108    92   115    1
   109    93    94    1
   110    94    95    1
   111    94   116    1
   112    94   117    1
   113    95    96    2
   114    95    97    1
   115    97    98    1
   116    97    99    1
   117    98   118    1
   118    98   119    1
   119    98   120    1
   120    99   100    1
   121    99   104    2
   122   100   101    2
   123   100   121    1
   124   101   102    1
   125   101   122    1
   126   102   103    2
   127   102   123    1
   128   103   104    1
   129   103   124    1
   130   104   125    1
   131   105   106    1
   132   105   110    2
   133   106   107    2
   134   106   126    1
   135   107   108    1
   136   107   127    1
   137   108   109    2
   138   108   128    1
   139   109   110    1
   140   109   129    1
   141   110   130    1
@<TRIPOS>SUBSTRUCTURE
     1 RES1      130 GROUP             0 ****  ****    0  
