@<TRIPOS>MOLECULE
am_c3_9H2O_c0_0_nunpairedes_0_charge_3 Charge: 3 Unpaired_Electrons: 1 XTB_Unpaired_Electrons: 0 XTB_Charge: 3
   104   119     1     0     0
SMALL
NoCharges
****
Generated from Architector

@<TRIPOS>ATOM
     1 Ce1       0.0819    0.1394    0.0158   Ce        1 RES1   0.0000
     2 O1       -0.3720   -0.5177   -2.2764   O.2       1 RES1   0.0000
     3 C1       -1.1155   -1.4599   -2.6471   C.2       1 RES1   0.0000
     4 C2       -2.1273   -1.9107   -1.6356   C.ar      1 RES1   0.0000
     5 C3       -3.2292   -2.7381   -1.8481   C.ar      1 RES1   0.0000
     6 C4       -4.1286   -2.9330   -0.8095   C.ar      1 RES1   0.0000
     7 Cl1      -5.4747   -3.9521   -1.0434   Cl        1 RES1   0.0000
     8 C5       -3.9515   -2.2521    0.4200   C.ar      1 RES1   0.0000
     9 C6       -4.8662   -2.3465    1.5037   C.ar      1 RES1   0.0000
    10 C7       -4.6611   -1.6535    2.6536   C.ar      1 RES1   0.0000
    11 C8       -3.5486   -0.7803    2.7954   C.ar      1 RES1   0.0000
    12 C9       -3.3014   -0.0081    3.9574   C.ar      1 RES1   0.0000
    13 Cl2      -4.3957   -0.0549    5.2681   Cl        1 RES1   0.0000
    14 C10      -2.1548    0.7699    4.0431   C.ar      1 RES1   0.0000
    15 C11      -1.2841    0.8246    2.9503   C.ar      1 RES1   0.0000
    16 C12       0.0721    1.4858    2.8703   C.2       1 RES1   0.0000
    17 O2        0.6728    1.4022    1.7701   O.2       1 RES1   0.0000
    18 N1        0.6697    2.1038    3.8733   N.am      1 RES1   0.0000
    19 C13       1.9639    2.7265    3.5879   C.3       1 RES1   0.0000
    20 C14       2.2469    3.5766    4.8132   C.3       1 RES1   0.0000
    21 C15       1.6176    2.7420    5.9227   C.3       1 RES1   0.0000
    22 C16       0.3160    2.2632    5.2764   C.3       1 RES1   0.0000
    23 N2       -1.5737    0.1909    1.8132   N.ar      1 RES1   0.0000
    24 C17      -2.6232   -0.6353    1.7354   C.ar      1 RES1   0.0000
    25 C18      -2.8084   -1.4233    0.5280   C.ar      1 RES1   0.0000
    26 N3       -1.9091   -1.3135   -0.4592   N.ar      1 RES1   0.0000
    27 N4       -0.9741   -1.9403   -3.8696   N.am      1 RES1   0.0000
    28 C19      -1.7485   -2.9139   -4.6238   C.3       1 RES1   0.0000
    29 C20      -0.9692   -3.0702   -5.9304   C.3       1 RES1   0.0000
    30 C21      -0.3620   -1.6845   -6.1270   C.3       1 RES1   0.0000
    31 C22       0.0530   -1.3269   -4.7114   C.3       1 RES1   0.0000
    32 H1       -3.4172   -3.2160   -2.7920   H         1 RES1   0.0000
    33 H2       -5.7300   -2.9811    1.3908   H         1 RES1   0.0000
    34 H3       -5.3498   -1.7467    3.4764   H         1 RES1   0.0000
    35 H4       -1.9778    1.3248    4.9450   H         1 RES1   0.0000
    36 H5        1.8983    3.2914    2.6575   H         1 RES1   0.0000
    37 H6        2.7097    1.9373    3.4554   H         1 RES1   0.0000
    38 H7        1.7430    4.5385    4.7388   H         1 RES1   0.0000
    39 H8        3.3076    3.7508    4.9577   H         1 RES1   0.0000
    40 H9        1.4361    3.2980    6.8374   H         1 RES1   0.0000
    41 H10       2.2555    1.8893    6.1554   H         1 RES1   0.0000
    42 H11      -0.4632    3.0270    5.3683   H         1 RES1   0.0000
    43 H12      -0.0216    1.3198    5.7072   H         1 RES1   0.0000
    44 H13      -2.7393   -2.4908   -4.8184   H         1 RES1   0.0000
    45 H14      -1.8353   -3.8603   -4.0895   H         1 RES1   0.0000
    46 H15      -1.6177   -3.3704   -6.7473   H         1 RES1   0.0000
    47 H16      -0.1750   -3.8076   -5.8152   H         1 RES1   0.0000
    48 H17      -1.1182   -0.9897   -6.4888   H         1 RES1   0.0000
    49 H18       0.4798   -1.6744   -6.8116   H         1 RES1   0.0000
    50 H19       0.1009   -0.2563   -4.5067   H         1 RES1   0.0000
    51 H20       1.0178   -1.7705   -4.4481   H         1 RES1   0.0000
    52 O3        0.3352    2.3088   -0.8403   O.2       1 RES1   0.0000
    53 C23       0.9225    2.5074   -1.9307   C.2       1 RES1   0.0000
    54 C24       1.9939    1.5247   -2.3227   C.ar      1 RES1   0.0000
    55 C25       2.8972    1.6657   -3.3786   C.ar      1 RES1   0.0000
    56 C26       3.7209    0.6032   -3.7200   C.ar      1 RES1   0.0000
    57 Cl3       4.8231    0.7607   -5.0134   Cl        1 RES1   0.0000
    58 C27       3.6269   -0.6125   -2.9993   C.ar      1 RES1   0.0000
    59 C28       4.3652   -1.7782   -3.3364   C.ar      1 RES1   0.0000
    60 C29       4.2652   -2.9115   -2.5973   C.ar      1 RES1   0.0000
    61 C30       3.4151   -2.9706   -1.4628   C.ar      1 RES1   0.0000
    62 C31       3.2845   -4.1242   -0.6499   C.ar      1 RES1   0.0000
    63 Cl4       4.1718   -5.5402   -0.9968   Cl        1 RES1   0.0000
    64 C32       2.4311   -4.0966    0.4449   C.ar      1 RES1   0.0000
    65 C33       1.7043   -2.9380    0.7114   C.ar      1 RES1   0.0000
    66 C34       0.7749   -2.6774    1.8582   C.2       1 RES1   0.0000
    67 O4        0.2203   -1.5578    1.8359   O.2       1 RES1   0.0000
    68 N5        0.5290   -3.4950    2.8730   N.am      1 RES1   0.0000
    69 C35       1.0123   -4.8283    3.2041   C.3       1 RES1   0.0000
    70 C36       0.2377   -5.1928    4.4744   C.3       1 RES1   0.0000
    71 C37       0.0314   -3.8381    5.1420   C.3       1 RES1   0.0000
    72 C38      -0.3032   -2.9605    3.9503   C.3       1 RES1   0.0000
    73 N6        1.7907   -1.8511   -0.0663   N.ar      1 RES1   0.0000
    74 C39       2.6354   -1.8417   -1.1062   C.ar      1 RES1   0.0000
    75 C40       2.7450   -0.6258   -1.8920   C.ar      1 RES1   0.0000
    76 N7        1.9782    0.4262   -1.5623   N.ar      1 RES1   0.0000
    77 N8        0.5299    3.5172   -2.6910   N.am      1 RES1   0.0000
    78 C41      -0.5249    4.3852   -2.1610   C.3       1 RES1   0.0000
    79 C42      -0.6317    5.5163   -3.1703   C.3       1 RES1   0.0000
    80 C43      -0.2628    4.8127   -4.4717   C.3       1 RES1   0.0000
    81 C44       0.9078    3.9348   -4.0333   C.3       1 RES1   0.0000
    82 H21       2.9915    2.5831   -3.9281   H         1 RES1   0.0000
    83 H22       5.0184   -1.7452   -4.1929   H         1 RES1   0.0000
    84 H23       4.8295   -3.7912   -2.8612   H         1 RES1   0.0000
    85 H24       2.3406   -4.9799    1.0494   H         1 RES1   0.0000
    86 H25       2.0878   -4.7809    3.4019   H         1 RES1   0.0000
    87 H26       0.8077   -5.5378    2.4005   H         1 RES1   0.0000
    88 H27       0.7829   -5.8998    5.0923   H         1 RES1   0.0000
    89 H28      -0.7289   -5.6262    4.2169   H         1 RES1   0.0000
    90 H29       0.9561   -3.5061    5.6111   H         1 RES1   0.0000
    91 H30      -0.7574   -3.8407    5.8871   H         1 RES1   0.0000
    92 H31      -0.0738   -1.9043    4.0951   H         1 RES1   0.0000
    93 H32      -1.3545   -3.0500    3.6618   H         1 RES1   0.0000
    94 H33      -0.2648    4.7087   -1.1528   H         1 RES1   0.0000
    95 H34      -1.4577    3.8142   -2.1111   H         1 RES1   0.0000
    96 H35       0.0945    6.2968   -2.9536   H         1 RES1   0.0000
    97 H36      -1.6222    5.9584   -3.1902   H         1 RES1   0.0000
    98 H37       0.0214    5.4946   -5.2665   H         1 RES1   0.0000
    99 H38      -1.0920    4.1948   -4.8194   H         1 RES1   0.0000
   100 H39       1.8206    4.5358   -3.9699   H         1 RES1   0.0000
   101 H40       1.0505    3.0806   -4.6951   H         1 RES1   0.0000
   102 O5       -2.2055    1.4082   -0.6175   O.3       1 RES1   0.0000
   103 H41      -2.2239    2.2606   -0.1590   H         1 RES1   0.0000
   104 H42      -2.3107    1.6037   -1.5577   H         1 RES1   0.0000
@<TRIPOS>BOND
     1     1     2    1
     2     1    17    1
     3     1    23    1
     4     1    26    1
     5     1    52    1
     6     1    67    1
     7     1    73    1
     8     1    76    1
     9     1   102    1
    10     2     3    2
    11     3     4    1
    12     3    27    1
    13     4     5    1
    14     4    26    2
    15     5     6    2
    16     5    32    1
    17     6     7    1
    18     6     8    1
    19     8     9    1
    20     8    25    2
    21     9    10    2
    22     9    33    1
    23    10    11    1
    24    10    34    1
    25    11    12    1
    26    11    24    2
    27    12    13    1
    28    12    14    2
    29    14    15    1
    30    14    35    1
    31    15    16    1
    32    15    23    2
    33    16    17    2
    34    16    18    1
    35    18    19    1
    36    18    22    1
    37    19    20    1
    38    19    36    1
    39    19    37    1
    40    20    21    1
    41    20    38    1
    42    20    39    1
    43    21    22    1
    44    21    40    1
    45    21    41    1
    46    22    42    1
    47    22    43    1
    48    23    24    1
    49    24    25    1
    50    25    26    1
    51    27    28    1
    52    27    31    1
    53    28    29    1
    54    28    44    1
    55    28    45    1
    56    29    30    1
    57    29    46    1
    58    29    47    1
    59    30    31    1
    60    30    48    1
    61    30    49    1
    62    31    50    1
    63    31    51    1
    64    52    53    2
    65    53    54    1
    66    53    77    1
    67    54    55    1
    68    54    76    2
    69    55    56    2
    70    55    82    1
    71    56    57    1
    72    56    58    1
    73    58    59    1
    74    58    75    2
    75    59    60    2
    76    59    83    1
    77    60    61    1
    78    60    84    1
    79    61    62    1
    80    61    74    2
    81    62    63    1
    82    62    64    2
    83    64    65    1
    84    64    85    1
    85    65    66    1
    86    65    73    2
    87    66    67    2
    88    66    68    1
    89    68    69    1
    90    68    72    1
    91    69    70    1
    92    69    86    1
    93    69    87    1
    94    70    71    1
    95    70    88    1
    96    70    89    1
    97    71    72    1
    98    71    90    1
    99    71    91    1
   100    72    92    1
   101    72    93    1
   102    73    74    1
   103    74    75    1
   104    75    76    1
   105    77    78    1
   106    77    81    1
   107    78    79    1
   108    78    94    1
   109    78    95    1
   110    79    80    1
   111    79    96    1
   112    79    97    1
   113    80    81    1
   114    80    98    1
   115    80    99    1
   116    81   100    1
   117    81   101    1
   118   102   103    1
   119   102   104    1
@<TRIPOS>SUBSTRUCTURE
     1 RES1      104 GROUP             0 ****  ****    0  
