@<TRIPOS>MOLECULE
am_c3_9H2O_c0_0_nunpairedes_0_charge_3 Charge: 3 Unpaired_Electrons: 1 XTB_Unpaired_Electrons: 0 XTB_Charge: 3
   130   141     1     0     0
SMALL
NoCharges
****
Generated from Architector

@<TRIPOS>ATOM
     1 Ce1       0.1010   -0.2840   -0.1218   Ce        1 RES1   0.0000
     2 O1       -2.2511   -0.1172    0.0915   O.2       1 RES1   0.0000
     3 C1       -2.7697    0.2340    1.1679   C.2       1 RES1   0.0000
     4 C2       -1.9309    1.1499    2.0819   C.3       1 RES1   0.0000
     5 O2       -0.8047    1.6309    1.3391   O.3       1 RES1   0.0000
     6 C3       -0.9933    2.8640    0.6389   C.3       1 RES1   0.0000
     7 C4       -0.7023    2.6818   -0.8669   C.2       1 RES1   0.0000
     8 O3       -0.5694    1.5339   -1.3311   O.2       1 RES1   0.0000
     9 N1       -0.6287    3.7414   -1.6585   N.am      1 RES1   0.0000
    10 C5       -0.5764    3.4863   -3.1031   C.3       1 RES1   0.0000
    11 C6       -0.7484    4.7716   -3.9020   C.3       1 RES1   0.0000
    12 C7       -1.9700    5.5484   -3.4072   C.3       1 RES1   0.0000
    13 C8       -1.8848    5.8264   -1.8939   C.3       1 RES1   0.0000
    14 C9       -0.6684    5.1389   -1.2763   C.3       1 RES1   0.0000
    15 N2       -3.9858   -0.1360    1.5220   N.am      1 RES1   0.0000
    16 C10      -4.6740    0.1832    2.7571   C.3       1 RES1   0.0000
    17 C11      -5.9970    0.8748    2.4233   C.3       1 RES1   0.0000
    18 C12      -6.9037   -0.0470    1.5889   C.3       1 RES1   0.0000
    19 C13      -6.1393   -1.2861    1.1108   C.3       1 RES1   0.0000
    20 C14      -4.7696   -0.9126    0.5565   C.3       1 RES1   0.0000
    21 H1       -1.5194    0.5645    2.9156   H         1 RES1   0.0000
    22 H2       -2.5085    1.9907    2.4818   H         1 RES1   0.0000
    23 H3       -0.3240    3.6024    1.1003   H         1 RES1   0.0000
    24 H4       -2.0259    3.2207    0.7402   H         1 RES1   0.0000
    25 H5       -1.3861    2.7899   -3.3399   H         1 RES1   0.0000
    26 H6        0.3688    2.9929   -3.3541   H         1 RES1   0.0000
    27 H7       -0.8828    4.5095   -4.9534   H         1 RES1   0.0000
    28 H8        0.1404    5.4018   -3.8382   H         1 RES1   0.0000
    29 H9       -2.8700    4.9744   -3.6336   H         1 RES1   0.0000
    30 H10      -2.0355    6.4891   -3.9532   H         1 RES1   0.0000
    31 H11      -2.7921    5.4804   -1.4006   H         1 RES1   0.0000
    32 H12      -1.7947    6.8928   -1.7006   H         1 RES1   0.0000
    33 H13      -0.6779    5.2387   -0.1919   H         1 RES1   0.0000
    34 H14       0.2471    5.6082   -1.6466   H         1 RES1   0.0000
    35 H15      -4.0535    0.8103    3.3944   H         1 RES1   0.0000
    36 H16      -4.8689   -0.7477    3.2977   H         1 RES1   0.0000
    37 H17      -5.7792    1.7883    1.8700   H         1 RES1   0.0000
    38 H18      -6.4806    1.1645    3.3549   H         1 RES1   0.0000
    39 H19      -7.2942    0.4997    0.7302   H         1 RES1   0.0000
    40 H20      -7.7586   -0.3665    2.1820   H         1 RES1   0.0000
    41 H21      -6.7031   -1.7879    0.3234   H         1 RES1   0.0000
    42 H22      -6.0372   -2.0024    1.9281   H         1 RES1   0.0000
    43 H23      -4.8894   -0.3046   -0.3453   H         1 RES1   0.0000
    44 H24      -4.1981   -1.8046    0.2822   H         1 RES1   0.0000
    45 O4        1.7211    0.2080    1.7581   O.2       1 RES1   0.0000
    46 C15       2.4104    1.2247    1.9813   C.2       1 RES1   0.0000
    47 C16       2.6295    2.2237    0.8336   C.3       1 RES1   0.0000
    48 O5        1.9733    1.6847   -0.3024   O.3       1 RES1   0.0000
    49 C17       2.6045    1.9311   -1.5475   C.3       1 RES1   0.0000
    50 C18       2.2102    0.7763   -2.4798   C.2       1 RES1   0.0000
    51 O6        1.5502   -0.1770   -2.0161   O.2       1 RES1   0.0000
    52 N3        2.6353    0.7882   -3.7294   N.am      1 RES1   0.0000
    53 C19       2.3017   -0.3753   -4.5544   C.3       1 RES1   0.0000
    54 C20       2.8217   -0.2200   -5.9758   C.3       1 RES1   0.0000
    55 C21       2.3367    1.0985   -6.5724   C.3       1 RES1   0.0000
    56 C22       2.6932    2.2861   -5.6615   C.3       1 RES1   0.0000
    57 C23       3.4039    1.8340   -4.3813   C.3       1 RES1   0.0000
    58 N4        3.0051    1.4629    3.1369   N.am      1 RES1   0.0000
    59 C24       3.6895    2.6893    3.5072   C.3       1 RES1   0.0000
    60 C25       5.1785    2.4354    3.7647   C.3       1 RES1   0.0000
    61 C26       5.3765    1.1186    4.5299   C.3       1 RES1   0.0000
    62 C27       4.0820    0.6918    5.2180   C.3       1 RES1   0.0000
    63 C28       2.9788    0.4449    4.1870   C.3       1 RES1   0.0000
    64 H25       2.2207    3.2161    1.0700   H         1 RES1   0.0000
    65 H26       3.7045    2.3171    0.6457   H         1 RES1   0.0000
    66 H27       2.2984    2.9115   -1.9398   H         1 RES1   0.0000
    67 H28       3.6953    1.9217   -1.4326   H         1 RES1   0.0000
    68 H29       2.7220   -1.2676   -4.0791   H         1 RES1   0.0000
    69 H30       1.2121   -0.4855   -4.5598   H         1 RES1   0.0000
    70 H31       3.9105   -0.2688   -5.9968   H         1 RES1   0.0000
    71 H32       2.4526   -1.0512   -6.5768   H         1 RES1   0.0000
    72 H33       2.7793    1.2323   -7.5568   H         1 RES1   0.0000
    73 H34       1.2565    1.0513   -6.7068   H         1 RES1   0.0000
    74 H35       3.3505    2.9831   -6.1784   H         1 RES1   0.0000
    75 H36       1.7879    2.8304   -5.3883   H         1 RES1   0.0000
    76 H37       4.3959    1.4383   -4.6179   H         1 RES1   0.0000
    77 H38       3.5388    2.6848   -3.7134   H         1 RES1   0.0000
    78 H39       3.5592    3.4567    2.7474   H         1 RES1   0.0000
    79 H40       3.2140    3.0501    4.4231   H         1 RES1   0.0000
    80 H41       5.7257    2.4066    2.8223   H         1 RES1   0.0000
    81 H42       5.5634    3.2782    4.3375   H         1 RES1   0.0000
    82 H43       5.6971    0.3322    3.8447   H         1 RES1   0.0000
    83 H44       6.1596    1.2406    5.2750   H         1 RES1   0.0000
    84 H45       4.2525   -0.2285    5.7769   H         1 RES1   0.0000
    85 H46       3.7769    1.4536    5.9355   H         1 RES1   0.0000
    86 H47       3.1246   -0.5253    3.7051   H         1 RES1   0.0000
    87 H48       1.9943    0.4366    4.6665   H         1 RES1   0.0000
    88 O7       -0.5391   -2.1407   -1.2360   O.2       1 RES1   0.0000
    89 C29       0.2770   -2.9112   -1.7837   C.2       1 RES1   0.0000
    90 C30       1.6311   -3.1482   -1.0865   C.3       1 RES1   0.0000
    91 O8        1.7459   -2.2804    0.0400   O.3       1 RES1   0.0000
    92 C31       1.7059   -2.8789    1.3294   C.3       1 RES1   0.0000
    93 C32       0.4072   -2.5337    2.0805   C.2       1 RES1   0.0000
    94 O9       -0.3829   -1.6855    1.6174   O.2       1 RES1   0.0000
    95 N5        0.1628   -3.1386    3.2290   N.am      1 RES1   0.0000
    96 C33      -1.1100   -2.8577    3.8971   C.3       1 RES1   0.0000
    97 C34      -1.3260   -3.7814    5.0912   C.3       1 RES1   0.0000
    98 C35      -1.0332   -5.2273    4.6988   C.3       1 RES1   0.0000
    99 C36       0.4053   -5.3834    4.1768   C.3       1 RES1   0.0000
   100 C37       1.0591   -4.0165    3.9542   C.3       1 RES1   0.0000
   101 N6        0.0196   -3.4966   -2.9347   N.am      1 RES1   0.0000
   102 C38       0.8597   -4.4556   -3.6291   C.3       1 RES1   0.0000
   103 C39       0.1255   -5.7982   -3.6760   C.3       1 RES1   0.0000
   104 C40      -1.2554   -5.6434   -4.3414   C.3       1 RES1   0.0000
   105 C41      -1.5237   -4.1904   -4.7378   C.3       1 RES1   0.0000
   106 C42      -1.2926   -3.2638   -3.5502   C.3       1 RES1   0.0000
   107 H49       2.4488   -2.8721   -1.7667   H         1 RES1   0.0000
   108 H50       1.7310   -4.1970   -0.7856   H         1 RES1   0.0000
   109 H51       2.5537   -2.4508    1.8835   H         1 RES1   0.0000
   110 H52       1.8235   -3.9643    1.2496   H         1 RES1   0.0000
   111 H53      -1.9079   -3.0054    3.1633   H         1 RES1   0.0000
   112 H54      -1.1284   -1.8048    4.2005   H         1 RES1   0.0000
   113 H55      -2.3631   -3.6924    5.4154   H         1 RES1   0.0000
   114 H56      -0.6978   -3.4844    5.9315   H         1 RES1   0.0000
   115 H57      -1.7428   -5.5384    3.9323   H         1 RES1   0.0000
   116 H58      -1.1821   -5.8700    5.5622   H         1 RES1   0.0000
   117 H59       0.4066   -5.9473    3.2427   H         1 RES1   0.0000
   118 H60       1.0240   -5.9281    4.8888   H         1 RES1   0.0000
   119 H61       2.0102   -4.1211    3.4350   H         1 RES1   0.0000
   120 H62       1.2637   -3.5412    4.9191   H         1 RES1   0.0000
   121 H63       1.8277   -4.5521   -3.1412   H         1 RES1   0.0000
   122 H64       1.0331   -4.0887   -4.6457   H         1 RES1   0.0000
   123 H65       0.0137   -6.1644   -2.6533   H         1 RES1   0.0000
   124 H66       0.7438   -6.5121   -4.2177   H         1 RES1   0.0000
   125 H67      -2.0325   -5.9797   -3.6558   H         1 RES1   0.0000
   126 H68      -1.3154   -6.2722   -5.2269   H         1 RES1   0.0000
   127 H69      -2.5571   -4.0834   -5.0669   H         1 RES1   0.0000
   128 H70      -0.8922   -3.9074   -5.5815   H         1 RES1   0.0000
   129 H71      -2.0587   -3.4356   -2.7885   H         1 RES1   0.0000
   130 H72      -1.3569   -2.2105   -3.8436   H         1 RES1   0.0000
@<TRIPOS>BOND
     1     1     2    1
     2     1     5    1
     3     1     8    1
     4     1    45    1
     5     1    48    1
     6     1    51    1
     7     1    88    1
     8     1    91    1
     9     1    94    1
    10     2     3    2
    11     3     4    1
    12     3    15    1
    13     4     5    1
    14     4    21    1
    15     4    22    1
    16     5     6    1
    17     6     7    1
    18     6    23    1
    19     6    24    1
    20     7     8    2
    21     7     9    1
    22     9    10    1
    23     9    14    1
    24    10    11    1
    25    10    25    1
    26    10    26    1
    27    11    12    1
    28    11    27    1
    29    11    28    1
    30    12    13    1
    31    12    29    1
    32    12    30    1
    33    13    14    1
    34    13    31    1
    35    13    32    1
    36    14    33    1
    37    14    34    1
    38    15    16    1
    39    15    20    1
    40    16    17    1
    41    16    35    1
    42    16    36    1
    43    17    18    1
    44    17    37    1
    45    17    38    1
    46    18    19    1
    47    18    39    1
    48    18    40    1
    49    19    20    1
    50    19    41    1
    51    19    42    1
    52    20    43    1
    53    20    44    1
    54    45    46    2
    55    46    47    1
    56    46    58    1
    57    47    48    1
    58    47    64    1
    59    47    65    1
    60    48    49    1
    61    49    50    1
    62    49    66    1
    63    49    67    1
    64    50    51    2
    65    50    52    1
    66    52    53    1
    67    52    57    1
    68    53    54    1
    69    53    68    1
    70    53    69    1
    71    54    55    1
    72    54    70    1
    73    54    71    1
    74    55    56    1
    75    55    72    1
    76    55    73    1
    77    56    57    1
    78    56    74    1
    79    56    75    1
    80    57    76    1
    81    57    77    1
    82    58    59    1
    83    58    63    1
    84    59    60    1
    85    59    78    1
    86    59    79    1
    87    60    61    1
    88    60    80    1
    89    60    81    1
    90    61    62    1
    91    61    82    1
    92    61    83    1
    93    62    63    1
    94    62    84    1
    95    62    85    1
    96    63    86    1
    97    63    87    1
    98    88    89    2
    99    89    90    1
   100    89   101    1
   101    90    91    1
   102    90   107    1
   103    90   108    1
   104    91    92    1
   105    92    93    1
   106    92   109    1
   107    92   110    1
   108    93    94    2
   109    93    95    1
   110    95    96    1
   111    95   100    1
   112    96    97    1
   113    96   111    1
   114    96   112    1
   115    97    98    1
   116    97   113    1
   117    97   114    1
   118    98    99    1
   119    98   115    1
   120    98   116    1
   121    99   100    1
   122    99   117    1
   123    99   118    1
   124   100   119    1
   125   100   120    1
   126   101   102    1
   127   101   106    1
   128   102   103    1
   129   102   121    1
   130   102   122    1
   131   103   104    1
   132   103   123    1
   133   103   124    1
   134   104   105    1
   135   104   125    1
   136   104   126    1
   137   105   106    1
   138   105   127    1
   139   105   128    1
   140   106   129    1
   141   106   130    1
@<TRIPOS>SUBSTRUCTURE
     1 RES1      130 GROUP             0 ****  ****    0  
