@<TRIPOS>MOLECULE
tri_tri_mer_capped_0_nunpairedes_0_charge_3 Charge: 3 Unpaired_Electrons: 1 XTB_Unpaired_Electrons: 0 XTB_Charge: 3
   358   363     1     0     0
SMALL
NoCharges
****
Generated from Architector

@<TRIPOS>ATOM
     1 Ce1      -0.0070   -0.4380    0.1828   Ce        1 RES1   0.0000
     2 C1        1.5786   -2.2753    8.5147   C.3       1 RES1   0.0000
     3 C2        1.7613   -1.3360    7.3277   C.3       1 RES1   0.0000
     4 C3        1.2395   -1.9118    6.0052   C.3       1 RES1   0.0000
     5 C4        2.0859   -3.0573    5.4562   C.3       1 RES1   0.0000
     6 C5        1.4065   -3.7503    4.2770   C.3       1 RES1   0.0000
     7 C6        2.2383   -4.9428    3.8142   C.3       1 RES1   0.0000
     8 C7        1.5493   -5.9058    2.8413   C.3       1 RES1   0.0000
     9 C8        1.0335   -5.2447    1.5579   C.3       1 RES1   0.0000
    10 N1        2.0701   -4.4010    0.9632   N.am      1 RES1   0.0000
    11 C9        3.3838   -4.9938    0.6742   C.3       1 RES1   0.0000
    12 C10       3.3382   -6.4706    0.2299   C.3       1 RES1   0.0000
    13 C11       3.6612   -6.7414   -1.2464   C.3       1 RES1   0.0000
    14 C12       5.1588   -6.7538   -1.5778   C.3       1 RES1   0.0000
    15 C13       5.5644   -7.7631   -2.6649   C.3       1 RES1   0.0000
    16 C14       5.4656   -7.2935   -4.1199   C.3       1 RES1   0.0000
    17 C15       4.0588   -7.2929   -4.7120   C.3       1 RES1   0.0000
    18 C16       4.0673   -6.8449   -6.1707   C.3       1 RES1   0.0000
    19 C17       1.8370   -3.0905    1.0007   C.2       1 RES1   0.0000
    20 O1        0.6863   -2.6155    1.1256   O.2       1 RES1   0.0000
    21 C18       2.9802   -2.0531    1.0111   C.3       1 RES1   0.0000
    22 C19       3.5030   -1.8139   -0.4001   C.3       1 RES1   0.0000
    23 O2        2.3532   -0.8428    1.4542   O.3       1 RES1   0.0000
    24 C20       2.9143   -0.0659    2.5148   C.3       1 RES1   0.0000
    25 C21       3.9105    0.9448    1.9580   C.3       1 RES1   0.0000
    26 C22       1.7093    0.6924    3.0995   C.2       1 RES1   0.0000
    27 O3        0.6818    0.7363    2.3826   O.2       1 RES1   0.0000
    28 N2        1.7883    1.2919    4.2899   N.am      1 RES1   0.0000
    29 C23       0.5332    1.8688    4.8085   C.3       1 RES1   0.0000
    30 C24       0.5796    3.2203    5.5298   C.3       1 RES1   0.0000
    31 C25      -0.7726    3.9479    5.4535   C.3       1 RES1   0.0000
    32 C26      -1.9869    3.1541    5.9518   C.3       1 RES1   0.0000
    33 C27      -3.2852    3.9518    5.7581   C.3       1 RES1   0.0000
    34 C28      -4.6031    3.1703    5.9226   C.3       1 RES1   0.0000
    35 C29      -5.2918    2.7648    4.6035   C.3       1 RES1   0.0000
    36 C30      -5.3424    1.2529    4.4170   C.3       1 RES1   0.0000
    37 C31       2.9410    1.2189    5.1937   C.3       1 RES1   0.0000
    38 C32       3.5972    2.5765    5.5061   C.3       1 RES1   0.0000
    39 C33       5.0652    2.4852    5.9557   C.3       1 RES1   0.0000
    40 C34       6.1071    2.6345    4.8477   C.3       1 RES1   0.0000
    41 C35       6.0677    4.0192    4.1973   C.3       1 RES1   0.0000
    42 C36       7.3590    4.3700    3.4604   C.3       1 RES1   0.0000
    43 C37       7.3105    5.7529    2.8094   C.3       1 RES1   0.0000
    44 C38       6.3683    5.8142    1.6100   C.3       1 RES1   0.0000
    45 H1        2.0224   -1.8378    9.4045   H         1 RES1   0.0000
    46 H2        2.0576   -3.2338    8.3375   H         1 RES1   0.0000
    47 H3        0.5236   -2.4430    8.7119   H         1 RES1   0.0000
    48 H4        2.8237   -1.0993    7.2272   H         1 RES1   0.0000
    49 H5        1.2205   -0.4071    7.5413   H         1 RES1   0.0000
    50 H6        1.1943   -1.1172    5.2502   H         1 RES1   0.0000
    51 H7        0.2202   -2.2707    6.1656   H         1 RES1   0.0000
    52 H8        2.2524   -3.7955    6.2396   H         1 RES1   0.0000
    53 H9        3.0647   -2.6767    5.1521   H         1 RES1   0.0000
    54 H10       1.2519   -3.0327    3.4665   H         1 RES1   0.0000
    55 H11       0.4222   -4.0913    4.5999   H         1 RES1   0.0000
    56 H12       2.5109   -5.5220    4.6946   H         1 RES1   0.0000
    57 H13       3.1701   -4.5753    3.3818   H         1 RES1   0.0000
    58 H14       0.6834   -6.3731    3.3167   H         1 RES1   0.0000
    59 H15       2.2616   -6.6986    2.6053   H         1 RES1   0.0000
    60 H16       0.2046   -4.5778    1.7930   H         1 RES1   0.0000
    61 H17       0.6638   -5.9895    0.8510   H         1 RES1   0.0000
    62 H18       4.0164   -4.9042    1.5631   H         1 RES1   0.0000
    63 H19       3.8645   -4.4178   -0.1122   H         1 RES1   0.0000
    64 H20       2.3451   -6.8710    0.4039   H         1 RES1   0.0000
    65 H21       4.0367   -7.0381    0.8490   H         1 RES1   0.0000
    66 H22       3.1213   -6.0349   -1.8802   H         1 RES1   0.0000
    67 H23       3.2619   -7.7322   -1.4625   H         1 RES1   0.0000
    68 H24       5.7037   -7.0362   -0.6733   H         1 RES1   0.0000
    69 H25       5.5015   -5.7591   -1.8711   H         1 RES1   0.0000
    70 H26       4.9892   -8.6821   -2.5389   H         1 RES1   0.0000
    71 H27       6.6102   -8.0190   -2.4942   H         1 RES1   0.0000
    72 H28       6.0741   -7.9644   -4.7309   H         1 RES1   0.0000
    73 H29       5.9079   -6.2972   -4.2093   H         1 RES1   0.0000
    74 H30       3.4057   -6.6352   -4.1355   H         1 RES1   0.0000
    75 H31       3.6513   -8.3028   -4.6539   H         1 RES1   0.0000
    76 H32       4.4452   -5.8271   -6.2574   H         1 RES1   0.0000
    77 H33       3.0654   -6.8867   -6.5949   H         1 RES1   0.0000
    78 H34       4.7058   -7.4938   -6.7655   H         1 RES1   0.0000
    79 H35       3.7544   -2.3846    1.7124   H         1 RES1   0.0000
    80 H36       2.6896   -1.3379   -0.9574   H         1 RES1   0.0000
    81 H37       3.7476   -2.7340   -0.9151   H         1 RES1   0.0000
    82 H38       4.3811   -1.1764   -0.3695   H         1 RES1   0.0000
    83 H39       3.3682   -0.7210    3.2676   H         1 RES1   0.0000
    84 H40       3.4196    1.5007    1.1627   H         1 RES1   0.0000
    85 H41       4.7703    0.4265    1.5454   H         1 RES1   0.0000
    86 H42       4.2499    1.6360    2.7220   H         1 RES1   0.0000
    87 H43       0.0786    1.1313    5.4782   H         1 RES1   0.0000
    88 H44      -0.0902    1.9769    3.9236   H         1 RES1   0.0000
    89 H45       1.3182    3.8734    5.0628   H         1 RES1   0.0000
    90 H46       0.8457    3.0790    6.5782   H         1 RES1   0.0000
    91 H47      -0.9366    4.2665    4.4216   H         1 RES1   0.0000
    92 H48      -0.6867    4.8505    6.0580   H         1 RES1   0.0000
    93 H49      -1.8595    2.9282    7.0114   H         1 RES1   0.0000
    94 H50      -2.0622    2.2028    5.4221   H         1 RES1   0.0000
    95 H51      -3.2705    4.4018    4.7653   H         1 RES1   0.0000
    96 H52      -3.2749    4.7730    6.4721   H         1 RES1   0.0000
    97 H53      -5.2935    3.7927    6.4890   H         1 RES1   0.0000
    98 H54      -4.4279    2.2761    6.5213   H         1 RES1   0.0000
    99 H55      -4.7758    3.2196    3.7549   H         1 RES1   0.0000
   100 H56      -6.3114    3.1464    4.5870   H         1 RES1   0.0000
   101 H57      -4.3566    0.8307    4.5909   H         1 RES1   0.0000
   102 H58      -5.6789    0.9898    3.4153   H         1 RES1   0.0000
   103 H59      -6.0349    0.8070    5.1247   H         1 RES1   0.0000
   104 H60       3.6880    0.5510    4.7738   H         1 RES1   0.0000
   105 H61       2.6059    0.7845    6.1367   H         1 RES1   0.0000
   106 H62       3.0529    3.0512    6.3187   H         1 RES1   0.0000
   107 H63       3.5289    3.2224    4.6325   H         1 RES1   0.0000
   108 H64       5.2266    1.5533    6.4957   H         1 RES1   0.0000
   109 H65       5.2442    3.2948    6.6630   H         1 RES1   0.0000
   110 H66       5.9879    1.8559    4.0916   H         1 RES1   0.0000
   111 H67       7.0881    2.4882    5.3027   H         1 RES1   0.0000
   112 H68       5.9070    4.7613    4.9800   H         1 RES1   0.0000
   113 H69       5.2284    4.0847    3.5014   H         1 RES1   0.0000
   114 H70       7.5680    3.6238    2.6911   H         1 RES1   0.0000
   115 H71       8.1856    4.3501    4.1710   H         1 RES1   0.0000
   116 H72       8.3152    6.0152    2.4754   H         1 RES1   0.0000
   117 H73       7.0058    6.4938    3.5509   H         1 RES1   0.0000
   118 H74       6.6216    5.0338    0.8929   H         1 RES1   0.0000
   119 H75       6.4545    6.7775    1.1120   H         1 RES1   0.0000
   120 H76       5.3304    5.6846    1.9154   H         1 RES1   0.0000
   121 C39      -7.7325    1.0967   -1.9545   C.3       1 RES1   0.0000
   122 C40      -6.2150    1.0736   -2.1041   C.3       1 RES1   0.0000
   123 C41      -5.6395   -0.3291   -1.9328   C.3       1 RES1   0.0000
   124 C42      -5.5999   -0.8010   -0.4847   C.3       1 RES1   0.0000
   125 C43      -4.9583   -2.1824   -0.4010   C.3       1 RES1   0.0000
   126 C44      -5.3310   -2.9188    0.8791   C.3       1 RES1   0.0000
   127 C45      -4.5894   -4.2456    1.0322   C.3       1 RES1   0.0000
   128 C46      -3.0792   -4.1003    1.3031   C.3       1 RES1   0.0000
   129 N3       -2.8042   -3.0275    2.2577   N.am      1 RES1   0.0000
   130 C47      -3.2091   -3.1637    3.6635   C.3       1 RES1   0.0000
   131 C48      -3.5137   -4.5912    4.1435   C.3       1 RES1   0.0000
   132 C49      -2.3714   -5.2780    4.9042   C.3       1 RES1   0.0000
   133 C50      -2.2678   -4.8024    6.3597   C.3       1 RES1   0.0000
   134 C51      -1.8220   -5.8666    7.3741   C.3       1 RES1   0.0000
   135 C52      -0.3171   -5.9825    7.6247   C.3       1 RES1   0.0000
   136 C53       0.4651   -6.7066    6.5326   C.3       1 RES1   0.0000
   137 C54       1.9268   -6.8812    6.9345   C.3       1 RES1   0.0000
   138 C55      -2.3904   -1.8723    1.7362   C.2       1 RES1   0.0000
   139 O4       -1.9022   -1.8008    0.5865   O.2       1 RES1   0.0000
   140 C56      -2.6449   -0.5114    2.4378   C.3       1 RES1   0.0000
   141 C57      -1.9756   -0.3057    3.7936   C.3       1 RES1   0.0000
   142 O5       -2.1288    0.4593    1.5149   O.3       1 RES1   0.0000
   143 C58      -2.7621    1.7490    1.3985   C.3       1 RES1   0.0000
   144 C59      -1.9819    2.8161    2.1809   C.3       1 RES1   0.0000
   145 C60      -2.6212    2.1019   -0.1000   C.2       1 RES1   0.0000
   146 O6       -1.7714    1.4332   -0.7229   O.2       1 RES1   0.0000
   147 N4       -3.3433    3.0824   -0.6554   N.am      1 RES1   0.0000
   148 C61      -3.3165    3.2400   -2.1238   C.3       1 RES1   0.0000
   149 C62      -2.9543    4.6251   -2.7041   C.3       1 RES1   0.0000
   150 C63      -1.8801    4.7007   -3.8017   C.3       1 RES1   0.0000
   151 C64      -2.0145    3.7606   -5.0008   C.3       1 RES1   0.0000
   152 C65      -0.7118    3.6938   -5.8060   C.3       1 RES1   0.0000
   153 C66      -0.7942    2.7113   -6.9765   C.3       1 RES1   0.0000
   154 C67       0.5751    2.2529   -7.5134   C.3       1 RES1   0.0000
   155 C68       0.9404    0.8298   -7.0902   C.3       1 RES1   0.0000
   156 C69      -4.2966    3.9216    0.0796   C.3       1 RES1   0.0000
   157 C70      -3.8551    5.3974    0.1464   C.3       1 RES1   0.0000
   158 C71      -4.5977    6.2770    1.1627   C.3       1 RES1   0.0000
   159 C72      -4.0101    6.3268    2.5707   C.3       1 RES1   0.0000
   160 C73      -2.6722    7.0632    2.6828   C.3       1 RES1   0.0000
   161 C74      -2.3699    7.4269    4.1395   C.3       1 RES1   0.0000
   162 C75      -1.0874    8.2331    4.3565   C.3       1 RES1   0.0000
   163 C76       0.1949    7.4593    4.0681   C.3       1 RES1   0.0000
   164 H77      -8.1247    2.0768   -2.2136   H         1 RES1   0.0000
   165 H78      -8.0301    0.8628   -0.9344   H         1 RES1   0.0000
   166 H79      -8.1855    0.3677   -2.6221   H         1 RES1   0.0000
   167 H80      -5.7658    1.7375   -1.3597   H         1 RES1   0.0000
   168 H81      -5.9503    1.4421   -3.0996   H         1 RES1   0.0000
   169 H82      -4.6296   -0.3720   -2.3470   H         1 RES1   0.0000
   170 H83      -6.2531   -1.0296   -2.4990   H         1 RES1   0.0000
   171 H84      -6.6135   -0.8413   -0.0865   H         1 RES1   0.0000
   172 H85      -5.0269   -0.0973    0.1289   H         1 RES1   0.0000
   173 H86      -3.8778   -2.0678   -0.5063   H         1 RES1   0.0000
   174 H87      -5.3040   -2.7923   -1.2355   H         1 RES1   0.0000
   175 H88      -6.3974   -3.1404    0.8294   H         1 RES1   0.0000
   176 H89      -5.1733   -2.2786    1.7507   H         1 RES1   0.0000
   177 H90      -4.6874   -4.8230    0.1120   H         1 RES1   0.0000
   178 H91      -5.0773   -4.8164    1.8209   H         1 RES1   0.0000
   179 H92      -2.5651   -3.8255    0.3831   H         1 RES1   0.0000
   180 H93      -2.6478   -5.0381    1.6507   H         1 RES1   0.0000
   181 H94      -4.0909   -2.5348    3.8433   H         1 RES1   0.0000
   182 H95      -2.3913   -2.7875    4.2815   H         1 RES1   0.0000
   183 H96      -3.8078   -5.2247    3.3154   H         1 RES1   0.0000
   184 H97      -4.3796   -4.5346    4.8033   H         1 RES1   0.0000
   185 H98      -1.4350   -5.1329    4.3616   H         1 RES1   0.0000
   186 H99      -2.5845   -6.3469    4.9055   H         1 RES1   0.0000
   187 H100     -3.2620   -4.4788    6.6722   H         1 RES1   0.0000
   188 H101     -1.6107   -3.9340    6.4370   H         1 RES1   0.0000
   189 H102     -2.2158   -6.8416    7.0790   H         1 RES1   0.0000
   190 H103     -2.2771   -5.6137    8.3334   H         1 RES1   0.0000
   191 H104     -0.1790   -6.5410    8.5530   H         1 RES1   0.0000
   192 H105      0.1069   -4.9860    7.7796   H         1 RES1   0.0000
   193 H106      0.4015   -6.1480    5.5984   H         1 RES1   0.0000
   194 H107      0.0223   -7.6899    6.3646   H         1 RES1   0.0000
   195 H108      2.3990   -5.9167    7.1151   H         1 RES1   0.0000
   196 H109      2.4904   -7.4052    6.1656   H         1 RES1   0.0000
   197 H110      2.0016   -7.4570    7.8523   H         1 RES1   0.0000
   198 H111     -3.7410   -0.4163    2.5049   H         1 RES1   0.0000
   199 H112     -2.4944   -0.7918    4.6126   H         1 RES1   0.0000
   200 H113     -0.9323   -0.6196    3.7238   H         1 RES1   0.0000
   201 H114     -1.9999    0.7574    4.0067   H         1 RES1   0.0000
   202 H115     -3.8165    1.6774    1.7041   H         1 RES1   0.0000
   203 H116     -0.9163    2.5809    2.1071   H         1 RES1   0.0000
   204 H117     -2.2776    2.8346    3.2240   H         1 RES1   0.0000
   205 H118     -2.1342    3.8099    1.7636   H         1 RES1   0.0000
   206 H119     -4.3042    2.9629   -2.4967   H         1 RES1   0.0000
   207 H120     -2.6187    2.4827   -2.4564   H         1 RES1   0.0000
   208 H121     -2.5682    5.2667   -1.9190   H         1 RES1   0.0000
   209 H122     -3.8596    5.0802   -3.1061   H         1 RES1   0.0000
   210 H123     -0.8982    4.5781   -3.3490   H         1 RES1   0.0000
   211 H124     -1.9083    5.7260   -4.1694   H         1 RES1   0.0000
   212 H125     -2.8261    4.0988   -5.6456   H         1 RES1   0.0000
   213 H126     -2.2646    2.7518   -4.6688   H         1 RES1   0.0000
   214 H127      0.1019    3.4046   -5.1336   H         1 RES1   0.0000
   215 H128     -0.4847    4.6904   -6.1862   H         1 RES1   0.0000
   216 H129     -1.3544    3.1905   -7.7801   H         1 RES1   0.0000
   217 H130     -1.3665    1.8322   -6.6649   H         1 RES1   0.0000
   218 H131      1.3616    2.9444   -7.2033   H         1 RES1   0.0000
   219 H132      0.5534    2.2738   -8.6009   H         1 RES1   0.0000
   220 H133      1.2497    0.7860   -6.0450   H         1 RES1   0.0000
   221 H134      1.7601    0.4510   -7.6971   H         1 RES1   0.0000
   222 H135      0.0807    0.1750   -7.2241   H         1 RES1   0.0000
   223 H136     -4.4197    3.5364    1.0898   H         1 RES1   0.0000
   224 H137     -5.2736    3.8719   -0.4122   H         1 RES1   0.0000
   225 H138     -4.0389    5.8540   -0.8209   H         1 RES1   0.0000
   226 H139     -2.7834    5.4347    0.3524   H         1 RES1   0.0000
   227 H140     -5.6391    5.9618    1.2168   H         1 RES1   0.0000
   228 H141     -4.5924    7.2958    0.7725   H         1 RES1   0.0000
   229 H142     -3.9102    5.3180    2.9701   H         1 RES1   0.0000
   230 H143     -4.7309    6.8499    3.1986   H         1 RES1   0.0000
   231 H144     -2.7198    7.9808    2.0957   H         1 RES1   0.0000
   232 H145     -1.8594    6.4546    2.2788   H         1 RES1   0.0000
   233 H146     -2.3170    6.5177    4.7405   H         1 RES1   0.0000
   234 H147     -3.2028    8.0202    4.5208   H         1 RES1   0.0000
   235 H148     -1.0682    8.5525    5.4005   H         1 RES1   0.0000
   236 H149     -1.1144    9.1313    3.7391   H         1 RES1   0.0000
   237 H150      0.2201    6.5358    4.6423   H         1 RES1   0.0000
   238 H151      1.0580    8.0563    4.3517   H         1 RES1   0.0000
   239 H152      0.2822    7.2188    3.0106   H         1 RES1   0.0000
   240 C77       6.1785   -2.8524   -5.7806   C.3       1 RES1   0.0000
   241 C78       5.7095   -2.3327   -4.4253   C.3       1 RES1   0.0000
   242 C79       4.5667   -3.1778   -3.8683   C.3       1 RES1   0.0000
   243 C80       3.2134   -2.8918   -4.5047   C.3       1 RES1   0.0000
   244 C81       2.1369   -3.7492   -3.8403   C.3       1 RES1   0.0000
   245 C82       1.0113   -4.0830   -4.8078   C.3       1 RES1   0.0000
   246 C83      -0.0327   -5.0319   -4.2136   C.3       1 RES1   0.0000
   247 C84      -0.8003   -4.4157   -3.0323   C.3       1 RES1   0.0000
   248 N5       -1.2350   -3.0584   -3.3618   N.am      1 RES1   0.0000
   249 C85      -2.0425   -2.9338   -4.5784   C.3       1 RES1   0.0000
   250 C86      -3.1800   -3.9509   -4.7471   C.3       1 RES1   0.0000
   251 C87      -4.4671   -3.6719   -3.9499   C.3       1 RES1   0.0000
   252 C88      -5.6317   -3.1714   -4.8317   C.3       1 RES1   0.0000
   253 C89      -6.9272   -3.9935   -4.7308   C.3       1 RES1   0.0000
   254 C90      -7.8875   -3.5304   -3.6331   C.3       1 RES1   0.0000
   255 C91      -7.6827   -4.2007   -2.2787   C.3       1 RES1   0.0000
   256 C92      -8.5933   -3.5638   -1.2332   C.3       1 RES1   0.0000
   257 C93      -0.6658   -2.0479   -2.7057   C.2       1 RES1   0.0000
   258 O7       -0.0341   -2.2101   -1.6375   O.2       1 RES1   0.0000
   259 C94      -0.6261   -0.6070   -3.2856   C.3       1 RES1   0.0000
   260 C95      -1.9608    0.1081   -3.3992   C.3       1 RES1   0.0000
   261 O8        0.1930    0.1155   -2.3463   O.3       1 RES1   0.0000
   262 C96       0.9197    1.2695   -2.8112   C.3       1 RES1   0.0000
   263 C97       0.3502    2.5933   -2.2970   C.3       1 RES1   0.0000
   264 C98       2.2528    1.1692   -2.0720   C.2       1 RES1   0.0000
   265 O9        2.1327    0.8284   -0.8725   O.2       1 RES1   0.0000
   266 N6        3.4087    1.4838   -2.6449   N.am      1 RES1   0.0000
   267 C99       4.6217    1.1468   -1.8812   C.3       1 RES1   0.0000
   268 C100      5.7145    2.2090   -1.6869   C.3       1 RES1   0.0000
   269 C101      6.3950    2.1290   -0.3194   C.3       1 RES1   0.0000
   270 C102      7.0713    0.7956   -0.0197   C.3       1 RES1   0.0000
   271 C103      7.9164    0.8774    1.2553   C.3       1 RES1   0.0000
   272 C104      8.2659   -0.4921    1.8467   C.3       1 RES1   0.0000
   273 C105      7.0913   -1.1426    2.5996   C.3       1 RES1   0.0000
   274 C106      6.7795   -2.5407    2.0870   C.3       1 RES1   0.0000
   275 C107      3.5221    1.9359   -4.0319   C.3       1 RES1   0.0000
   276 C108      4.3518    3.2158   -4.1874   C.3       1 RES1   0.0000
   277 C109      4.2909    3.8288   -5.5928   C.3       1 RES1   0.0000
   278 C110      3.1093    4.7535   -5.8745   C.3       1 RES1   0.0000
   279 C111      3.0408    6.0077   -5.0058   C.3       1 RES1   0.0000
   280 C112      1.9995    6.9754   -5.5688   C.3       1 RES1   0.0000
   281 C113      1.7419    8.2103   -4.7079   C.3       1 RES1   0.0000
   282 C114      1.0804    7.8843   -3.3721   C.3       1 RES1   0.0000
   283 H153      7.0252   -2.2762   -6.1445   H         1 RES1   0.0000
   284 H154      5.3770   -2.7968   -6.5141   H         1 RES1   0.0000
   285 H155      6.4916   -3.8901   -5.6909   H         1 RES1   0.0000
   286 H156      5.3866   -1.2899   -4.5183   H         1 RES1   0.0000
   287 H157      6.5464   -2.3603   -3.7212   H         1 RES1   0.0000
   288 H158      4.4907   -3.0262   -2.7907   H         1 RES1   0.0000
   289 H159      4.8002   -4.2295   -4.0315   H         1 RES1   0.0000
   290 H160      3.2587   -3.1124   -5.5721   H         1 RES1   0.0000
   291 H161      2.9556   -1.8342   -4.3971   H         1 RES1   0.0000
   292 H162      1.7535   -3.2290   -2.9593   H         1 RES1   0.0000
   293 H163      2.5801   -4.6869   -3.5023   H         1 RES1   0.0000
   294 H164      1.4425   -4.5641   -5.6865   H         1 RES1   0.0000
   295 H165      0.5527   -3.1511   -5.1450   H         1 RES1   0.0000
   296 H166      0.4714   -5.9301   -3.8500   H         1 RES1   0.0000
   297 H167     -0.7210   -5.3373   -5.0034   H         1 RES1   0.0000
   298 H168     -0.1459   -4.3389   -2.1644   H         1 RES1   0.0000
   299 H169     -1.6696   -5.0197   -2.7664   H         1 RES1   0.0000
   300 H170     -1.3900   -3.0434   -5.4498   H         1 RES1   0.0000
   301 H171     -2.4790   -1.9445   -4.6046   H         1 RES1   0.0000
   302 H172     -2.8248   -4.9490   -4.5124   H         1 RES1   0.0000
   303 H173     -3.4142   -3.9412   -5.8147   H         1 RES1   0.0000
   304 H174     -4.2459   -2.9577   -3.1553   H         1 RES1   0.0000
   305 H175     -4.7854   -4.5981   -3.4700   H         1 RES1   0.0000
   306 H176     -5.3168   -3.1958   -5.8775   H         1 RES1   0.0000
   307 H177     -5.8713   -2.1323   -4.5942   H         1 RES1   0.0000
   308 H178     -6.6868   -5.0493   -4.5978   H         1 RES1   0.0000
   309 H179     -7.4516   -3.9061   -5.6821   H         1 RES1   0.0000
   310 H180     -8.9135   -3.7351   -3.9403   H         1 RES1   0.0000
   311 H181     -7.7996   -2.4471   -3.5169   H         1 RES1   0.0000
   312 H182     -6.6416   -4.1188   -1.9611   H         1 RES1   0.0000
   313 H183     -7.9147   -5.2631   -2.3634   H         1 RES1   0.0000
   314 H184     -8.3318   -2.5147   -1.0894   H         1 RES1   0.0000
   315 H185     -8.5317   -4.0790   -0.2749   H         1 RES1   0.0000
   316 H186     -9.6271   -3.6065   -1.5695   H         1 RES1   0.0000
   317 H187     -0.1080   -0.6692   -4.2576   H         1 RES1   0.0000
   318 H188     -2.5192   -0.0268   -2.4745   H         1 RES1   0.0000
   319 H189     -2.5661   -0.2036   -4.2412   H         1 RES1   0.0000
   320 H190     -1.7333    1.1582   -3.5325   H         1 RES1   0.0000
   321 H191      0.9759    1.2377   -3.9015   H         1 RES1   0.0000
   322 H192      0.3308    2.5772   -1.2008   H         1 RES1   0.0000
   323 H193     -0.6542    2.7415   -2.6610   H         1 RES1   0.0000
   324 H194      0.9749    3.4263   -2.6197   H         1 RES1   0.0000
   325 H195      5.0610    0.2568   -2.3452   H         1 RES1   0.0000
   326 H196      4.2325    0.8894   -0.8976   H         1 RES1   0.0000
   327 H197      5.2900    3.2063   -1.7672   H         1 RES1   0.0000
   328 H198      6.4832    2.0877   -2.4491   H         1 RES1   0.0000
   329 H199      5.6699    2.3640    0.4595   H         1 RES1   0.0000
   330 H200      7.1553    2.9094   -0.2998   H         1 RES1   0.0000
   331 H201      7.7196    0.5181   -0.8506   H         1 RES1   0.0000
   332 H202      6.3253    0.0046    0.0835   H         1 RES1   0.0000
   333 H203      7.3848    1.4584    2.0112   H         1 RES1   0.0000
   334 H204      8.8381    1.4120    1.0230   H         1 RES1   0.0000
   335 H205      9.1137   -0.3688    2.5229   H         1 RES1   0.0000
   336 H206      8.5943   -1.1499    1.0395   H         1 RES1   0.0000
   337 H207      6.2038   -0.5161    2.4960   H         1 RES1   0.0000
   338 H208      7.3181   -1.1912    3.6641   H         1 RES1   0.0000
   339 H209      6.5316   -2.5084    1.0295   H         1 RES1   0.0000
   340 H210      5.9467   -2.9745    2.6334   H         1 RES1   0.0000
   341 H211      7.6389   -3.1875    2.2189   H         1 RES1   0.0000
   342 H212      2.5304    2.1552   -4.4180   H         1 RES1   0.0000
   343 H213      3.9622    1.1412   -4.6463   H         1 RES1   0.0000
   344 H214      5.3935    2.9858   -3.9954   H         1 RES1   0.0000
   345 H215      4.0124    3.9492   -3.4556   H         1 RES1   0.0000
   346 H216      4.2970    3.0256   -6.3321   H         1 RES1   0.0000
   347 H217      5.2035    4.4082   -5.7339   H         1 RES1   0.0000
   348 H218      2.1673    4.2136   -5.7754   H         1 RES1   0.0000
   349 H219      3.1946    5.0697   -6.9151   H         1 RES1   0.0000
   350 H220      4.0151    6.4941   -4.9862   H         1 RES1   0.0000
   351 H221      2.7769    5.7450   -3.9801   H         1 RES1   0.0000
   352 H222      1.0532    6.4462   -5.7040   H         1 RES1   0.0000
   353 H223      2.3306    7.3048   -6.5538   H         1 RES1   0.0000
   354 H224      1.0869    8.8826   -5.2658   H         1 RES1   0.0000
   355 H225      2.6804    8.7354   -4.5310   H         1 RES1   0.0000
   356 H226      0.2077    7.2506   -3.5285   H         1 RES1   0.0000
   357 H227      0.7580    8.7998   -2.8821   H         1 RES1   0.0000
   358 H228      1.7718    7.3713   -2.7056   H         1 RES1   0.0000
@<TRIPOS>BOND
     1     1    20    1
     2     1    23    1
     3     1    27    1
     4     1   139    1
     5     1   142    1
     6     1   146    1
     7     1   258    1
     8     1   261    1
     9     1   265    1
    10     2     3    1
    11     2    45    1
    12     2    46    1
    13     2    47    1
    14     3     4    1
    15     3    48    1
    16     3    49    1
    17     4     5    1
    18     4    50    1
    19     4    51    1
    20     5     6    1
    21     5    52    1
    22     5    53    1
    23     6     7    1
    24     6    54    1
    25     6    55    1
    26     7     8    1
    27     7    56    1
    28     7    57    1
    29     8     9    1
    30     8    58    1
    31     8    59    1
    32     9    10    1
    33     9    60    1
    34     9    61    1
    35    10    11    1
    36    10    19    1
    37    11    12    1
    38    11    62    1
    39    11    63    1
    40    12    13    1
    41    12    64    1
    42    12    65    1
    43    13    14    1
    44    13    66    1
    45    13    67    1
    46    14    15    1
    47    14    68    1
    48    14    69    1
    49    15    16    1
    50    15    70    1
    51    15    71    1
    52    16    17    1
    53    16    72    1
    54    16    73    1
    55    17    18    1
    56    17    74    1
    57    17    75    1
    58    18    76    1
    59    18    77    1
    60    18    78    1
    61    19    20    2
    62    19    21    1
    63    21    22    1
    64    21    23    1
    65    21    79    1
    66    22    80    1
    67    22    81    1
    68    22    82    1
    69    23    24    1
    70    24    25    1
    71    24    26    1
    72    24    83    1
    73    25    84    1
    74    25    85    1
    75    25    86    1
    76    26    27    2
    77    26    28    1
    78    28    29    1
    79    28    37    1
    80    29    30    1
    81    29    87    1
    82    29    88    1
    83    30    31    1
    84    30    89    1
    85    30    90    1
    86    31    32    1
    87    31    91    1
    88    31    92    1
    89    32    33    1
    90    32    93    1
    91    32    94    1
    92    33    34    1
    93    33    95    1
    94    33    96    1
    95    34    35    1
    96    34    97    1
    97    34    98    1
    98    35    36    1
    99    35    99    1
   100    35   100    1
   101    36   101    1
   102    36   102    1
   103    36   103    1
   104    37    38    1
   105    37   104    1
   106    37   105    1
   107    38    39    1
   108    38   106    1
   109    38   107    1
   110    39    40    1
   111    39   108    1
   112    39   109    1
   113    40    41    1
   114    40   110    1
   115    40   111    1
   116    41    42    1
   117    41   112    1
   118    41   113    1
   119    42    43    1
   120    42   114    1
   121    42   115    1
   122    43    44    1
   123    43   116    1
   124    43   117    1
   125    44   118    1
   126    44   119    1
   127    44   120    1
   128   121   122    1
   129   121   164    1
   130   121   165    1
   131   121   166    1
   132   122   123    1
   133   122   167    1
   134   122   168    1
   135   123   124    1
   136   123   169    1
   137   123   170    1
   138   124   125    1
   139   124   171    1
   140   124   172    1
   141   125   126    1
   142   125   173    1
   143   125   174    1
   144   126   127    1
   145   126   175    1
   146   126   176    1
   147   127   128    1
   148   127   177    1
   149   127   178    1
   150   128   129    1
   151   128   179    1
   152   128   180    1
   153   129   130    1
   154   129   138    1
   155   130   131    1
   156   130   181    1
   157   130   182    1
   158   131   132    1
   159   131   183    1
   160   131   184    1
   161   132   133    1
   162   132   185    1
   163   132   186    1
   164   133   134    1
   165   133   187    1
   166   133   188    1
   167   134   135    1
   168   134   189    1
   169   134   190    1
   170   135   136    1
   171   135   191    1
   172   135   192    1
   173   136   137    1
   174   136   193    1
   175   136   194    1
   176   137   195    1
   177   137   196    1
   178   137   197    1
   179   138   139    2
   180   138   140    1
   181   140   141    1
   182   140   142    1
   183   140   198    1
   184   141   199    1
   185   141   200    1
   186   141   201    1
   187   142   143    1
   188   143   144    1
   189   143   145    1
   190   143   202    1
   191   144   203    1
   192   144   204    1
   193   144   205    1
   194   145   146    2
   195   145   147    1
   196   147   148    1
   197   147   156    1
   198   148   149    1
   199   148   206    1
   200   148   207    1
   201   149   150    1
   202   149   208    1
   203   149   209    1
   204   150   151    1
   205   150   210    1
   206   150   211    1
   207   151   152    1
   208   151   212    1
   209   151   213    1
   210   152   153    1
   211   152   214    1
   212   152   215    1
   213   153   154    1
   214   153   216    1
   215   153   217    1
   216   154   155    1
   217   154   218    1
   218   154   219    1
   219   155   220    1
   220   155   221    1
   221   155   222    1
   222   156   157    1
   223   156   223    1
   224   156   224    1
   225   157   158    1
   226   157   225    1
   227   157   226    1
   228   158   159    1
   229   158   227    1
   230   158   228    1
   231   159   160    1
   232   159   229    1
   233   159   230    1
   234   160   161    1
   235   160   231    1
   236   160   232    1
   237   161   162    1
   238   161   233    1
   239   161   234    1
   240   162   163    1
   241   162   235    1
   242   162   236    1
   243   163   237    1
   244   163   238    1
   245   163   239    1
   246   240   241    1
   247   240   283    1
   248   240   284    1
   249   240   285    1
   250   241   242    1
   251   241   286    1
   252   241   287    1
   253   242   243    1
   254   242   288    1
   255   242   289    1
   256   243   244    1
   257   243   290    1
   258   243   291    1
   259   244   245    1
   260   244   292    1
   261   244   293    1
   262   245   246    1
   263   245   294    1
   264   245   295    1
   265   246   247    1
   266   246   296    1
   267   246   297    1
   268   247   248    1
   269   247   298    1
   270   247   299    1
   271   248   249    1
   272   248   257    1
   273   249   250    1
   274   249   300    1
   275   249   301    1
   276   250   251    1
   277   250   302    1
   278   250   303    1
   279   251   252    1
   280   251   304    1
   281   251   305    1
   282   252   253    1
   283   252   306    1
   284   252   307    1
   285   253   254    1
   286   253   308    1
   287   253   309    1
   288   254   255    1
   289   254   310    1
   290   254   311    1
   291   255   256    1
   292   255   312    1
   293   255   313    1
   294   256   314    1
   295   256   315    1
   296   256   316    1
   297   257   258    2
   298   257   259    1
   299   259   260    1
   300   259   261    1
   301   259   317    1
   302   260   318    1
   303   260   319    1
   304   260   320    1
   305   261   262    1
   306   262   263    1
   307   262   264    1
   308   262   321    1
   309   263   322    1
   310   263   323    1
   311   263   324    1
   312   264   265    2
   313   264   266    1
   314   266   267    1
   315   266   275    1
   316   267   268    1
   317   267   325    1
   318   267   326    1
   319   268   269    1
   320   268   327    1
   321   268   328    1
   322   269   270    1
   323   269   329    1
   324   269   330    1
   325   270   271    1
   326   270   331    1
   327   270   332    1
   328   271   272    1
   329   271   333    1
   330   271   334    1
   331   272   273    1
   332   272   335    1
   333   272   336    1
   334   273   274    1
   335   273   337    1
   336   273   338    1
   337   274   339    1
   338   274   340    1
   339   274   341    1
   340   275   276    1
   341   275   342    1
   342   275   343    1
   343   276   277    1
   344   276   344    1
   345   276   345    1
   346   277   278    1
   347   277   346    1
   348   277   347    1
   349   278   279    1
   350   278   348    1
   351   278   349    1
   352   279   280    1
   353   279   350    1
   354   279   351    1
   355   280   281    1
   356   280   352    1
   357   280   353    1
   358   281   282    1
   359   281   354    1
   360   281   355    1
   361   282   356    1
   362   282   357    1
   363   282   358    1
@<TRIPOS>SUBSTRUCTURE
     1 RES1      358 GROUP             0 ****  ****    0  
