@<TRIPOS>MOLECULE
am_c3_9H2O_c0_0_nunpairedes_0_charge_3 Charge: 3 Unpaired_Electrons: 1 XTB_Unpaired_Electrons: 0 XTB_Charge: 3
   160   171     1     0     0
SMALL
NoCharges
****
Generated from Architector

@<TRIPOS>ATOM
     1 Ce1      -0.1126    0.0957   -0.1054   Ce        1 RES1   0.0000
     2 C1        1.8014    5.6588   -1.1806   C.3       1 RES1   0.0000
     3 N1        1.7546    4.4624   -0.3515   N.am      1 RES1   0.0000
     4 C2        1.3033    3.2734   -0.7751   C.2       1 RES1   0.0000
     5 O1        1.2880    2.2644   -0.0502   O.2       1 RES1   0.0000
     6 C3        0.8172    3.1721   -2.2184   C.3       1 RES1   0.0000
     7 C4       -0.6157    2.6589   -2.2707   C.2       1 RES1   0.0000
     8 O2       -1.0409    1.8984   -1.3861   O.2       1 RES1   0.0000
     9 N2       -1.3792    3.0205   -3.3071   N.am      1 RES1   0.0000
    10 C5       -2.7283    2.4826   -3.3637   C.3       1 RES1   0.0000
    11 C6       -1.0089    3.9413   -4.3348   C.ar      1 RES1   0.0000
    12 C7        0.1872    3.8087   -5.0341   C.ar      1 RES1   0.0000
    13 C8        0.5304    4.7293   -6.0098   C.ar      1 RES1   0.0000
    14 C9       -0.3183    5.7812   -6.3081   C.ar      1 RES1   0.0000
    15 C10      -1.5275    5.8969   -5.6400   C.ar      1 RES1   0.0000
    16 C11      -1.8751    4.9815   -4.6589   C.ar      1 RES1   0.0000
    17 C12       2.2688    4.6162    0.9741   C.ar      1 RES1   0.0000
    18 C13       1.5327    4.1508    2.0533   C.ar      1 RES1   0.0000
    19 C14       1.9903    4.3565    3.3426   C.ar      1 RES1   0.0000
    20 C15       3.1751    5.0408    3.5571   C.ar      1 RES1   0.0000
    21 C16       3.9165    5.4938    2.4776   C.ar      1 RES1   0.0000
    22 C17       3.4745    5.2765    1.1832   C.ar      1 RES1   0.0000
    23 H1        0.8417    5.8387   -1.6654   H         1 RES1   0.0000
    24 H2        2.5928    5.5909   -1.9305   H         1 RES1   0.0000
    25 H3        2.0086    6.5105   -0.5356   H         1 RES1   0.0000
    26 H4        1.4001    2.3733   -2.6927   H         1 RES1   0.0000
    27 H5        0.9301    4.0858   -2.7923   H         1 RES1   0.0000
    28 H6       -2.7386    1.5374   -2.8228   H         1 RES1   0.0000
    29 H7       -3.0134    2.3253   -4.3994   H         1 RES1   0.0000
    30 H8       -3.4478    3.1575   -2.9023   H         1 RES1   0.0000
    31 H9        0.8401    2.9752   -4.8343   H         1 RES1   0.0000
    32 H10       1.4701    4.6238   -6.5315   H         1 RES1   0.0000
    33 H11      -0.0519    6.4973   -7.0681   H         1 RES1   0.0000
    34 H12      -2.1913    6.7126   -5.8810   H         1 RES1   0.0000
    35 H13      -2.8165    5.0825   -4.1413   H         1 RES1   0.0000
    36 H14       0.5945    3.6525    1.8635   H         1 RES1   0.0000
    37 H15       1.4010    4.0140    4.1815   H         1 RES1   0.0000
    38 H16       3.5136    5.2415    4.5605   H         1 RES1   0.0000
    39 H17       4.8334    6.0326    2.6502   H         1 RES1   0.0000
    40 H18       4.0611    5.6296    0.3494   H         1 RES1   0.0000
    41 C18      -0.6191   -3.1566    4.9412   C.3       1 RES1   0.0000
    42 N3       -1.1235   -2.5827    3.7016   N.am      1 RES1   0.0000
    43 C19      -0.3418   -2.1316    2.7131   C.2       1 RES1   0.0000
    44 O3       -0.7916   -1.6937    1.6427   O.2       1 RES1   0.0000
    45 C20       1.1729   -2.2031    2.9101   C.3       1 RES1   0.0000
    46 C21       1.7927   -0.8204    2.7266   C.2       1 RES1   0.0000
    47 O4        1.3748   -0.0350    1.8593   O.2       1 RES1   0.0000
    48 N4        2.7819   -0.4674    3.5509   N.am      1 RES1   0.0000
    49 C22       3.2795    0.8968    3.4624   C.3       1 RES1   0.0000
    50 C23       3.4262   -1.3547    4.4628   C.ar      1 RES1   0.0000
    51 C24       3.9245   -2.5706    4.0050   C.ar      1 RES1   0.0000
    52 C25       4.5720   -3.4263    4.8762   C.ar      1 RES1   0.0000
    53 C26       4.7429   -3.0642    6.2023   C.ar      1 RES1   0.0000
    54 C27       4.2526   -1.8505    6.6589   C.ar      1 RES1   0.0000
    55 C28       3.5903   -0.9928    5.7944   C.ar      1 RES1   0.0000
    56 C29      -2.5504   -2.5274    3.5886   C.ar      1 RES1   0.0000
    57 C30      -3.1680   -1.3391    3.2246   C.ar      1 RES1   0.0000
    58 C31      -4.5489   -1.2538    3.2465   C.ar      1 RES1   0.0000
    59 C32      -5.3128   -2.3475    3.6190   C.ar      1 RES1   0.0000
    60 C33      -4.6933   -3.5446    3.9407   C.ar      1 RES1   0.0000
    61 C34      -3.3120   -3.6422    3.9230   C.ar      1 RES1   0.0000
    62 H19       0.0823   -2.4815    5.4320   H         1 RES1   0.0000
    63 H20      -0.1466   -4.1261    4.7650   H         1 RES1   0.0000
    64 H21      -1.4562   -3.3007    5.6212   H         1 RES1   0.0000
    65 H22       1.5462   -2.8496    2.1121   H         1 RES1   0.0000
    66 H23       1.4683   -2.6300    3.8622   H         1 RES1   0.0000
    67 H24       3.4432    1.1581    2.4181   H         1 RES1   0.0000
    68 H25       4.2092    0.9782    4.0134   H         1 RES1   0.0000
    69 H26       2.5580    1.6078    3.8641   H         1 RES1   0.0000
    70 H27       3.8070   -2.8428    2.9669   H         1 RES1   0.0000
    71 H28       4.9397   -4.3721    4.5094   H         1 RES1   0.0000
    72 H29       5.2720   -3.7187    6.8744   H         1 RES1   0.0000
    73 H30       4.3834   -1.5799    7.6945   H         1 RES1   0.0000
    74 H31       3.1961   -0.0548    6.1557   H         1 RES1   0.0000
    75 H32      -2.5618   -0.4896    2.9441   H         1 RES1   0.0000
    76 H33      -5.0246   -0.3183    2.9985   H         1 RES1   0.0000
    77 H34      -6.3866   -2.2715    3.6638   H         1 RES1   0.0000
    78 H35      -5.2894   -4.3956    4.2269   H         1 RES1   0.0000
    79 H36      -2.8341   -4.5741    4.1849   H         1 RES1   0.0000
    80 C35       4.4520   -1.0809   -3.5939   C.3       1 RES1   0.0000
    81 N5        3.1865   -0.4096   -3.3270   N.am      1 RES1   0.0000
    82 C36       2.6441   -0.3448   -2.1083   C.2       1 RES1   0.0000
    83 O5        1.5749    0.2392   -1.8709   O.2       1 RES1   0.0000
    84 C37       3.3606   -1.0250   -0.9421   C.3       1 RES1   0.0000
    85 C38       2.4525   -2.1774   -0.5233   C.2       1 RES1   0.0000
    86 O6        1.2460   -1.9601   -0.3345   O.2       1 RES1   0.0000
    87 N6        2.9668   -3.4066   -0.4124   N.am      1 RES1   0.0000
    88 C39       2.0685   -4.5236   -0.1654   C.3       1 RES1   0.0000
    89 C40       4.3598   -3.7107   -0.4508   C.ar      1 RES1   0.0000
    90 C41       5.2460   -2.9813    0.3364   C.ar      1 RES1   0.0000
    91 C42       6.5944   -3.2895    0.3301   C.ar      1 RES1   0.0000
    92 C43       7.0595   -4.3458   -0.4361   C.ar      1 RES1   0.0000
    93 C44       6.1753   -5.0867   -1.2046   C.ar      1 RES1   0.0000
    94 C45       4.8259   -4.7689   -1.2212   C.ar      1 RES1   0.0000
    95 C46       2.5313    0.1890   -4.4519   C.ar      1 RES1   0.0000
    96 C47       1.1544    0.0737   -4.6097   C.ar      1 RES1   0.0000
    97 C48       0.5579    0.5480   -5.7640   C.ar      1 RES1   0.0000
    98 C49       1.3199    1.1444   -6.7548   C.ar      1 RES1   0.0000
    99 C50       2.6833    1.3079   -6.5707   C.ar      1 RES1   0.0000
   100 C51       3.2929    0.8391   -5.4188   C.ar      1 RES1   0.0000
   101 H37       4.4681   -2.0736   -3.1424   H         1 RES1   0.0000
   102 H38       5.2991   -0.4960   -3.2230   H         1 RES1   0.0000
   103 H39       4.5580   -1.2007   -4.6706   H         1 RES1   0.0000
   104 H40       3.3711   -0.2985   -0.1197   H         1 RES1   0.0000
   105 H41       4.3758   -1.3343   -1.1634   H         1 RES1   0.0000
   106 H42       1.0768   -4.1288    0.0443   H         1 RES1   0.0000
   107 H43       2.4287   -5.1064    0.6797   H         1 RES1   0.0000
   108 H44       2.0086   -5.1758   -1.0356   H         1 RES1   0.0000
   109 H45       4.8733   -2.1789    0.9563   H         1 RES1   0.0000
   110 H46       7.2775   -2.7025    0.9248   H         1 RES1   0.0000
   111 H47       8.1057   -4.6040   -0.4214   H         1 RES1   0.0000
   112 H48       6.5458   -5.9088   -1.7967   H         1 RES1   0.0000
   113 H49       4.1437   -5.3411   -1.8305   H         1 RES1   0.0000
   114 H50       0.5551   -0.3913   -3.8412   H         1 RES1   0.0000
   115 H51      -0.5077    0.4305   -5.8880   H         1 RES1   0.0000
   116 H52       0.8555    1.4877   -7.6637   H         1 RES1   0.0000
   117 H53       3.2753    1.7843   -7.3350   H         1 RES1   0.0000
   118 H54       4.3543    0.9769   -5.2828   H         1 RES1   0.0000
   119 C52      -3.2519   -3.9398   -3.0488   C.3       1 RES1   0.0000
   120 N7       -2.1235   -3.0149   -3.0076   N.am      1 RES1   0.0000
   121 C53      -1.9394   -2.1584   -1.9897   C.2       1 RES1   0.0000
   122 O7       -1.0576   -1.2838   -1.9840   O.2       1 RES1   0.0000
   123 C54      -2.8554   -2.3099   -0.7703   C.3       1 RES1   0.0000
   124 C55      -3.3072   -0.9383   -0.2937   C.2       1 RES1   0.0000
   125 O8       -2.4575   -0.0820   -0.0064   O.2       1 RES1   0.0000
   126 N8       -4.6142   -0.6629   -0.2445   N.am      1 RES1   0.0000
   127 C56      -5.0184    0.7139   -0.0046   C.3       1 RES1   0.0000
   128 C57      -5.6613   -1.6266   -0.3151   C.ar      1 RES1   0.0000
   129 C58      -5.5718   -2.8066    0.4190   C.ar      1 RES1   0.0000
   130 C59      -6.6138   -3.7162    0.4061   C.ar      1 RES1   0.0000
   131 C60      -7.7650   -3.4474   -0.3153   C.ar      1 RES1   0.0000
   132 C61      -7.8604   -2.2712   -1.0412   C.ar      1 RES1   0.0000
   133 C62      -6.8117   -1.3639   -1.0500   C.ar      1 RES1   0.0000
   134 C63      -1.1533   -3.1264   -4.0559   C.ar      1 RES1   0.0000
   135 C64       0.2003   -3.0390   -3.7485   C.ar      1 RES1   0.0000
   136 C65       1.1493   -3.1856   -4.7439   C.ar      1 RES1   0.0000
   137 C66       0.7626   -3.4606   -6.0441   C.ar      1 RES1   0.0000
   138 C67      -0.5845   -3.5597   -6.3506   C.ar      1 RES1   0.0000
   139 C68      -1.5442   -3.3773   -5.3675   C.ar      1 RES1   0.0000
   140 H55      -4.2065   -3.4056   -3.0697   H         1 RES1   0.0000
   141 H56      -3.2265   -4.6234   -2.1980   H         1 RES1   0.0000
   142 H57      -3.1802   -4.5417   -3.9503   H         1 RES1   0.0000
   143 H58      -2.2217   -2.7193    0.0281   H         1 RES1   0.0000
   144 H59      -3.6980   -2.9633   -0.9514   H         1 RES1   0.0000
   145 H60      -4.1502    1.2734    0.3362   H         1 RES1   0.0000
   146 H61      -5.8041    0.7499    0.7441   H         1 RES1   0.0000
   147 H62      -5.3952    1.1680   -0.9200   H         1 RES1   0.0000
   148 H63      -4.6992   -2.9933    1.0263   H         1 RES1   0.0000
   149 H64      -6.5258   -4.6342    0.9675   H         1 RES1   0.0000
   150 H65      -8.5929   -4.1374   -0.2954   H         1 RES1   0.0000
   151 H66      -8.7591   -2.0675   -1.6023   H         1 RES1   0.0000
   152 H67      -6.8998   -0.4538   -1.6229   H         1 RES1   0.0000
   153 H68       0.5015   -2.8455   -2.7288   H         1 RES1   0.0000
   154 H69       2.1971   -3.0904   -4.4989   H         1 RES1   0.0000
   155 H70       1.4998   -3.6058   -6.8168   H         1 RES1   0.0000
   156 H71      -0.8900   -3.7792   -7.3605   H         1 RES1   0.0000
   157 H72      -2.5876   -3.4304   -5.6370   H         1 RES1   0.0000
   158 O9       -1.0127    1.5534    1.8140   O.3       1 RES1   0.0000
   159 H73      -0.4261    1.8014    2.5386   H         1 RES1   0.0000
   160 H74      -1.5941    2.3102    1.6487   H         1 RES1   0.0000
@<TRIPOS>BOND
     1     1     5    1
     2     1     8    1
     3     1    44    1
     4     1    47    1
     5     1    83    1
     6     1    86    1
     7     1   122    1
     8     1   125    1
     9     1   158    1
    10     2     3    1
    11     2    23    1
    12     2    24    1
    13     2    25    1
    14     3     4    1
    15     3    17    1
    16     4     5    2
    17     4     6    1
    18     6     7    1
    19     6    26    1
    20     6    27    1
    21     7     8    2
    22     7     9    1
    23     9    10    1
    24     9    11    1
    25    10    28    1
    26    10    29    1
    27    10    30    1
    28    11    12    1
    29    11    16    2
    30    12    13    2
    31    12    31    1
    32    13    14    1
    33    13    32    1
    34    14    15    2
    35    14    33    1
    36    15    16    1
    37    15    34    1
    38    16    35    1
    39    17    18    1
    40    17    22    2
    41    18    19    2
    42    18    36    1
    43    19    20    1
    44    19    37    1
    45    20    21    2
    46    20    38    1
    47    21    22    1
    48    21    39    1
    49    22    40    1
    50    41    42    1
    51    41    62    1
    52    41    63    1
    53    41    64    1
    54    42    43    1
    55    42    56    1
    56    43    44    2
    57    43    45    1
    58    45    46    1
    59    45    65    1
    60    45    66    1
    61    46    47    2
    62    46    48    1
    63    48    49    1
    64    48    50    1
    65    49    67    1
    66    49    68    1
    67    49    69    1
    68    50    51    1
    69    50    55    2
    70    51    52    2
    71    51    70    1
    72    52    53    1
    73    52    71    1
    74    53    54    2
    75    53    72    1
    76    54    55    1
    77    54    73    1
    78    55    74    1
    79    56    57    1
    80    56    61    2
    81    57    58    2
    82    57    75    1
    83    58    59    1
    84    58    76    1
    85    59    60    2
    86    59    77    1
    87    60    61    1
    88    60    78    1
    89    61    79    1
    90    80    81    1
    91    80   101    1
    92    80   102    1
    93    80   103    1
    94    81    82    1
    95    81    95    1
    96    82    83    2
    97    82    84    1
    98    84    85    1
    99    84   104    1
   100    84   105    1
   101    85    86    2
   102    85    87    1
   103    87    88    1
   104    87    89    1
   105    88   106    1
   106    88   107    1
   107    88   108    1
   108    89    90    1
   109    89    94    2
   110    90    91    2
   111    90   109    1
   112    91    92    1
   113    91   110    1
   114    92    93    2
   115    92   111    1
   116    93    94    1
   117    93   112    1
   118    94   113    1
   119    95    96    1
   120    95   100    2
   121    96    97    2
   122    96   114    1
   123    97    98    1
   124    97   115    1
   125    98    99    2
   126    98   116    1
   127    99   100    1
   128    99   117    1
   129   100   118    1
   130   119   120    1
   131   119   140    1
   132   119   141    1
   133   119   142    1
   134   120   121    1
   135   120   134    1
   136   121   122    2
   137   121   123    1
   138   123   124    1
   139   123   143    1
   140   123   144    1
   141   124   125    2
   142   124   126    1
   143   126   127    1
   144   126   128    1
   145   127   145    1
   146   127   146    1
   147   127   147    1
   148   128   129    1
   149   128   133    2
   150   129   130    2
   151   129   148    1
   152   130   131    1
   153   130   149    1
   154   131   132    2
   155   131   150    1
   156   132   133    1
   157   132   151    1
   158   133   152    1
   159   134   135    1
   160   134   139    2
   161   135   136    2
   162   135   153    1
   163   136   137    1
   164   136   154    1
   165   137   138    2
   166   137   155    1
   167   138   139    1
   168   138   156    1
   169   139   157    1
   170   158   159    1
   171   158   160    1
@<TRIPOS>SUBSTRUCTURE
     1 RES1      160 GROUP             0 ****  ****    0  
