@<TRIPOS>MOLECULE
am_c3_9H2O_c0_0_nunpairedes_0_charge_3 Charge: 3 Unpaired_Electrons: 1 XTB_Unpaired_Electrons: 0 XTB_Charge: 3
   216   223     1     0     0
SMALL
NoCharges
****
Generated from Architector

@<TRIPOS>ATOM
     1 Ce1      -0.2668   -0.4228    0.0771   Ce        1 RES1   0.0000
     2 C1        6.6633   -1.0157    4.1991   C.3       1 RES1   0.0000
     3 C2        5.8631   -1.1341    5.4900   C.3       1 RES1   0.0000
     4 C3        5.7196    0.1909    6.2444   C.3       1 RES1   0.0000
     5 C4        4.7340    1.1387    5.5668   C.3       1 RES1   0.0000
     6 C5        4.5288    2.4308    6.3569   C.3       1 RES1   0.0000
     7 C6        3.6119    3.4462    5.6682   C.3       1 RES1   0.0000
     8 C7        4.2171    3.9918    4.3751   C.3       1 RES1   0.0000
     9 C8        3.4851    5.1910    3.7701   C.3       1 RES1   0.0000
    10 C9        2.1340    4.8684    3.1202   C.3       1 RES1   0.0000
    11 C10       0.9440    5.2089    4.0148   C.3       1 RES1   0.0000
    12 C11      -0.3736    4.6226    3.5012   C.3       1 RES1   0.0000
    13 C12      -0.3606    3.1039    3.6543   C.3       1 RES1   0.0000
    14 N1       -1.6217    2.4217    3.3860   N.am      1 RES1   0.0000
    15 C13      -2.6814    2.6907    4.3380   C.3       1 RES1   0.0000
    16 C14      -1.6560    1.4416    2.4943   C.2       1 RES1   0.0000
    17 O1       -0.7315    1.1968    1.6973   O.2       1 RES1   0.0000
    18 C15      -2.8085    0.4423    2.5866   C.3       1 RES1   0.0000
    19 C16      -2.4583   -0.4577    3.8003   C.3       1 RES1   0.0000
    20 C17      -2.1549   -1.8751    3.3009   C.3       1 RES1   0.0000
    21 O2       -1.0029   -1.8934    2.4218   O.3       1 RES1   0.0000
    22 C18      -0.0537   -2.9117    2.7502   C.3       1 RES1   0.0000
    23 C19      -3.4219   -2.3612    2.5925   C.3       1 RES1   0.0000
    24 C20      -3.7510   -1.3992    1.4332   C.3       1 RES1   0.0000
    25 C21      -3.7051   -1.9569   -0.0045   C.2       1 RES1   0.0000
    26 O3       -2.9075   -1.4050   -0.7799   O.2       1 RES1   0.0000
    27 N2       -4.5391   -2.9073   -0.4083   N.am      1 RES1   0.0000
    28 C22      -4.7207   -3.1275   -1.8349   C.3       1 RES1   0.0000
    29 C23      -5.3421   -3.7831    0.4222   C.3       1 RES1   0.0000
    30 C24      -4.6532   -5.1172    0.8259   C.3       1 RES1   0.0000
    31 C25      -3.4743   -5.6220   -0.0173   C.3       1 RES1   0.0000
    32 C26      -2.1499   -4.8289    0.0866   C.3       1 RES1   0.0000
    33 C27      -1.5775   -4.4360   -1.2838   C.3       1 RES1   0.0000
    34 C28      -0.6665   -3.1858   -1.2704   C.3       1 RES1   0.0000
    35 C29      -0.7006   -2.4883   -2.6458   C.3       1 RES1   0.0000
    36 C30       0.0166   -1.1252   -2.8341   C.3       1 RES1   0.0000
    37 C31       1.1842   -1.3051   -3.8218   C.3       1 RES1   0.0000
    38 C32       2.0863   -0.1330   -4.2237   C.3       1 RES1   0.0000
    39 C33       2.8746   -0.5442   -5.4822   C.3       1 RES1   0.0000
    40 C34       4.0834    0.3466   -5.7427   C.3       1 RES1   0.0000
    41 O4       -2.8096   -0.3187    1.3922   O.3       1 RES1   0.0000
    42 H1        6.7081   -1.9764    3.6952   H         1 RES1   0.0000
    43 H2        7.6754   -0.6870    4.4100   H         1 RES1   0.0000
    44 H3        6.2172   -0.3065    3.5056   H         1 RES1   0.0000
    45 H4        6.3564   -1.8525    6.1448   H         1 RES1   0.0000
    46 H5        4.8649   -1.5322    5.2767   H         1 RES1   0.0000
    47 H6        6.6867    0.6866    6.3280   H         1 RES1   0.0000
    48 H7        5.3784   -0.0124    7.2621   H         1 RES1   0.0000
    49 H8        3.7707    0.6284    5.4616   H         1 RES1   0.0000
    50 H9        5.1033    1.3706    4.5671   H         1 RES1   0.0000
    51 H10       5.4975    2.8982    6.5376   H         1 RES1   0.0000
    52 H11       4.1037    2.1749    7.3297   H         1 RES1   0.0000
    53 H12       3.4442    4.2682    6.3654   H         1 RES1   0.0000
    54 H13       2.6408    2.9848    5.4699   H         1 RES1   0.0000
    55 H14       4.2870    3.1885    3.6350   H         1 RES1   0.0000
    56 H15       5.2376    4.3062    4.5976   H         1 RES1   0.0000
    57 H16       4.1507    5.6330    3.0281   H         1 RES1   0.0000
    58 H17       3.3454    5.9330    4.5536   H         1 RES1   0.0000
    59 H18       2.1096    3.8086    2.8578   H         1 RES1   0.0000
    60 H19       2.0386    5.4269    2.1889   H         1 RES1   0.0000
    61 H20       0.8407    6.2916    4.0743   H         1 RES1   0.0000
    62 H21       1.1367    4.8447    5.0235   H         1 RES1   0.0000
    63 H22      -0.5227    4.8887    2.4547   H         1 RES1   0.0000
    64 H23      -1.1906    5.0656    4.0698   H         1 RES1   0.0000
    65 H24      -0.0969    2.8544    4.6871   H         1 RES1   0.0000
    66 H25       0.3774    2.6740    2.9770   H         1 RES1   0.0000
    67 H26      -2.4591    3.6479    4.8017   H         1 RES1   0.0000
    68 H27      -2.7227    1.9318    5.1224   H         1 RES1   0.0000
    69 H28      -3.6528    2.7587    3.8517   H         1 RES1   0.0000
    70 H29      -3.7835    0.9290    2.7012   H         1 RES1   0.0000
    71 H30      -3.2897   -0.5211    4.5028   H         1 RES1   0.0000
    72 H31      -1.5935   -0.0585    4.3290   H         1 RES1   0.0000
    73 H32      -1.9630   -2.5157    4.1689   H         1 RES1   0.0000
    74 H33       0.3123   -2.7890    3.7721   H         1 RES1   0.0000
    75 H34       0.7700   -2.8045    2.0415   H         1 RES1   0.0000
    76 H35      -0.4843   -3.9111    2.6604   H         1 RES1   0.0000
    77 H36      -4.2316   -2.3522    3.3226   H         1 RES1   0.0000
    78 H37      -3.2879   -3.3862    2.2633   H         1 RES1   0.0000
    79 H38      -4.7598   -0.9788    1.5725   H         1 RES1   0.0000
    80 H39      -3.9388   -2.6153   -2.3858   H         1 RES1   0.0000
    81 H40      -5.6901   -2.7249   -2.1383   H         1 RES1   0.0000
    82 H41      -4.7105   -4.1913   -2.0624   H         1 RES1   0.0000
    83 H42      -6.2373   -4.0080   -0.1619   H         1 RES1   0.0000
    84 H43      -5.6657   -3.2556    1.3205   H         1 RES1   0.0000
    85 H44      -5.4245   -5.8862    0.7850   H         1 RES1   0.0000
    86 H45      -4.3408   -5.0710    1.8683   H         1 RES1   0.0000
    87 H46      -3.7826   -5.6961   -1.0563   H         1 RES1   0.0000
    88 H47      -3.2976   -6.6485    0.3016   H         1 RES1   0.0000
    89 H48      -1.4156   -5.4429    0.6138   H         1 RES1   0.0000
    90 H49      -2.2911   -3.9222    0.6776   H         1 RES1   0.0000
    91 H50      -2.3916   -4.2299   -1.9767   H         1 RES1   0.0000
    92 H51      -1.0291   -5.2952   -1.6805   H         1 RES1   0.0000
    93 H52       0.3440   -3.4981   -1.0008   H         1 RES1   0.0000
    94 H53      -1.0252   -2.4683   -0.4820   H         1 RES1   0.0000
    95 H54      -1.7477   -2.3662   -2.9044   H         1 RES1   0.0000
    96 H55      -0.2664   -3.1556   -3.3820   H         1 RES1   0.0000
    97 H56      -0.6771   -0.3876   -3.2553   H         1 RES1   0.0000
    98 H57       0.3917   -0.7173   -1.8643   H         1 RES1   0.0000
    99 H58       0.7543   -1.6794   -4.7553   H         1 RES1   0.0000
   100 H59       1.8329   -2.0805   -3.4177   H         1 RES1   0.0000
   101 H60       2.7907    0.0946   -3.4220   H         1 RES1   0.0000
   102 H61       1.5057    0.7688   -4.4338   H         1 RES1   0.0000
   103 H62       2.2088   -0.5231   -6.3502   H         1 RES1   0.0000
   104 H63       3.2266   -1.5734   -5.3635   H         1 RES1   0.0000
   105 H64       3.7916    1.3943   -5.7699   H         1 RES1   0.0000
   106 H65       4.5401    0.0972   -6.6968   H         1 RES1   0.0000
   107 H66       4.8399    0.2047   -4.9703   H         1 RES1   0.0000
   108 C35      -6.0468   -2.4754   -8.5399   C.3       1 RES1   0.0000
   109 C36      -5.9558   -1.5374   -9.7388   C.3       1 RES1   0.0000
   110 C37      -5.6264   -0.0942   -9.3565   C.3       1 RES1   0.0000
   111 C38      -4.2113    0.0902   -8.8131   C.3       1 RES1   0.0000
   112 C39      -3.9741    1.5310   -8.3638   C.3       1 RES1   0.0000
   113 C40      -2.6707    1.6955   -7.5869   C.3       1 RES1   0.0000
   114 C41      -2.5354    3.0695   -6.9294   C.3       1 RES1   0.0000
   115 C42      -1.4936    3.0640   -5.8080   C.3       1 RES1   0.0000
   116 C43      -1.2638    4.4674   -5.2461   C.3       1 RES1   0.0000
   117 C44      -0.2151    4.5192   -4.1280   C.3       1 RES1   0.0000
   118 C45      -0.7271    3.9483   -2.8053   C.3       1 RES1   0.0000
   119 C46       0.1892    4.2015   -1.6050   C.3       1 RES1   0.0000
   120 N3        1.4534    3.4720   -1.6405   N.am      1 RES1   0.0000
   121 C47       2.6114    4.1632   -2.1634   C.3       1 RES1   0.0000
   122 C48       1.4788    2.2481   -1.1386   C.2       1 RES1   0.0000
   123 O5        0.4449    1.6702   -0.7549   O.2       1 RES1   0.0000
   124 C49       2.8049    1.5137   -0.9291   C.3       1 RES1   0.0000
   125 C50       3.3522    1.8522    0.4783   C.3       1 RES1   0.0000
   126 C51       3.3101    0.6043    1.3672   C.3       1 RES1   0.0000
   127 O6        1.9352    0.2813    1.6662   O.3       1 RES1   0.0000
   128 C52       1.7679    0.0194    3.0512   C.3       1 RES1   0.0000
   129 C53       4.0132   -0.5921    0.7103   C.3       1 RES1   0.0000
   130 C54       3.5612   -0.7275   -0.7634   C.3       1 RES1   0.0000
   131 C55       2.9556   -2.1187   -1.0149   C.2       1 RES1   0.0000
   132 O7        1.8915   -2.3243   -0.3908   O.2       1 RES1   0.0000
   133 N4        3.5243   -2.9838   -1.8456   N.am      1 RES1   0.0000
   134 C56       4.8137   -2.7823   -2.4845   C.3       1 RES1   0.0000
   135 C57       3.0184   -4.3510   -2.0289   C.3       1 RES1   0.0000
   136 C58       2.6282   -4.6983   -3.4912   C.3       1 RES1   0.0000
   137 C59       1.1880   -5.2194   -3.6815   C.3       1 RES1   0.0000
   138 C60       0.6178   -4.8446   -5.0615   C.3       1 RES1   0.0000
   139 C61      -0.8970   -5.0535   -5.2191   C.3       1 RES1   0.0000
   140 C62      -1.4707   -4.2361   -6.3904   C.3       1 RES1   0.0000
   141 C63      -1.7784   -2.7738   -6.0404   C.3       1 RES1   0.0000
   142 C64      -3.1467   -2.5526   -5.3840   C.3       1 RES1   0.0000
   143 C65      -3.2579   -1.1294   -4.8132   C.3       1 RES1   0.0000
   144 C66      -4.7021   -0.7362   -4.4647   C.3       1 RES1   0.0000
   145 C67      -4.7976    0.1224   -3.1997   C.3       1 RES1   0.0000
   146 C68      -6.2398    0.3709   -2.7600   C.3       1 RES1   0.0000
   147 O8        2.4551    0.1393   -1.0180   O.3       1 RES1   0.0000
   148 H67      -6.3813   -3.4610   -8.8541   H         1 RES1   0.0000
   149 H68      -5.0782   -2.5946   -8.0598   H         1 RES1   0.0000
   150 H69      -6.7537   -2.0917   -7.8061   H         1 RES1   0.0000
   151 H70      -5.2063   -1.9150  -10.4362   H         1 RES1   0.0000
   152 H71      -6.9177   -1.5448  -10.2535   H         1 RES1   0.0000
   153 H72      -5.7533    0.5390  -10.2364   H         1 RES1   0.0000
   154 H73      -6.3466    0.2406   -8.6055   H         1 RES1   0.0000
   155 H74      -4.0587   -0.5777   -7.9624   H         1 RES1   0.0000
   156 H75      -3.4881   -0.1816   -9.5828   H         1 RES1   0.0000
   157 H76      -3.9739    2.1957   -9.2281   H         1 RES1   0.0000
   158 H77      -4.8040    1.8344   -7.7211   H         1 RES1   0.0000
   159 H78      -2.6403    0.9411   -6.7970   H         1 RES1   0.0000
   160 H79      -1.8155    1.5208   -8.2428   H         1 RES1   0.0000
   161 H80      -2.2499    3.8097   -7.6768   H         1 RES1   0.0000
   162 H81      -3.4971    3.3796   -6.5134   H         1 RES1   0.0000
   163 H82      -1.8230    2.3862   -5.0128   H         1 RES1   0.0000
   164 H83      -0.5481    2.6808   -6.2009   H         1 RES1   0.0000
   165 H84      -0.9239    5.1042   -6.0645   H         1 RES1   0.0000
   166 H85      -2.2092    4.8841   -4.8908   H         1 RES1   0.0000
   167 H86       0.6664    3.9667   -4.4577   H         1 RES1   0.0000
   168 H87       0.0689    5.5622   -3.9808   H         1 RES1   0.0000
   169 H88      -1.6874    4.4179   -2.5816   H         1 RES1   0.0000
   170 H89      -0.8773    2.8737   -2.9116   H         1 RES1   0.0000
   171 H90       0.4234    5.2612   -1.5277   H         1 RES1   0.0000
   172 H91      -0.3267    3.8951   -0.6921   H         1 RES1   0.0000
   173 H92       2.2645    5.0311   -2.7152   H         1 RES1   0.0000
   174 H93       3.2626    4.5010   -1.3557   H         1 RES1   0.0000
   175 H94       3.1779    3.5345   -2.8490   H         1 RES1   0.0000
   176 H95       3.5496    1.7556   -1.6981   H         1 RES1   0.0000
   177 H96       4.3767    2.2231    0.4273   H         1 RES1   0.0000
   178 H97       2.7353    2.6223    0.9460   H         1 RES1   0.0000
   179 H98       3.8306    0.8374    2.3048   H         1 RES1   0.0000
   180 H99       2.1153    0.8709    3.6465   H         1 RES1   0.0000
   181 H100      0.7056   -0.1332    3.2182   H         1 RES1   0.0000
   182 H101      2.3158   -0.8811    3.3411   H         1 RES1   0.0000
   183 H102      5.0923   -0.4630    0.7679   H         1 RES1   0.0000
   184 H103      3.7596   -1.4910    1.2750   H         1 RES1   0.0000
   185 H104      4.3842   -0.4675   -1.4379   H         1 RES1   0.0000
   186 H105      5.6283   -3.0572   -1.8087   H         1 RES1   0.0000
   187 H106      4.8670   -3.4230   -3.3592   H         1 RES1   0.0000
   188 H107      4.9583   -1.7627   -2.8256   H         1 RES1   0.0000
   189 H108      3.8359   -4.9984   -1.7085   H         1 RES1   0.0000
   190 H109      2.1732   -4.5046   -1.3588   H         1 RES1   0.0000
   191 H110      2.7474   -3.8127   -4.1188   H         1 RES1   0.0000
   192 H111      3.3125   -5.4528   -3.8797   H         1 RES1   0.0000
   193 H112      1.1623   -6.3025   -3.5671   H         1 RES1   0.0000
   194 H113      0.5590   -4.8099   -2.8979   H         1 RES1   0.0000
   195 H114      0.8473   -3.7982   -5.2678   H         1 RES1   0.0000
   196 H115      1.1284   -5.4271   -5.8297   H         1 RES1   0.0000
   197 H116     -1.0881   -6.1124   -5.3870   H         1 RES1   0.0000
   198 H117     -1.4182   -4.7714   -4.3020   H         1 RES1   0.0000
   199 H118     -0.7517   -4.2565   -7.2076   H         1 RES1   0.0000
   200 H119     -2.3844   -4.6993   -6.7573   H         1 RES1   0.0000
   201 H120     -1.0012   -2.3921   -5.3782   H         1 RES1   0.0000
   202 H121     -1.7411   -2.1747   -6.9514   H         1 RES1   0.0000
   203 H122     -3.9269   -2.6991   -6.1359   H         1 RES1   0.0000
   204 H123     -3.3133   -3.2948   -4.5930   H         1 RES1   0.0000
   205 H124     -2.6374   -1.0332   -3.9150   H         1 RES1   0.0000
   206 H125     -2.8497   -0.4263   -5.5463   H         1 RES1   0.0000
   207 H126     -5.1363   -0.1776   -5.2935   H         1 RES1   0.0000
   208 H127     -5.2901   -1.6457   -4.3266   H         1 RES1   0.0000
   209 H128     -4.2680   -0.3875   -2.3875   H         1 RES1   0.0000
   210 H129     -4.2959    1.0764   -3.3841   H         1 RES1   0.0000
   211 H130     -6.7226   -0.5569   -2.4555   H         1 RES1   0.0000
   212 H131     -6.2811    1.0566   -1.9154   H         1 RES1   0.0000
   213 H132     -6.8307    0.7989   -3.5655   H         1 RES1   0.0000
   214 O9       -1.9957    0.9814   -1.2438   O.3       1 RES1   0.0000
   215 H133     -2.0102    1.9421   -1.3698   H         1 RES1   0.0000
   216 H134     -2.9145    0.6699   -1.3073   H         1 RES1   0.0000
@<TRIPOS>BOND
     1     1    17    1
     2     1    21    1
     3     1    26    1
     4     1    41    1
     5     1   123    1
     6     1   127    1
     7     1   132    1
     8     1   147    1
     9     1   214    1
    10     2     3    1
    11     2    42    1
    12     2    43    1
    13     2    44    1
    14     3     4    1
    15     3    45    1
    16     3    46    1
    17     4     5    1
    18     4    47    1
    19     4    48    1
    20     5     6    1
    21     5    49    1
    22     5    50    1
    23     6     7    1
    24     6    51    1
    25     6    52    1
    26     7     8    1
    27     7    53    1
    28     7    54    1
    29     8     9    1
    30     8    55    1
    31     8    56    1
    32     9    10    1
    33     9    57    1
    34     9    58    1
    35    10    11    1
    36    10    59    1
    37    10    60    1
    38    11    12    1
    39    11    61    1
    40    11    62    1
    41    12    13    1
    42    12    63    1
    43    12    64    1
    44    13    14    1
    45    13    65    1
    46    13    66    1
    47    14    15    1
    48    14    16    1
    49    15    67    1
    50    15    68    1
    51    15    69    1
    52    16    17    2
    53    16    18    1
    54    18    19    1
    55    18    41    1
    56    18    70    1
    57    19    20    1
    58    19    71    1
    59    19    72    1
    60    20    21    1
    61    20    23    1
    62    20    73    1
    63    21    22    1
    64    22    74    1
    65    22    75    1
    66    22    76    1
    67    23    24    1
    68    23    77    1
    69    23    78    1
    70    24    25    1
    71    24    41    1
    72    24    79    1
    73    25    26    2
    74    25    27    1
    75    27    28    1
    76    27    29    1
    77    28    80    1
    78    28    81    1
    79    28    82    1
    80    29    30    1
    81    29    83    1
    82    29    84    1
    83    30    31    1
    84    30    85    1
    85    30    86    1
    86    31    32    1
    87    31    87    1
    88    31    88    1
    89    32    33    1
    90    32    89    1
    91    32    90    1
    92    33    34    1
    93    33    91    1
    94    33    92    1
    95    34    35    1
    96    34    93    1
    97    34    94    1
    98    35    36    1
    99    35    95    1
   100    35    96    1
   101    36    37    1
   102    36    97    1
   103    36    98    1
   104    37    38    1
   105    37    99    1
   106    37   100    1
   107    38    39    1
   108    38   101    1
   109    38   102    1
   110    39    40    1
   111    39   103    1
   112    39   104    1
   113    40   105    1
   114    40   106    1
   115    40   107    1
   116   108   109    1
   117   108   148    1
   118   108   149    1
   119   108   150    1
   120   109   110    1
   121   109   151    1
   122   109   152    1
   123   110   111    1
   124   110   153    1
   125   110   154    1
   126   111   112    1
   127   111   155    1
   128   111   156    1
   129   112   113    1
   130   112   157    1
   131   112   158    1
   132   113   114    1
   133   113   159    1
   134   113   160    1
   135   114   115    1
   136   114   161    1
   137   114   162    1
   138   115   116    1
   139   115   163    1
   140   115   164    1
   141   116   117    1
   142   116   165    1
   143   116   166    1
   144   117   118    1
   145   117   167    1
   146   117   168    1
   147   118   119    1
   148   118   169    1
   149   118   170    1
   150   119   120    1
   151   119   171    1
   152   119   172    1
   153   120   121    1
   154   120   122    1
   155   121   173    1
   156   121   174    1
   157   121   175    1
   158   122   123    2
   159   122   124    1
   160   124   125    1
   161   124   147    1
   162   124   176    1
   163   125   126    1
   164   125   177    1
   165   125   178    1
   166   126   127    1
   167   126   129    1
   168   126   179    1
   169   127   128    1
   170   128   180    1
   171   128   181    1
   172   128   182    1
   173   129   130    1
   174   129   183    1
   175   129   184    1
   176   130   131    1
   177   130   147    1
   178   130   185    1
   179   131   132    2
   180   131   133    1
   181   133   134    1
   182   133   135    1
   183   134   186    1
   184   134   187    1
   185   134   188    1
   186   135   136    1
   187   135   189    1
   188   135   190    1
   189   136   137    1
   190   136   191    1
   191   136   192    1
   192   137   138    1
   193   137   193    1
   194   137   194    1
   195   138   139    1
   196   138   195    1
   197   138   196    1
   198   139   140    1
   199   139   197    1
   200   139   198    1
   201   140   141    1
   202   140   199    1
   203   140   200    1
   204   141   142    1
   205   141   201    1
   206   141   202    1
   207   142   143    1
   208   142   203    1
   209   142   204    1
   210   143   144    1
   211   143   205    1
   212   143   206    1
   213   144   145    1
   214   144   207    1
   215   144   208    1
   216   145   146    1
   217   145   209    1
   218   145   210    1
   219   146   211    1
   220   146   212    1
   221   146   213    1
   222   214   215    1
   223   214   216    1
@<TRIPOS>SUBSTRUCTURE
     1 RES1      216 GROUP             0 ****  ****    0  
