@<TRIPOS>MOLECULE
capped_square_antiprismatic_0_nunpairedes_0_charge_3 Charge: 3 Unpaired_Electrons: 1 XTB_Unpaired_Electrons: 0 XTB_Charge: 3
   448   453     1     0     0
SMALL
NoCharges
****
Generated from Architector

@<TRIPOS>ATOM
     1 Ce1      -0.1600    0.1870    0.2695   Ce        1 RES1   0.0000
     2 C1        1.9506    1.2168   11.2764   C.3       1 RES1   0.0000
     3 C2        1.3576    2.1911   10.2688   C.3       1 RES1   0.0000
     4 C3       -0.1765    2.1748   10.2662   C.3       1 RES1   0.0000
     5 C4       -0.7794    3.2642    9.3659   C.3       1 RES1   0.0000
     6 C5       -1.9960    2.8094    8.5458   C.3       1 RES1   0.0000
     7 C6       -2.1903    3.7679    7.3694   C.3       1 RES1   0.0000
     8 C7       -3.2663    3.3863    6.3385   C.3       1 RES1   0.0000
     9 C8       -2.8352    2.3545    5.2813   C.3       1 RES1   0.0000
    10 N1       -1.9838    2.8055    4.1662   N.am      1 RES1   0.0000
    11 C9       -2.0387    4.2213    3.7731   C.3       1 RES1   0.0000
    12 C10      -1.2326    5.1677    4.6891   C.3       1 RES1   0.0000
    13 C11      -0.8445    6.5077    4.0574   C.3       1 RES1   0.0000
    14 C12       0.2323    7.2925    4.8406   C.3       1 RES1   0.0000
    15 C13       0.4724    8.6256    4.1144   C.3       1 RES1   0.0000
    16 C14       1.3549    8.5527    2.8651   C.3       1 RES1   0.0000
    17 C15       2.8496    8.3536    3.1531   C.3       1 RES1   0.0000
    18 C16       3.5488    9.6318    3.6074   C.3       1 RES1   0.0000
    19 C17      -0.1560    7.5921    6.2956   C.3       1 RES1   0.0000
    20 C18       0.9735    8.1208    7.1957   C.3       1 RES1   0.0000
    21 C19       1.8620    7.0792    7.8921   C.3       1 RES1   0.0000
    22 C20       3.1011    6.6461    7.1005   C.3       1 RES1   0.0000
    23 C21       4.2269    7.6810    7.0848   C.3       1 RES1   0.0000
    24 C22       5.4261    7.1808    6.2833   C.3       1 RES1   0.0000
    25 C23      -1.4307    1.9012    3.3496   C.2       1 RES1   0.0000
    26 O1       -0.8774    2.1629    2.2661   O.2       1 RES1   0.0000
    27 C24      -1.4279    0.4121    3.7521   C.3       1 RES1   0.0000
    28 O2       -0.5314   -0.2807    2.8833   O.3       1 RES1   0.0000
    29 C25       0.6257   -0.8154    3.5247   C.3       1 RES1   0.0000
    30 C26       1.8683   -0.5537    2.6612   C.2       1 RES1   0.0000
    31 O3        1.6778    0.0069    1.5641   O.2       1 RES1   0.0000
    32 N2        3.0578   -0.9271    3.1147   N.am      1 RES1   0.0000
    33 C27       4.3348   -0.8818    2.3570   C.3       1 RES1   0.0000
    34 C28       4.5759    0.1022    1.1793   C.3       1 RES1   0.0000
    35 C29       5.7621    1.0654    1.4042   C.3       1 RES1   0.0000
    36 C30       6.5237    1.4804    0.1390   C.3       1 RES1   0.0000
    37 C31       5.8822    2.5314   -0.7716   C.3       1 RES1   0.0000
    38 C32       5.8751    3.9533   -0.2017   C.3       1 RES1   0.0000
    39 C33       5.2162    4.9365   -1.1719   C.3       1 RES1   0.0000
    40 C34       5.0039    6.3350   -0.5996   C.3       1 RES1   0.0000
    41 C35       3.1905   -1.4184    4.4913   C.3       1 RES1   0.0000
    42 C36       2.7765   -2.8679    4.7958   C.3       1 RES1   0.0000
    43 C37       2.8550   -3.0802    6.3207   C.3       1 RES1   0.0000
    44 C38       1.8567   -4.0736    6.9442   C.3       1 RES1   0.0000
    45 C39       1.9377   -3.9135    8.4738   C.3       1 RES1   0.0000
    46 C40       0.9735   -2.8511    9.0187   C.3       1 RES1   0.0000
    47 C41      -0.3560   -3.4925    9.4110   C.3       1 RES1   0.0000
    48 C42      -1.3735   -2.4759    9.9141   C.3       1 RES1   0.0000
    49 C43       2.1288   -5.5132    6.4953   C.3       1 RES1   0.0000
    50 C44       1.0119   -6.5057    6.8628   C.3       1 RES1   0.0000
    51 C45       1.4724   -7.5787    7.8464   C.3       1 RES1   0.0000
    52 C46       0.3975   -8.6364    8.1488   C.3       1 RES1   0.0000
    53 C47      -0.3195   -8.4813    9.4957   C.3       1 RES1   0.0000
    54 C48      -1.3486   -7.3555    9.5321   C.3       1 RES1   0.0000
    55 H1        3.0258    1.1313   11.1368   H         1 RES1   0.0000
    56 H2        1.5097    0.2318   11.1478   H         1 RES1   0.0000
    57 H3        1.7728    1.5366   12.2971   H         1 RES1   0.0000
    58 H4        1.7433    1.9069    9.2905   H         1 RES1   0.0000
    59 H5        1.7274    3.1962   10.4651   H         1 RES1   0.0000
    60 H6       -0.5334    2.2942   11.2884   H         1 RES1   0.0000
    61 H7       -0.5108    1.1892    9.9295   H         1 RES1   0.0000
    62 H8       -0.0144    3.5717    8.6500   H         1 RES1   0.0000
    63 H9       -1.0291    4.1435    9.9646   H         1 RES1   0.0000
    64 H10      -2.8937    2.7983    9.1615   H         1 RES1   0.0000
    65 H11      -1.8243    1.7931    8.1767   H         1 RES1   0.0000
    66 H12      -1.2304    3.8649    6.8692   H         1 RES1   0.0000
    67 H13      -2.4320    4.7471    7.7845   H         1 RES1   0.0000
    68 H14      -3.6576    4.2870    5.8683   H         1 RES1   0.0000
    69 H15      -4.1184    2.9424    6.8561   H         1 RES1   0.0000
    70 H16      -3.7427    1.9244    4.8309   H         1 RES1   0.0000
    71 H17      -2.3063    1.5627    5.8157   H         1 RES1   0.0000
    72 H18      -3.0925    4.5150    3.7738   H         1 RES1   0.0000
    73 H19      -1.6699    4.2553    2.7475   H         1 RES1   0.0000
    74 H20      -0.3250    4.6569    5.0117   H         1 RES1   0.0000
    75 H21      -1.8344    5.4059    5.5610   H         1 RES1   0.0000
    76 H22      -1.7416    7.1226    3.9658   H         1 RES1   0.0000
    77 H23      -0.4655    6.3465    3.0454   H         1 RES1   0.0000
    78 H24       1.1532    6.7064    4.8336   H         1 RES1   0.0000
    79 H25       0.9186    9.3386    4.8032   H         1 RES1   0.0000
    80 H26      -0.5001    9.0339    3.8298   H         1 RES1   0.0000
    81 H27       1.2297    9.4793    2.2987   H         1 RES1   0.0000
    82 H28       0.9995    7.7435    2.2193   H         1 RES1   0.0000
    83 H29       3.3365    8.0006    2.2366   H         1 RES1   0.0000
    84 H30       2.9795    7.5852    3.9212   H         1 RES1   0.0000
    85 H31       3.4810   10.3966    2.8348   H         1 RES1   0.0000
    86 H32       4.6012    9.4247    3.7957   H         1 RES1   0.0000
    87 H33       3.1024   10.0196    4.5217   H         1 RES1   0.0000
    88 H34      -0.5813    6.7113    6.7738   H         1 RES1   0.0000
    89 H35      -0.9369    8.3532    6.2601   H         1 RES1   0.0000
    90 H36       0.4980    8.7071    7.9804   H         1 RES1   0.0000
    91 H37       1.6175    8.8032    6.6465   H         1 RES1   0.0000
    92 H38       1.2670    6.1962    8.1410   H         1 RES1   0.0000
    93 H39       2.2070    7.4974    8.8412   H         1 RES1   0.0000
    94 H40       2.8112    6.4360    6.0703   H         1 RES1   0.0000
    95 H41       3.4940    5.7209    7.5374   H         1 RES1   0.0000
    96 H42       4.5438    7.8919    8.1082   H         1 RES1   0.0000
    97 H43       3.8678    8.6146    6.6465   H         1 RES1   0.0000
    98 H44       5.8513    6.2859    6.7363   H         1 RES1   0.0000
    99 H45       6.2021    7.9406    6.2508   H         1 RES1   0.0000
   100 H46       5.1365    6.9449    5.2589   H         1 RES1   0.0000
   101 H47      -2.4311   -0.0172    3.6283   H         1 RES1   0.0000
   102 H48      -1.1430    0.2634    4.7974   H         1 RES1   0.0000
   103 H49       0.7434   -0.3703    4.5173   H         1 RES1   0.0000
   104 H50       0.5028   -1.9017    3.6138   H         1 RES1   0.0000
   105 H51       4.5024   -1.9009    1.9992   H         1 RES1   0.0000
   106 H52       5.0960   -0.6756    3.1115   H         1 RES1   0.0000
   107 H53       3.6676    0.6527    0.9582   H         1 RES1   0.0000
   108 H54       4.8044   -0.4953    0.2950   H         1 RES1   0.0000
   109 H55       6.4873    0.5603    2.0429   H         1 RES1   0.0000
   110 H56       5.4492    1.9653    1.9272   H         1 RES1   0.0000
   111 H57       6.7235    0.5865   -0.4529   H         1 RES1   0.0000
   112 H58       7.4859    1.8845    0.4562   H         1 RES1   0.0000
   113 H59       4.8670    2.2310   -1.0426   H         1 RES1   0.0000
   114 H60       6.4648    2.5578   -1.6947   H         1 RES1   0.0000
   115 H61       6.9030    4.2683   -0.0207   H         1 RES1   0.0000
   116 H62       5.3508    3.9802    0.7541   H         1 RES1   0.0000
   117 H63       4.2492    4.5258   -1.4808   H         1 RES1   0.0000
   118 H64       5.8309    5.0142   -2.0691   H         1 RES1   0.0000
   119 H65       4.4439    6.3013    0.3333   H         1 RES1   0.0000
   120 H66       4.4459    6.9453   -1.3082   H         1 RES1   0.0000
   121 H67       5.9571    6.8192   -0.4083   H         1 RES1   0.0000
   122 H68       2.5909   -0.7671    5.1315   H         1 RES1   0.0000
   123 H69       4.2358   -1.2936    4.7799   H         1 RES1   0.0000
   124 H70       3.4352   -3.5693    4.2886   H         1 RES1   0.0000
   125 H71       1.7640   -3.0714    4.4485   H         1 RES1   0.0000
   126 H72       2.6967   -2.1113    6.8006   H         1 RES1   0.0000
   127 H73       3.8633   -3.3998    6.5869   H         1 RES1   0.0000
   128 H74       0.8446   -3.8041    6.6299   H         1 RES1   0.0000
   129 H75       2.9642   -3.6718    8.7549   H         1 RES1   0.0000
   130 H76       1.6881   -4.8587    8.9520   H         1 RES1   0.0000
   131 H77       0.7993   -2.0749    8.2681   H         1 RES1   0.0000
   132 H78       1.3958   -2.3579    9.8961   H         1 RES1   0.0000
   133 H79      -0.1722   -4.2244   10.1988   H         1 RES1   0.0000
   134 H80      -0.7582   -4.0368    8.5513   H         1 RES1   0.0000
   135 H81      -1.0342   -2.0449   10.8532   H         1 RES1   0.0000
   136 H82      -2.3374   -2.9522   10.0850   H         1 RES1   0.0000
   137 H83      -1.5066   -1.6657    9.1959   H         1 RES1   0.0000
   138 H84       3.0702   -5.8398    6.9370   H         1 RES1   0.0000
   139 H85       2.2596   -5.5068    5.4120   H         1 RES1   0.0000
   140 H86       0.6754   -7.0142    5.9577   H         1 RES1   0.0000
   141 H87       0.1526   -5.9790    7.2775   H         1 RES1   0.0000
   142 H88       1.8037   -7.1191    8.7778   H         1 RES1   0.0000
   143 H89       2.3401   -8.0741    7.4084   H         1 RES1   0.0000
   144 H90       0.8671   -9.6218    8.1484   H         1 RES1   0.0000
   145 H91      -0.3488   -8.6373    7.3499   H         1 RES1   0.0000
   146 H92       0.4177   -8.3206   10.2868   H         1 RES1   0.0000
   147 H93      -0.8285   -9.4235    9.7170   H         1 RES1   0.0000
   148 H94      -0.8743   -6.3894    9.3757   H         1 RES1   0.0000
   149 H95      -1.8427   -7.3404   10.5021   H         1 RES1   0.0000
   150 H96      -2.1094   -7.5017    8.7653   H         1 RES1   0.0000
   151 C49       0.4965   -8.0227   -4.2832   C.3       1 RES1   0.0000
   152 C50       1.9695   -7.6350   -4.2160   C.3       1 RES1   0.0000
   153 C51       2.2536   -6.4393   -3.3006   C.3       1 RES1   0.0000
   154 C52       1.8653   -6.7082   -1.8471   C.3       1 RES1   0.0000
   155 C53       2.2609   -5.5785   -0.8956   C.3       1 RES1   0.0000
   156 C54       1.9910   -5.9286    0.5660   C.3       1 RES1   0.0000
   157 C55       0.5056   -5.9887    0.9371   C.3       1 RES1   0.0000
   158 C56      -0.1223   -4.6153    1.2290   C.3       1 RES1   0.0000
   159 N3       -1.2879   -4.1771    0.4363   N.am      1 RES1   0.0000
   160 C57      -2.2413   -5.1706   -0.0280   C.3       1 RES1   0.0000
   161 C58      -3.0716   -5.8252    1.0844   C.3       1 RES1   0.0000
   162 C59      -4.1182   -4.9220    1.7516   C.3       1 RES1   0.0000
   163 C60      -3.5468   -4.0263    2.8623   C.3       1 RES1   0.0000
   164 C61      -3.2605   -4.8768    4.1083   C.3       1 RES1   0.0000
   165 C62      -2.7388   -4.1055    5.3171   C.3       1 RES1   0.0000
   166 C63      -1.4890   -3.2735    5.0479   C.3       1 RES1   0.0000
   167 C64      -1.3172   -2.2435    6.1562   C.3       1 RES1   0.0000
   168 C65      -4.4472   -2.8021    3.1012   C.3       1 RES1   0.0000
   169 C66      -5.8765   -3.0535    3.5916   C.3       1 RES1   0.0000
   170 C67      -6.0199   -3.0900    5.1115   C.3       1 RES1   0.0000
   171 C68      -7.4692   -2.9708    5.5761   C.3       1 RES1   0.0000
   172 C69      -8.3551   -4.1246    5.1126   C.3       1 RES1   0.0000
   173 C70      -9.7251   -4.0718    5.7791   C.3       1 RES1   0.0000
   174 C71      -1.4681   -2.8665    0.3378   C.2       1 RES1   0.0000
   175 O4       -0.6831   -2.0398    0.8473   O.2       1 RES1   0.0000
   176 C72      -2.6675   -2.2958   -0.4354   C.3       1 RES1   0.0000
   177 O5       -2.3252   -0.9583   -0.7935   O.3       1 RES1   0.0000
   178 C73      -2.7830   -0.5392   -2.0748   C.3       1 RES1   0.0000
   179 C74      -1.6730    0.3004   -2.7168   C.2       1 RES1   0.0000
   180 O6       -0.5856    0.3571   -2.1235   O.2       1 RES1   0.0000
   181 N4       -1.8888    0.8756   -3.8917   N.am      1 RES1   0.0000
   182 C75      -0.7860    1.5810   -4.5570   C.3       1 RES1   0.0000
   183 C76      -0.1921    2.7568   -3.7660   C.3       1 RES1   0.0000
   184 C77       0.6991    3.6748   -4.6269   C.3       1 RES1   0.0000
   185 C78       2.1835    3.3099   -4.6190   C.3       1 RES1   0.0000
   186 C79       3.0387    4.1343   -5.5959   C.3       1 RES1   0.0000
   187 C80       3.8299    5.2944   -4.9849   C.3       1 RES1   0.0000
   188 C81       3.0105    6.5414   -4.6547   C.3       1 RES1   0.0000
   189 C82       3.9061    7.7649   -4.4770   C.3       1 RES1   0.0000
   190 C83      -3.1741    0.7904   -4.5763   C.3       1 RES1   0.0000
   191 C84      -4.1678    1.8688   -4.1400   C.3       1 RES1   0.0000
   192 C85      -5.5157    1.7767   -4.8665   C.3       1 RES1   0.0000
   193 C86      -6.5153    0.6400   -4.5348   C.3       1 RES1   0.0000
   194 C87      -6.5569   -0.4848   -5.5900   C.3       1 RES1   0.0000
   195 C88      -5.3294   -1.3697   -5.8035   C.3       1 RES1   0.0000
   196 C89      -5.6408   -2.5136   -6.7727   C.3       1 RES1   0.0000
   197 C90      -4.3746   -3.1784   -7.3009   C.3       1 RES1   0.0000
   198 C91      -6.4528    0.0968   -3.1007   C.3       1 RES1   0.0000
   199 C92      -7.0872    1.0542   -2.0911   C.3       1 RES1   0.0000
   200 C93      -7.1245    0.5127   -0.6592   C.3       1 RES1   0.0000
   201 C94      -5.8048    0.5531    0.1165   C.3       1 RES1   0.0000
   202 C95      -5.2969    1.9659    0.4028   C.3       1 RES1   0.0000
   203 C96      -4.0118    1.9616    1.2297   C.3       1 RES1   0.0000
   204 H97       0.3481   -8.7807   -5.0453   H         1 RES1   0.0000
   205 H98      -0.1208   -7.1660   -4.5412   H         1 RES1   0.0000
   206 H99       0.1526   -8.4344   -3.3381   H         1 RES1   0.0000
   207 H100      2.3191   -7.3897   -5.2213   H         1 RES1   0.0000
   208 H101      2.5486   -8.4922   -3.8693   H         1 RES1   0.0000
   209 H102      1.7134   -5.5636   -3.6686   H         1 RES1   0.0000
   210 H103      3.3229   -6.2136   -3.3443   H         1 RES1   0.0000
   211 H104      2.3646   -7.6249   -1.5282   H         1 RES1   0.0000
   212 H105      0.7886   -6.8799   -1.7970   H         1 RES1   0.0000
   213 H106      1.7403   -4.6556   -1.1572   H         1 RES1   0.0000
   214 H107      3.3284   -5.3902   -1.0084   H         1 RES1   0.0000
   215 H108      2.5033   -5.2268    1.2264   H         1 RES1   0.0000
   216 H109      2.4175   -6.9117    0.7563   H         1 RES1   0.0000
   217 H110      0.4054   -6.5950    1.8365   H         1 RES1   0.0000
   218 H111     -0.0178   -6.5232    0.1509   H         1 RES1   0.0000
   219 H112      0.6287   -3.8352    1.0822   H         1 RES1   0.0000
   220 H113     -0.4200   -4.5878    2.2823   H         1 RES1   0.0000
   221 H114     -1.6687   -5.9455   -0.5437   H         1 RES1   0.0000
   222 H115     -2.9126   -4.7267   -0.7590   H         1 RES1   0.0000
   223 H116     -2.3875   -6.2243    1.8322   H         1 RES1   0.0000
   224 H117     -3.5855   -6.6698    0.6209   H         1 RES1   0.0000
   225 H118     -4.8904   -5.5630    2.1799   H         1 RES1   0.0000
   226 H119     -4.6116   -4.3107    0.9903   H         1 RES1   0.0000
   227 H120     -2.5883   -3.6308    2.5024   H         1 RES1   0.0000
   228 H121     -2.5206   -5.6397    3.8484   H         1 RES1   0.0000
   229 H122     -4.1681   -5.4061    4.4020   H         1 RES1   0.0000
   230 H123     -2.5210   -4.8271    6.1047   H         1 RES1   0.0000
   231 H124     -3.5139   -3.4453    5.6999   H         1 RES1   0.0000
   232 H125     -1.5845   -2.7614    4.0881   H         1 RES1   0.0000
   233 H126     -0.6115   -3.9239    4.9948   H         1 RES1   0.0000
   234 H127     -2.0607   -1.4522    6.0608   H         1 RES1   0.0000
   235 H128     -0.3199   -1.8111    6.1256   H         1 RES1   0.0000
   236 H129     -1.4562   -2.7093    7.1262   H         1 RES1   0.0000
   237 H130     -4.4980   -2.2690    2.1446   H         1 RES1   0.0000
   238 H131     -3.9454   -2.1343    3.8025   H         1 RES1   0.0000
   239 H132     -6.2541   -3.9801    3.1668   H         1 RES1   0.0000
   240 H133     -6.5028   -2.2438    3.2121   H         1 RES1   0.0000
   241 H134     -5.4553   -2.2596    5.5474   H         1 RES1   0.0000
   242 H135     -5.6111   -4.0211    5.5012   H         1 RES1   0.0000
   243 H136     -7.8899   -2.0261    5.2236   H         1 RES1   0.0000
   244 H137     -7.4727   -2.9454    6.6674   H         1 RES1   0.0000
   245 H138     -7.8731   -5.0744    5.3576   H         1 RES1   0.0000
   246 H139     -8.4819   -4.0813    4.0289   H         1 RES1   0.0000
   247 H140     -9.6294   -4.1853    6.8575   H         1 RES1   0.0000
   248 H141    -10.3596   -4.8717    5.4038   H         1 RES1   0.0000
   249 H142    -10.2128   -3.1195    5.5762   H         1 RES1   0.0000
   250 H143     -3.5669   -2.2858    0.1983   H         1 RES1   0.0000
   251 H144     -2.8876   -2.8782   -1.3335   H         1 RES1   0.0000
   252 H145     -3.7068    0.0350   -1.9511   H         1 RES1   0.0000
   253 H146     -2.9919   -1.4080   -2.7097   H         1 RES1   0.0000
   254 H147     -1.1883    1.9527   -5.4995   H         1 RES1   0.0000
   255 H148     -0.0024    0.8452   -4.7736   H         1 RES1   0.0000
   256 H149      0.3709    2.3629   -2.9205   H         1 RES1   0.0000
   257 H150     -1.0227    3.3383   -3.3616   H         1 RES1   0.0000
   258 H151      0.5919    4.7010   -4.2758   H         1 RES1   0.0000
   259 H152      0.3441    3.6468   -5.6580   H         1 RES1   0.0000
   260 H153      2.2761    2.2530   -4.8794   H         1 RES1   0.0000
   261 H154      2.5871    3.4436   -3.6120   H         1 RES1   0.0000
   262 H155      2.4108    4.5213   -6.3989   H         1 RES1   0.0000
   263 H156      3.7683    3.4686   -6.0534   H         1 RES1   0.0000
   264 H157      4.5924    5.5819   -5.7108   H         1 RES1   0.0000
   265 H158      4.3579    4.9551   -4.0909   H         1 RES1   0.0000
   266 H159      2.4242    6.3822   -3.7445   H         1 RES1   0.0000
   267 H160      2.3173    6.7423   -5.4725   H         1 RES1   0.0000
   268 H161      4.6488    7.5998   -3.6986   H         1 RES1   0.0000
   269 H162      3.3150    8.6387   -4.2109   H         1 RES1   0.0000
   270 H163      4.4322    7.9872   -5.4029   H         1 RES1   0.0000
   271 H164     -3.5974   -0.1932   -4.3846   H         1 RES1   0.0000
   272 H165     -2.9809    0.8740   -5.6490   H         1 RES1   0.0000
   273 H166     -3.7378    2.8474   -4.3662   H         1 RES1   0.0000
   274 H167     -4.3007    1.8217   -3.0584   H         1 RES1   0.0000
   275 H168     -5.3187    1.7505   -5.9392   H         1 RES1   0.0000
   276 H169     -6.0132    2.7243   -4.6641   H         1 RES1   0.0000
   277 H170     -7.5033    1.1040   -4.6322   H         1 RES1   0.0000
   278 H171     -6.7995   -0.0225   -6.5495   H         1 RES1   0.0000
   279 H172     -7.3972   -1.1308   -5.3270   H         1 RES1   0.0000
   280 H173     -4.9863   -1.7891   -4.8524   H         1 RES1   0.0000
   281 H174     -4.5240   -0.7781   -6.2395   H         1 RES1   0.0000
   282 H175     -6.2051   -2.1158   -7.6166   H         1 RES1   0.0000
   283 H176     -6.2706   -3.2564   -6.2806   H         1 RES1   0.0000
   284 H177     -3.7555   -2.4535   -7.8269   H         1 RES1   0.0000
   285 H178     -4.6311   -3.9733   -7.9951   H         1 RES1   0.0000
   286 H179     -3.7873   -3.6128   -6.4948   H         1 RES1   0.0000
   287 H180     -5.4255   -0.1312   -2.8255   H         1 RES1   0.0000
   288 H181     -7.0108   -0.8409   -3.0690   H         1 RES1   0.0000
   289 H182     -8.1187    1.2212   -2.4046   H         1 RES1   0.0000
   290 H183     -6.5841    2.0200   -2.1162   H         1 RES1   0.0000
   291 H184     -7.4724   -0.5219   -0.6938   H         1 RES1   0.0000
   292 H185     -7.8622    1.0812   -0.0917   H         1 RES1   0.0000
   293 H186     -5.0360   -0.0041   -0.4238   H         1 RES1   0.0000
   294 H187     -5.9638    0.0395    1.0696   H         1 RES1   0.0000
   295 H188     -6.0649    2.5126    0.9544   H         1 RES1   0.0000
   296 H189     -5.1229    2.5032   -0.5318   H         1 RES1   0.0000
   297 H190     -4.1916    1.4798    2.1916   H         1 RES1   0.0000
   298 H191     -3.6893    2.9851    1.4153   H         1 RES1   0.0000
   299 H192     -3.1905    1.4275    0.7166   H         1 RES1   0.0000
   300 C97      -0.6529    7.2631   -5.9222   C.3       1 RES1   0.0000
   301 C98      -2.1147    6.8347   -5.9555   C.3       1 RES1   0.0000
   302 C99      -2.4811    5.7968   -4.8933   C.3       1 RES1   0.0000
   303 C100     -2.3021    6.3341   -3.4754   C.3       1 RES1   0.0000
   304 C101     -2.9013    5.4286   -2.3996   C.3       1 RES1   0.0000
   305 C102     -2.5012    5.9012   -1.0056   C.3       1 RES1   0.0000
   306 C103     -0.9907    5.7296   -0.7988   C.3       1 RES1   0.0000
   307 C104     -0.6653    4.7833    0.3506   C.3       1 RES1   0.0000
   308 N5        0.6699    4.2261    0.1642   N.am      1 RES1   0.0000
   309 C105      1.7709    5.0494    0.6404   C.3       1 RES1   0.0000
   310 C106      1.9614    4.8284    2.1545   C.3       1 RES1   0.0000
   311 C107      3.1558    3.9587    2.5701   C.3       1 RES1   0.0000
   312 C108      2.7789    3.0787    3.7698   C.3       1 RES1   0.0000
   313 C109      2.3750    3.9191    4.9766   C.3       1 RES1   0.0000
   314 C110      1.9344    3.1068    6.1945   C.3       1 RES1   0.0000
   315 C111      0.9389    1.9866    5.8956   C.3       1 RES1   0.0000
   316 C112      1.0244    0.9023    6.9585   C.3       1 RES1   0.0000
   317 C113      3.8459    2.0268    4.0901   C.3       1 RES1   0.0000
   318 C114      5.2459    2.5109    4.4735   C.3       1 RES1   0.0000
   319 C115      5.4588    2.7911    5.9597   C.3       1 RES1   0.0000
   320 C116      6.9298    2.6769    6.3628   C.3       1 RES1   0.0000
   321 C117      7.8798    3.5434    5.5392   C.3       1 RES1   0.0000
   322 C118      9.3172    3.4107    6.0291   C.3       1 RES1   0.0000
   323 C119      0.7611    2.9963   -0.3055   C.2       1 RES1   0.0000
   324 O7       -0.2548    2.2863   -0.4725   O.2       1 RES1   0.0000
   325 C120      2.1210    2.4292   -0.7507   C.3       1 RES1   0.0000
   326 O8        1.9269    1.0314   -0.8786   O.3       1 RES1   0.0000
   327 C121      2.5800    0.3752   -1.9550   C.3       1 RES1   0.0000
   328 C122      1.7627   -0.9125   -2.1855   C.2       1 RES1   0.0000
   329 O9        1.0715   -1.3251   -1.2421   O.2       1 RES1   0.0000
   330 N6        1.8556   -1.4631   -3.3964   N.am      1 RES1   0.0000
   331 C123      0.8670   -2.3796   -3.9747   C.3       1 RES1   0.0000
   332 C124     -0.0293   -3.1314   -2.9944   C.3       1 RES1   0.0000
   333 C125     -0.7702   -4.3059   -3.6567   C.3       1 RES1   0.0000
   334 C126     -2.2525   -4.0782   -3.9399   C.3       1 RES1   0.0000
   335 C127     -2.9373   -5.3725   -4.3839   C.3       1 RES1   0.0000
   336 C128     -3.1295   -6.3544   -3.2325   C.3       1 RES1   0.0000
   337 C129     -3.8257   -7.6391   -3.6630   C.3       1 RES1   0.0000
   338 C130     -3.9374   -8.6124   -2.4968   C.3       1 RES1   0.0000
   339 C131      3.0665   -1.3192   -4.2128   C.3       1 RES1   0.0000
   340 C132      4.0282   -2.4709   -3.8800   C.3       1 RES1   0.0000
   341 C133      5.3253   -2.5796   -4.7003   C.3       1 RES1   0.0000
   342 C134      6.5531   -1.6832   -4.4061   C.3       1 RES1   0.0000
   343 C135      6.7116   -0.4602   -5.3441   C.3       1 RES1   0.0000
   344 C136      5.4526    0.2937   -5.7664   C.3       1 RES1   0.0000
   345 C137      5.7208    1.3255   -6.8727   C.3       1 RES1   0.0000
   346 C138      4.5315    1.4508   -7.8239   C.3       1 RES1   0.0000
   347 C139      6.7627   -1.3546   -2.9196   C.3       1 RES1   0.0000
   348 C140      7.3890   -2.5404   -2.1796   C.3       1 RES1   0.0000
   349 C141      7.7431   -2.2487   -0.7168   C.3       1 RES1   0.0000
   350 C142      6.6763   -2.6858    0.2902   C.3       1 RES1   0.0000
   351 C143      6.7065   -4.1815    0.6100   C.3       1 RES1   0.0000
   352 C144      5.7169   -4.5410    1.7156   C.3       1 RES1   0.0000
   353 H193     -0.4330    7.9088   -6.7659   H         1 RES1   0.0000
   354 H194      0.0037    6.3998   -5.9835   H         1 RES1   0.0000
   355 H195     -0.4199    7.8159   -5.0176   H         1 RES1   0.0000
   356 H196     -2.3399    6.4162   -6.9371   H         1 RES1   0.0000
   357 H197     -2.7499    7.7079   -5.8154   H         1 RES1   0.0000
   358 H198     -1.8543    4.9126   -5.0337   H         1 RES1   0.0000
   359 H199     -3.5242    5.4951   -5.0288   H         1 RES1   0.0000
   360 H200     -2.7738    7.3154   -3.4048   H         1 RES1   0.0000
   361 H201     -1.2371    6.4703   -3.2851   H         1 RES1   0.0000
   362 H202     -2.5579    4.3981   -2.5248   H         1 RES1   0.0000
   363 H203     -3.9866    5.4276   -2.4878   H         1 RES1   0.0000
   364 H204     -3.0495    5.3384   -0.2467   H         1 RES1   0.0000
   365 H205     -2.7763    6.9471   -0.9055   H         1 RES1   0.0000
   366 H206     -0.5009    6.6847   -0.6203   H         1 RES1   0.0000
   367 H207     -0.5581    5.2974   -1.7013   H         1 RES1   0.0000
   368 H208     -1.3770    3.9540    0.3584   H         1 RES1   0.0000
   369 H209     -0.7020    5.3251    1.2949   H         1 RES1   0.0000
   370 H210      1.4956    6.0886    0.4353   H         1 RES1   0.0000
   371 H211      2.6749    4.8212    0.0799   H         1 RES1   0.0000
   372 H212      1.0544    4.3407    2.5205   H         1 RES1   0.0000
   373 H213      2.0549    5.7956    2.6431   H         1 RES1   0.0000
   374 H214      4.0129    4.5958    2.7919   H         1 RES1   0.0000
   375 H215      3.4434    3.2933    1.7533   H         1 RES1   0.0000
   376 H216      1.8957    2.5228    3.4193   H         1 RES1   0.0000
   377 H217      1.5741    4.5954    4.6815   H         1 RES1   0.0000
   378 H218      3.2244    4.5288    5.2743   H         1 RES1   0.0000
   379 H219      1.5035    3.7884    6.9285   H         1 RES1   0.0000
   380 H220      2.8197    2.6671    6.6490   H         1 RES1   0.0000
   381 H221      1.1666    1.5699    4.9177   H         1 RES1   0.0000
   382 H222     -0.0751    2.3795    5.8533   H         1 RES1   0.0000
   383 H223      2.0432    0.5200    7.0309   H         1 RES1   0.0000
   384 H224      0.3494    0.0675    6.7728   H         1 RES1   0.0000
   385 H225      0.7626    1.3318    7.9164   H         1 RES1   0.0000
   386 H226      3.9181    1.4238    3.1904   H         1 RES1   0.0000
   387 H227      3.4773    1.3782    4.8843   H         1 RES1   0.0000
   388 H228      5.5078    3.4005    3.9032   H         1 RES1   0.0000
   389 H229      5.9478    1.7271    4.1860   H         1 RES1   0.0000
   390 H230      4.8979    2.0718    6.5618   H         1 RES1   0.0000
   391 H231      5.0870    3.7834    6.2071   H         1 RES1   0.0000
   392 H232      7.2373    1.6326    6.2672   H         1 RES1   0.0000
   393 H233      7.0233    2.9489    7.4158   H         1 RES1   0.0000
   394 H234      7.5738    4.5890    5.6015   H         1 RES1   0.0000
   395 H235      7.8357    3.2431    4.4898   H         1 RES1   0.0000
   396 H236      9.4138    3.7540    7.0563   H         1 RES1   0.0000
   397 H237      9.9835    4.0058    5.4098   H         1 RES1   0.0000
   398 H238      9.6421    2.3730    5.9860   H         1 RES1   0.0000
   399 H239      2.9118    2.6296   -0.0172   H         1 RES1   0.0000
   400 H240      2.3966    2.8805   -1.7161   H         1 RES1   0.0000
   401 H241      3.6196    0.1303   -1.6927   H         1 RES1   0.0000
   402 H242      2.5568    1.0098   -2.8484   H         1 RES1   0.0000
   403 H243      1.4287   -3.1046   -4.5673   H         1 RES1   0.0000
   404 H244      0.2507   -1.7871   -4.6653   H         1 RES1   0.0000
   405 H245     -0.7334   -2.4361   -2.5371   H         1 RES1   0.0000
   406 H246      0.6071   -3.5136   -2.1968   H         1 RES1   0.0000
   407 H247     -0.6762   -5.1676   -2.9994   H         1 RES1   0.0000
   408 H248     -0.2892   -4.5697   -4.5996   H         1 RES1   0.0000
   409 H249     -2.3662   -3.3059   -4.7035   H         1 RES1   0.0000
   410 H250     -2.7596   -3.7258   -3.0379   H         1 RES1   0.0000
   411 H251     -2.3400   -5.8410   -5.1660   H         1 RES1   0.0000
   412 H252     -3.9148   -5.1438   -4.8085   H         1 RES1   0.0000
   413 H253     -3.7302   -5.8835   -2.4502   H         1 RES1   0.0000
   414 H254     -2.1621   -6.6180   -2.8026   H         1 RES1   0.0000
   415 H255     -3.2635   -8.1014   -4.4743   H         1 RES1   0.0000
   416 H256     -4.8198   -7.4023   -4.0417   H         1 RES1   0.0000
   417 H257     -2.9479   -8.8973   -2.1446   H         1 RES1   0.0000
   418 H258     -4.4649   -9.5111   -2.7993   H         1 RES1   0.0000
   419 H259     -4.4829   -8.1659   -1.6667   H         1 RES1   0.0000
   420 H260      3.5431   -0.3648   -4.0093   H         1 RES1   0.0000
   421 H261      2.7632   -1.3437   -5.2628   H         1 RES1   0.0000
   422 H262      3.4793   -3.4029   -4.0449   H         1 RES1   0.0000
   423 H263      4.2505   -2.4262   -2.8116   H         1 RES1   0.0000
   424 H264      5.0830   -2.4963   -5.7605   H         1 RES1   0.0000
   425 H265      5.6469   -3.6080   -4.5367   H         1 RES1   0.0000
   426 H266      7.4041   -2.3173   -4.6749   H         1 RES1   0.0000
   427 H267      7.1942   -0.8118   -6.2593   H         1 RES1   0.0000
   428 H268      7.4090    0.2359   -4.8749   H         1 RES1   0.0000
   429 H269      5.0049    0.7891   -4.9006   H         1 RES1   0.0000
   430 H270      4.7364   -0.4261   -6.1616   H         1 RES1   0.0000
   431 H271      6.5900    1.0142   -7.4530   H         1 RES1   0.0000
   432 H272      5.9560    2.2997   -6.4391   H         1 RES1   0.0000
   433 H273      4.4320    0.5444   -8.4185   H         1 RES1   0.0000
   434 H274      4.6789    2.2863   -8.5032   H         1 RES1   0.0000
   435 H275      3.5994    1.6114   -7.2813   H         1 RES1   0.0000
   436 H276      5.8297   -1.0377   -2.4509   H         1 RES1   0.0000
   437 H277      7.4597   -0.5181   -2.8493   H         1 RES1   0.0000
   438 H278      8.3060   -2.7989   -2.7083   H         1 RES1   0.0000
   439 H279      6.7276   -3.4045   -2.2335   H         1 RES1   0.0000
   440 H280      7.9255   -1.1780   -0.6024   H         1 RES1   0.0000
   441 H281      8.6749   -2.7506   -0.4564   H         1 RES1   0.0000
   442 H282      5.6852   -2.4271   -0.0954   H         1 RES1   0.0000
   443 H283      6.8336   -2.1328    1.2207   H         1 RES1   0.0000
   444 H284      7.7102   -4.4591    0.9335   H         1 RES1   0.0000
   445 H285      6.4782   -4.7631   -0.2861   H         1 RES1   0.0000
   446 H286      5.9729   -4.0252    2.6413   H         1 RES1   0.0000
   447 H287      5.7357   -5.6112    1.9064   H         1 RES1   0.0000
   448 H288      4.7014   -4.2649    1.4268   H         1 RES1   0.0000
@<TRIPOS>BOND
     1     1    26    1
     2     1    28    1
     3     1    31    1
     4     1   175    1
     5     1   177    1
     6     1   180    1
     7     1   324    1
     8     1   326    1
     9     1   329    1
    10     2     3    1
    11     2    55    1
    12     2    56    1
    13     2    57    1
    14     3     4    1
    15     3    58    1
    16     3    59    1
    17     4     5    1
    18     4    60    1
    19     4    61    1
    20     5     6    1
    21     5    62    1
    22     5    63    1
    23     6     7    1
    24     6    64    1
    25     6    65    1
    26     7     8    1
    27     7    66    1
    28     7    67    1
    29     8     9    1
    30     8    68    1
    31     8    69    1
    32     9    10    1
    33     9    70    1
    34     9    71    1
    35    10    11    1
    36    10    25    1
    37    11    12    1
    38    11    72    1
    39    11    73    1
    40    12    13    1
    41    12    74    1
    42    12    75    1
    43    13    14    1
    44    13    76    1
    45    13    77    1
    46    14    15    1
    47    14    19    1
    48    14    78    1
    49    15    16    1
    50    15    79    1
    51    15    80    1
    52    16    17    1
    53    16    81    1
    54    16    82    1
    55    17    18    1
    56    17    83    1
    57    17    84    1
    58    18    85    1
    59    18    86    1
    60    18    87    1
    61    19    20    1
    62    19    88    1
    63    19    89    1
    64    20    21    1
    65    20    90    1
    66    20    91    1
    67    21    22    1
    68    21    92    1
    69    21    93    1
    70    22    23    1
    71    22    94    1
    72    22    95    1
    73    23    24    1
    74    23    96    1
    75    23    97    1
    76    24    98    1
    77    24    99    1
    78    24   100    1
    79    25    26    2
    80    25    27    1
    81    27    28    1
    82    27   101    1
    83    27   102    1
    84    28    29    1
    85    29    30    1
    86    29   103    1
    87    29   104    1
    88    30    31    2
    89    30    32    1
    90    32    33    1
    91    32    41    1
    92    33    34    1
    93    33   105    1
    94    33   106    1
    95    34    35    1
    96    34   107    1
    97    34   108    1
    98    35    36    1
    99    35   109    1
   100    35   110    1
   101    36    37    1
   102    36   111    1
   103    36   112    1
   104    37    38    1
   105    37   113    1
   106    37   114    1
   107    38    39    1
   108    38   115    1
   109    38   116    1
   110    39    40    1
   111    39   117    1
   112    39   118    1
   113    40   119    1
   114    40   120    1
   115    40   121    1
   116    41    42    1
   117    41   122    1
   118    41   123    1
   119    42    43    1
   120    42   124    1
   121    42   125    1
   122    43    44    1
   123    43   126    1
   124    43   127    1
   125    44    45    1
   126    44    49    1
   127    44   128    1
   128    45    46    1
   129    45   129    1
   130    45   130    1
   131    46    47    1
   132    46   131    1
   133    46   132    1
   134    47    48    1
   135    47   133    1
   136    47   134    1
   137    48   135    1
   138    48   136    1
   139    48   137    1
   140    49    50    1
   141    49   138    1
   142    49   139    1
   143    50    51    1
   144    50   140    1
   145    50   141    1
   146    51    52    1
   147    51   142    1
   148    51   143    1
   149    52    53    1
   150    52   144    1
   151    52   145    1
   152    53    54    1
   153    53   146    1
   154    53   147    1
   155    54   148    1
   156    54   149    1
   157    54   150    1
   158   151   152    1
   159   151   204    1
   160   151   205    1
   161   151   206    1
   162   152   153    1
   163   152   207    1
   164   152   208    1
   165   153   154    1
   166   153   209    1
   167   153   210    1
   168   154   155    1
   169   154   211    1
   170   154   212    1
   171   155   156    1
   172   155   213    1
   173   155   214    1
   174   156   157    1
   175   156   215    1
   176   156   216    1
   177   157   158    1
   178   157   217    1
   179   157   218    1
   180   158   159    1
   181   158   219    1
   182   158   220    1
   183   159   160    1
   184   159   174    1
   185   160   161    1
   186   160   221    1
   187   160   222    1
   188   161   162    1
   189   161   223    1
   190   161   224    1
   191   162   163    1
   192   162   225    1
   193   162   226    1
   194   163   164    1
   195   163   168    1
   196   163   227    1
   197   164   165    1
   198   164   228    1
   199   164   229    1
   200   165   166    1
   201   165   230    1
   202   165   231    1
   203   166   167    1
   204   166   232    1
   205   166   233    1
   206   167   234    1
   207   167   235    1
   208   167   236    1
   209   168   169    1
   210   168   237    1
   211   168   238    1
   212   169   170    1
   213   169   239    1
   214   169   240    1
   215   170   171    1
   216   170   241    1
   217   170   242    1
   218   171   172    1
   219   171   243    1
   220   171   244    1
   221   172   173    1
   222   172   245    1
   223   172   246    1
   224   173   247    1
   225   173   248    1
   226   173   249    1
   227   174   175    2
   228   174   176    1
   229   176   177    1
   230   176   250    1
   231   176   251    1
   232   177   178    1
   233   178   179    1
   234   178   252    1
   235   178   253    1
   236   179   180    2
   237   179   181    1
   238   181   182    1
   239   181   190    1
   240   182   183    1
   241   182   254    1
   242   182   255    1
   243   183   184    1
   244   183   256    1
   245   183   257    1
   246   184   185    1
   247   184   258    1
   248   184   259    1
   249   185   186    1
   250   185   260    1
   251   185   261    1
   252   186   187    1
   253   186   262    1
   254   186   263    1
   255   187   188    1
   256   187   264    1
   257   187   265    1
   258   188   189    1
   259   188   266    1
   260   188   267    1
   261   189   268    1
   262   189   269    1
   263   189   270    1
   264   190   191    1
   265   190   271    1
   266   190   272    1
   267   191   192    1
   268   191   273    1
   269   191   274    1
   270   192   193    1
   271   192   275    1
   272   192   276    1
   273   193   194    1
   274   193   198    1
   275   193   277    1
   276   194   195    1
   277   194   278    1
   278   194   279    1
   279   195   196    1
   280   195   280    1
   281   195   281    1
   282   196   197    1
   283   196   282    1
   284   196   283    1
   285   197   284    1
   286   197   285    1
   287   197   286    1
   288   198   199    1
   289   198   287    1
   290   198   288    1
   291   199   200    1
   292   199   289    1
   293   199   290    1
   294   200   201    1
   295   200   291    1
   296   200   292    1
   297   201   202    1
   298   201   293    1
   299   201   294    1
   300   202   203    1
   301   202   295    1
   302   202   296    1
   303   203   297    1
   304   203   298    1
   305   203   299    1
   306   300   301    1
   307   300   353    1
   308   300   354    1
   309   300   355    1
   310   301   302    1
   311   301   356    1
   312   301   357    1
   313   302   303    1
   314   302   358    1
   315   302   359    1
   316   303   304    1
   317   303   360    1
   318   303   361    1
   319   304   305    1
   320   304   362    1
   321   304   363    1
   322   305   306    1
   323   305   364    1
   324   305   365    1
   325   306   307    1
   326   306   366    1
   327   306   367    1
   328   307   308    1
   329   307   368    1
   330   307   369    1
   331   308   309    1
   332   308   323    1
   333   309   310    1
   334   309   370    1
   335   309   371    1
   336   310   311    1
   337   310   372    1
   338   310   373    1
   339   311   312    1
   340   311   374    1
   341   311   375    1
   342   312   313    1
   343   312   317    1
   344   312   376    1
   345   313   314    1
   346   313   377    1
   347   313   378    1
   348   314   315    1
   349   314   379    1
   350   314   380    1
   351   315   316    1
   352   315   381    1
   353   315   382    1
   354   316   383    1
   355   316   384    1
   356   316   385    1
   357   317   318    1
   358   317   386    1
   359   317   387    1
   360   318   319    1
   361   318   388    1
   362   318   389    1
   363   319   320    1
   364   319   390    1
   365   319   391    1
   366   320   321    1
   367   320   392    1
   368   320   393    1
   369   321   322    1
   370   321   394    1
   371   321   395    1
   372   322   396    1
   373   322   397    1
   374   322   398    1
   375   323   324    2
   376   323   325    1
   377   325   326    1
   378   325   399    1
   379   325   400    1
   380   326   327    1
   381   327   328    1
   382   327   401    1
   383   327   402    1
   384   328   329    2
   385   328   330    1
   386   330   331    1
   387   330   339    1
   388   331   332    1
   389   331   403    1
   390   331   404    1
   391   332   333    1
   392   332   405    1
   393   332   406    1
   394   333   334    1
   395   333   407    1
   396   333   408    1
   397   334   335    1
   398   334   409    1
   399   334   410    1
   400   335   336    1
   401   335   411    1
   402   335   412    1
   403   336   337    1
   404   336   413    1
   405   336   414    1
   406   337   338    1
   407   337   415    1
   408   337   416    1
   409   338   417    1
   410   338   418    1
   411   338   419    1
   412   339   340    1
   413   339   420    1
   414   339   421    1
   415   340   341    1
   416   340   422    1
   417   340   423    1
   418   341   342    1
   419   341   424    1
   420   341   425    1
   421   342   343    1
   422   342   347    1
   423   342   426    1
   424   343   344    1
   425   343   427    1
   426   343   428    1
   427   344   345    1
   428   344   429    1
   429   344   430    1
   430   345   346    1
   431   345   431    1
   432   345   432    1
   433   346   433    1
   434   346   434    1
   435   346   435    1
   436   347   348    1
   437   347   436    1
   438   347   437    1
   439   348   349    1
   440   348   438    1
   441   348   439    1
   442   349   350    1
   443   349   440    1
   444   349   441    1
   445   350   351    1
   446   350   442    1
   447   350   443    1
   448   351   352    1
   449   351   444    1
   450   351   445    1
   451   352   446    1
   452   352   447    1
   453   352   448    1
@<TRIPOS>SUBSTRUCTURE
     1 RES1      448 GROUP             0 ****  ****    0  
