@<TRIPOS>MOLECULE
am_c3_9H2O_c0_0_nunpairedes_0_charge_3 Charge: 3 Unpaired_Electrons: 1 XTB_Unpaired_Electrons: 0 XTB_Charge: 3
   250   255     1     0     0
SMALL
NoCharges
****
Generated from Architector

@<TRIPOS>ATOM
     1 Ce1      -0.1557    0.1166   -0.2262   Ce        1 RES1   0.0000
     2 C1        5.5778    3.6123    0.7222   C.3       1 RES1   0.0000
     3 C2        5.1604    4.5588   -0.3943   C.3       1 RES1   0.0000
     4 C3        3.8129    5.2101   -0.0981   C.3       1 RES1   0.0000
     5 C4        3.4081    6.1950   -1.1939   C.3       1 RES1   0.0000
     6 C5        2.0999    6.9434   -0.9257   C.3       1 RES1   0.0000
     7 C6        0.8573    6.0508   -0.8076   C.3       1 RES1   0.0000
     8 C7       -0.1051    6.1201   -1.9921   C.3       1 RES1   0.0000
     9 C8       -1.2737    5.1295   -1.8436   C.3       1 RES1   0.0000
    10 N1       -0.9114    3.7492   -2.1449   N.am      1 RES1   0.0000
    11 C9       -0.5418    3.4566   -3.5395   C.3       1 RES1   0.0000
    12 C10       0.8387    2.8369   -3.7740   C.3       1 RES1   0.0000
    13 C11       1.9661    3.6119   -3.1145   C.3       1 RES1   0.0000
    14 C12      -1.2011    2.6988   -1.3879   C.2       1 RES1   0.0000
    15 O1       -0.9138    1.5464   -1.7585   O.2       1 RES1   0.0000
    16 C13      -2.0270    2.7848   -0.0950   C.3       1 RES1   0.0000
    17 O2       -1.8492    1.5448    0.6024   O.3       1 RES1   0.0000
    18 C14      -2.9704    0.9862    1.2919   C.3       1 RES1   0.0000
    19 C15      -3.1722   -0.4702    0.8209   C.2       1 RES1   0.0000
    20 O3       -2.3032   -0.9501    0.0770   O.2       1 RES1   0.0000
    21 N2       -4.2330   -1.1635    1.2072   N.am      1 RES1   0.0000
    22 C16      -4.4515   -2.4775    0.6047   C.3       1 RES1   0.0000
    23 C17      -3.6309   -3.6028    1.2301   C.3       1 RES1   0.0000
    24 C18      -4.0726   -4.0285    2.6250   C.3       1 RES1   0.0000
    25 C19      -5.2236   -0.6883    2.1557   C.3       1 RES1   0.0000
    26 C20      -6.5967   -0.4188    1.5341   C.3       1 RES1   0.0000
    27 C21      -6.6452    0.6898    0.4804   C.3       1 RES1   0.0000
    28 C22      -6.0707    0.3003   -0.8837   C.3       1 RES1   0.0000
    29 C23      -6.3956    1.2936   -2.0049   C.3       1 RES1   0.0000
    30 C24      -5.4533    2.4948   -2.1142   C.3       1 RES1   0.0000
    31 C25      -5.5493    3.5444   -1.0045   C.3       1 RES1   0.0000
    32 C26      -6.9436    4.1315   -0.8330   C.3       1 RES1   0.0000
    33 H1        6.5214    3.1244    0.4926   H         1 RES1   0.0000
    34 H2        5.6974    4.1522    1.6584   H         1 RES1   0.0000
    35 H3        4.8152    2.8440    0.8669   H         1 RES1   0.0000
    36 H4        5.9230    5.3261   -0.5116   H         1 RES1   0.0000
    37 H5        5.1015    4.0139   -1.3380   H         1 RES1   0.0000
    38 H6        3.0675    4.4171    0.0108   H         1 RES1   0.0000
    39 H7        3.8760    5.7330    0.8572   H         1 RES1   0.0000
    40 H8        4.2004    6.9372   -1.2806   H         1 RES1   0.0000
    41 H9        3.3595    5.6703   -2.1458   H         1 RES1   0.0000
    42 H10       2.2217    7.5031    0.0027   H         1 RES1   0.0000
    43 H11       1.9315    7.6764   -1.7155   H         1 RES1   0.0000
    44 H12       1.1671    5.0163   -0.6760   H         1 RES1   0.0000
    45 H13       0.3005    6.3617    0.0714   H         1 RES1   0.0000
    46 H14      -0.5255    7.1246   -2.0445   H         1 RES1   0.0000
    47 H15       0.4169    5.9321   -2.9271   H         1 RES1   0.0000
    48 H16      -1.6570    5.1826   -0.8245   H         1 RES1   0.0000
    49 H17      -2.1014    5.4001   -2.5099   H         1 RES1   0.0000
    50 H18      -1.2926    2.7617   -3.9305   H         1 RES1   0.0000
    51 H19      -0.6224    4.3927   -4.0867   H         1 RES1   0.0000
    52 H20       0.8401    1.8050   -3.4113   H         1 RES1   0.0000
    53 H21       0.9927    2.8331   -4.8563   H         1 RES1   0.0000
    54 H22       1.8468    3.6054   -2.0350   H         1 RES1   0.0000
    55 H23       2.9282    3.1711   -3.3500   H         1 RES1   0.0000
    56 H24       1.9856    4.6386   -3.4667   H         1 RES1   0.0000
    57 H25      -1.7263    3.5936    0.5714   H         1 RES1   0.0000
    58 H26      -3.0629    2.9410   -0.4225   H         1 RES1   0.0000
    59 H27      -2.7167    0.9909    2.3623   H         1 RES1   0.0000
    60 H28      -3.8740    1.5728    1.1155   H         1 RES1   0.0000
    61 H29      -5.5077   -2.7214    0.6872   H         1 RES1   0.0000
    62 H30      -4.1920   -2.4041   -0.4551   H         1 RES1   0.0000
    63 H31      -3.7367   -4.4684    0.5778   H         1 RES1   0.0000
    64 H32      -2.5782   -3.3117    1.2360   H         1 RES1   0.0000
    65 H33      -5.1048   -4.3700    2.6196   H         1 RES1   0.0000
    66 H34      -3.4560   -4.8604    2.9583   H         1 RES1   0.0000
    67 H35      -3.9814   -3.2303    3.3579   H         1 RES1   0.0000
    68 H36      -5.3327   -1.4633    2.9200   H         1 RES1   0.0000
    69 H37      -4.8537    0.2129    2.6434   H         1 RES1   0.0000
    70 H38      -6.9877   -1.3385    1.0996   H         1 RES1   0.0000
    71 H39      -7.2571   -0.1464    2.3599   H         1 RES1   0.0000
    72 H40      -6.1676    1.5823    0.8811   H         1 RES1   0.0000
    73 H41      -7.6978    0.9321    0.3320   H         1 RES1   0.0000
    74 H42      -4.9877    0.1635   -0.8430   H         1 RES1   0.0000
    75 H43      -6.5118   -0.6616   -1.1529   H         1 RES1   0.0000
    76 H44      -6.3326    0.7558   -2.9537   H         1 RES1   0.0000
    77 H45      -7.4246    1.6336   -1.9039   H         1 RES1   0.0000
    78 H46      -4.4234    2.1217   -2.1753   H         1 RES1   0.0000
    79 H47      -5.6668    2.9973   -3.0589   H         1 RES1   0.0000
    80 H48      -5.2271    3.1216   -0.0499   H         1 RES1   0.0000
    81 H49      -4.8634    4.3620   -1.2457   H         1 RES1   0.0000
    82 H50      -7.6488    3.3810   -0.4897   H         1 RES1   0.0000
    83 H51      -6.9283    4.9384   -0.1030   H         1 RES1   0.0000
    84 H52      -7.3049    4.5346   -1.7740   H         1 RES1   0.0000
    85 C27       9.0022    0.3209   -3.1205   C.3       1 RES1   0.0000
    86 C28       9.0683    1.8359   -3.2537   C.3       1 RES1   0.0000
    87 C29       7.7218    2.5115   -3.5147   C.3       1 RES1   0.0000
    88 C30       6.9973    2.0207   -4.7730   C.3       1 RES1   0.0000
    89 C31       6.0138    0.8687   -4.5313   C.3       1 RES1   0.0000
    90 C32       4.7834    1.3248   -3.7495   C.3       1 RES1   0.0000
    91 C33       3.6633    0.2880   -3.6534   C.3       1 RES1   0.0000
    92 C34       3.9436   -0.9270   -2.7654   C.3       1 RES1   0.0000
    93 N3        4.1233   -0.6432   -1.3355   N.am      1 RES1   0.0000
    94 C35       5.3568   -1.0884   -0.6985   C.3       1 RES1   0.0000
    95 C36       6.2705    0.0239   -0.1909   C.3       1 RES1   0.0000
    96 C37       7.5248   -0.5791    0.4254   C.3       1 RES1   0.0000
    97 C38       3.0886   -0.1722   -0.6479   C.2       1 RES1   0.0000
    98 O4        1.9777    0.0476   -1.1699   O.2       1 RES1   0.0000
    99 C39       3.2415    0.0873    0.8591   C.3       1 RES1   0.0000
   100 O5        1.9460    0.1917    1.4544   O.3       1 RES1   0.0000
   101 C40       1.7717    1.1889    2.4682   C.3       1 RES1   0.0000
   102 C41       1.0374    2.4088    1.9015   C.2       1 RES1   0.0000
   103 O6        0.6888    2.3387    0.7040   O.2       1 RES1   0.0000
   104 N4        0.7877    3.4598    2.6815   N.am      1 RES1   0.0000
   105 C42       0.2842    4.6804    2.0507   C.3       1 RES1   0.0000
   106 C43      -1.0046    5.2228    2.6563   C.3       1 RES1   0.0000
   107 C44      -1.4869    6.4929    1.9701   C.3       1 RES1   0.0000
   108 C45       1.2018    3.6036    4.0775   C.3       1 RES1   0.0000
   109 C46       0.3885    2.8881    5.1727   C.3       1 RES1   0.0000
   110 C47      -0.9689    3.4789    5.5878   C.3       1 RES1   0.0000
   111 C48      -2.1837    2.8502    4.9066   C.3       1 RES1   0.0000
   112 C49      -3.4685    3.5071    5.4160   C.3       1 RES1   0.0000
   113 C50      -4.7653    2.7827    5.0538   C.3       1 RES1   0.0000
   114 C51      -5.1721    2.8797    3.5858   C.3       1 RES1   0.0000
   115 C52      -5.6162    4.2701    3.1538   C.3       1 RES1   0.0000
   116 H53       9.9659   -0.0708   -2.8067   H         1 RES1   0.0000
   117 H54       8.7496   -0.1456   -4.0683   H         1 RES1   0.0000
   118 H55       8.2662    0.0274   -2.3757   H         1 RES1   0.0000
   119 H56       9.7551    2.0867   -4.0616   H         1 RES1   0.0000
   120 H57       9.4848    2.2505   -2.3337   H         1 RES1   0.0000
   121 H58       7.9123    3.5818   -3.6074   H         1 RES1   0.0000
   122 H59       7.0743    2.3795   -2.6461   H         1 RES1   0.0000
   123 H60       7.7429    1.7139   -5.5067   H         1 RES1   0.0000
   124 H61       6.4376    2.8472   -5.2166   H         1 RES1   0.0000
   125 H62       6.5123    0.0524   -4.0144   H         1 RES1   0.0000
   126 H63       5.6749    0.4913   -5.4985   H         1 RES1   0.0000
   127 H64       4.3810    2.1899   -4.2803   H         1 RES1   0.0000
   128 H65       5.0574    1.6537   -2.7460   H         1 RES1   0.0000
   129 H66       3.4621   -0.0927   -4.6579   H         1 RES1   0.0000
   130 H67       2.7565    0.7688   -3.2873   H         1 RES1   0.0000
   131 H68       4.8390   -1.4282   -3.1252   H         1 RES1   0.0000
   132 H69       3.0942   -1.6151   -2.8552   H         1 RES1   0.0000
   133 H70       5.9177   -1.6621   -1.4365   H         1 RES1   0.0000
   134 H71       5.0968   -1.7727    0.1174   H         1 RES1   0.0000
   135 H72       5.7806    0.6326    0.5636   H         1 RES1   0.0000
   136 H73       6.5323    0.6721   -1.0261   H         1 RES1   0.0000
   137 H74       7.2641   -1.2308    1.2563   H         1 RES1   0.0000
   138 H75       8.1712    0.2085    0.7979   H         1 RES1   0.0000
   139 H76       8.0846   -1.1576   -0.3033   H         1 RES1   0.0000
   140 H77       3.8127    1.0071    1.0184   H         1 RES1   0.0000
   141 H78       3.7875   -0.7361    1.3405   H         1 RES1   0.0000
   142 H79       2.7271    1.4765    2.9169   H         1 RES1   0.0000
   143 H80       1.1489    0.7306    3.2428   H         1 RES1   0.0000
   144 H81       0.1412    4.4517    0.9992   H         1 RES1   0.0000
   145 H82       1.0655    5.4435    2.1152   H         1 RES1   0.0000
   146 H83      -0.8438    5.4548    3.7040   H         1 RES1   0.0000
   147 H84      -1.7861    4.4658    2.6053   H         1 RES1   0.0000
   148 H85      -0.7269    7.2694    2.0091   H         1 RES1   0.0000
   149 H86      -2.3697    6.8663    2.4813   H         1 RES1   0.0000
   150 H87      -1.7548    6.3159    0.9314   H         1 RES1   0.0000
   151 H88       1.1761    4.6711    4.2955   H         1 RES1   0.0000
   152 H89       2.2429    3.2839    4.1712   H         1 RES1   0.0000
   153 H90       1.0384    2.9337    6.0512   H         1 RES1   0.0000
   154 H91       0.2427    1.8410    4.9165   H         1 RES1   0.0000
   155 H92      -0.9836    4.5603    5.4581   H         1 RES1   0.0000
   156 H93      -1.0888    3.3081    6.6578   H         1 RES1   0.0000
   157 H94      -2.2004    1.7860    5.1446   H         1 RES1   0.0000
   158 H95      -2.0947    2.9437    3.8246   H         1 RES1   0.0000
   159 H96      -3.5057    4.5374    5.0643   H         1 RES1   0.0000
   160 H97      -3.4106    3.5406    6.5042   H         1 RES1   0.0000
   161 H98      -5.5727    3.1982    5.6559   H         1 RES1   0.0000
   162 H99      -4.6696    1.7298    5.3321   H         1 RES1   0.0000
   163 H100     -6.0028    2.1930    3.4133   H         1 RES1   0.0000
   164 H101     -4.3327    2.5651    2.9654   H         1 RES1   0.0000
   165 H102     -6.4377    4.6160    3.7729   H         1 RES1   0.0000
   166 H103     -5.9598    4.2522    2.1215   H         1 RES1   0.0000
   167 H104     -4.8084    4.9923    3.2300   H         1 RES1   0.0000
   168 C53       4.7953    2.6447    4.6253   C.3       1 RES1   0.0000
   169 C54       4.2303    1.4911    5.4469   C.3       1 RES1   0.0000
   170 C55       4.5083    0.1348    4.8079   C.3       1 RES1   0.0000
   171 C56       4.0889   -1.0302    5.7002   C.3       1 RES1   0.0000
   172 C57       4.2111   -2.3812    4.9904   C.3       1 RES1   0.0000
   173 C58       3.0309   -2.7238    4.0669   C.3       1 RES1   0.0000
   174 C59       1.9018   -3.4416    4.8097   C.3       1 RES1   0.0000
   175 C60       0.7388   -3.8606    3.8983   C.3       1 RES1   0.0000
   176 N5       -0.0192   -2.7177    3.4079   N.am      1 RES1   0.0000
   177 C61      -1.1064   -2.2359    4.2650   C.3       1 RES1   0.0000
   178 C62      -1.0275   -0.8221    4.8394   C.3       1 RES1   0.0000
   179 C63       0.0424   -0.6207    5.9039   C.3       1 RES1   0.0000
   180 C64       0.1282   -2.1710    2.2062   C.2       1 RES1   0.0000
   181 O7       -0.3823   -1.0727    1.9154   O.2       1 RES1   0.0000
   182 C65       0.8436   -2.9688    1.0918   C.3       1 RES1   0.0000
   183 O8        0.6577   -2.2434   -0.1193   O.3       1 RES1   0.0000
   184 C66       0.7109   -2.9915   -1.3391   C.3       1 RES1   0.0000
   185 C67      -0.1550   -2.1958   -2.3429   C.2       1 RES1   0.0000
   186 O9       -0.7213   -1.1882   -1.8996   O.2       1 RES1   0.0000
   187 N6       -0.3583   -2.5894   -3.5903   N.am      1 RES1   0.0000
   188 C68      -1.4365   -1.9140   -4.3214   C.3       1 RES1   0.0000
   189 C69      -1.1888   -0.4493   -4.6776   C.3       1 RES1   0.0000
   190 C70       0.0041   -0.2383   -5.5981   C.3       1 RES1   0.0000
   191 C71       0.3975   -3.6174   -4.2848   C.3       1 RES1   0.0000
   192 C72      -0.4450   -4.8140   -4.7357   C.3       1 RES1   0.0000
   193 C73      -0.9216   -5.7290   -3.6086   C.3       1 RES1   0.0000
   194 C74      -2.0774   -5.1709   -2.7785   C.3       1 RES1   0.0000
   195 C75      -2.5589   -6.1324   -1.6884   C.3       1 RES1   0.0000
   196 C76      -1.7423   -6.1128   -0.3920   C.3       1 RES1   0.0000
   197 C77      -0.3764   -6.8035   -0.4123   C.3       1 RES1   0.0000
   198 C78      -0.4326   -8.2656   -0.8284   C.3       1 RES1   0.0000
   199 H105      4.5667    3.6013    5.0899   H         1 RES1   0.0000
   200 H106      5.8764    2.5630    4.5574   H         1 RES1   0.0000
   201 H107      4.4013    2.6515    3.6071   H         1 RES1   0.0000
   202 H108      4.6879    1.5182    6.4335   H         1 RES1   0.0000
   203 H109      3.1535    1.6140    5.5890   H         1 RES1   0.0000
   204 H110      3.9883    0.0678    3.8500   H         1 RES1   0.0000
   205 H111      5.5748    0.0535    4.6008   H         1 RES1   0.0000
   206 H112      4.7294   -1.0235    6.5808   H         1 RES1   0.0000
   207 H113      3.0684   -0.8837    6.0529   H         1 RES1   0.0000
   208 H114      5.1372   -2.3721    4.4130   H         1 RES1   0.0000
   209 H115      4.3030   -3.1765    5.7300   H         1 RES1   0.0000
   210 H116      2.6450   -1.8156    3.5946   H         1 RES1   0.0000
   211 H117      3.3831   -3.3899    3.2749   H         1 RES1   0.0000
   212 H118      2.3019   -4.3521    5.2563   H         1 RES1   0.0000
   213 H119      1.5245   -2.8220    5.6202   H         1 RES1   0.0000
   214 H120      1.1340   -4.4435    3.0660   H         1 RES1   0.0000
   215 H121      0.0416   -4.4943    4.4539   H         1 RES1   0.0000
   216 H122     -2.0159   -2.2956    3.6598   H         1 RES1   0.0000
   217 H123     -1.1831   -2.9345    5.0949   H         1 RES1   0.0000
   218 H124     -0.8986   -0.1075    4.0242   H         1 RES1   0.0000
   219 H125     -2.0000   -0.6364    5.3016   H         1 RES1   0.0000
   220 H126      1.0393   -0.6262    5.4711   H         1 RES1   0.0000
   221 H127     -0.1019    0.3320    6.4077   H         1 RES1   0.0000
   222 H128     -0.0143   -1.3949    6.6650   H         1 RES1   0.0000
   223 H129      1.9153   -3.1154    1.2844   H         1 RES1   0.0000
   224 H130      0.3683   -3.9569    1.0207   H         1 RES1   0.0000
   225 H131      1.7526   -3.0877   -1.6731   H         1 RES1   0.0000
   226 H132      0.2814   -3.9916   -1.1998   H         1 RES1   0.0000
   227 H133     -1.6075   -2.4674   -5.2396   H         1 RES1   0.0000
   228 H134     -2.3381   -1.9739   -3.7043   H         1 RES1   0.0000
   229 H135     -2.0883   -0.1017   -5.1882   H         1 RES1   0.0000
   230 H136     -1.0674    0.1361   -3.7658   H         1 RES1   0.0000
   231 H137     -0.0900   -0.8332   -6.5034   H         1 RES1   0.0000
   232 H138      0.0539    0.8060   -5.8940   H         1 RES1   0.0000
   233 H139      0.9376   -0.4958   -5.1027   H         1 RES1   0.0000
   234 H140      0.8420   -3.1402   -5.1665   H         1 RES1   0.0000
   235 H141      1.2062   -3.9682   -3.6401   H         1 RES1   0.0000
   236 H142     -1.3055   -4.4594   -5.3011   H         1 RES1   0.0000
   237 H143      0.1767   -5.3973   -5.4180   H         1 RES1   0.0000
   238 H144     -1.2697   -6.6539   -4.0680   H         1 RES1   0.0000
   239 H145     -0.0697   -5.9857   -2.9830   H         1 RES1   0.0000
   240 H146     -1.8204   -4.2160   -2.3155   H         1 RES1   0.0000
   241 H147     -2.9082   -4.9845   -3.4624   H         1 RES1   0.0000
   242 H148     -3.5863   -5.8586   -1.4335   H         1 RES1   0.0000
   243 H149     -2.5981   -7.1439   -2.0863   H         1 RES1   0.0000
   244 H150     -1.6026   -5.0702   -0.0860   H         1 RES1   0.0000
   245 H151     -2.3392   -6.5998    0.3814   H         1 RES1   0.0000
   246 H152      0.3144   -6.2727   -1.0702   H         1 RES1   0.0000
   247 H153      0.0425   -6.7529    0.5968   H         1 RES1   0.0000
   248 H154     -0.7578   -8.3697   -1.8588   H         1 RES1   0.0000
   249 H155      0.5516   -8.7197   -0.7383   H         1 RES1   0.0000
   250 H156     -1.1212   -8.8165   -0.1941   H         1 RES1   0.0000
@<TRIPOS>BOND
     1     1    15    1
     2     1    17    1
     3     1    20    1
     4     1    98    1
     5     1   100    1
     6     1   103    1
     7     1   181    1
     8     1   183    1
     9     1   186    1
    10     2     3    1
    11     2    33    1
    12     2    34    1
    13     2    35    1
    14     3     4    1
    15     3    36    1
    16     3    37    1
    17     4     5    1
    18     4    38    1
    19     4    39    1
    20     5     6    1
    21     5    40    1
    22     5    41    1
    23     6     7    1
    24     6    42    1
    25     6    43    1
    26     7     8    1
    27     7    44    1
    28     7    45    1
    29     8     9    1
    30     8    46    1
    31     8    47    1
    32     9    10    1
    33     9    48    1
    34     9    49    1
    35    10    11    1
    36    10    14    1
    37    11    12    1
    38    11    50    1
    39    11    51    1
    40    12    13    1
    41    12    52    1
    42    12    53    1
    43    13    54    1
    44    13    55    1
    45    13    56    1
    46    14    15    2
    47    14    16    1
    48    16    17    1
    49    16    57    1
    50    16    58    1
    51    17    18    1
    52    18    19    1
    53    18    59    1
    54    18    60    1
    55    19    20    2
    56    19    21    1
    57    21    22    1
    58    21    25    1
    59    22    23    1
    60    22    61    1
    61    22    62    1
    62    23    24    1
    63    23    63    1
    64    23    64    1
    65    24    65    1
    66    24    66    1
    67    24    67    1
    68    25    26    1
    69    25    68    1
    70    25    69    1
    71    26    27    1
    72    26    70    1
    73    26    71    1
    74    27    28    1
    75    27    72    1
    76    27    73    1
    77    28    29    1
    78    28    74    1
    79    28    75    1
    80    29    30    1
    81    29    76    1
    82    29    77    1
    83    30    31    1
    84    30    78    1
    85    30    79    1
    86    31    32    1
    87    31    80    1
    88    31    81    1
    89    32    82    1
    90    32    83    1
    91    32    84    1
    92    85    86    1
    93    85   116    1
    94    85   117    1
    95    85   118    1
    96    86    87    1
    97    86   119    1
    98    86   120    1
    99    87    88    1
   100    87   121    1
   101    87   122    1
   102    88    89    1
   103    88   123    1
   104    88   124    1
   105    89    90    1
   106    89   125    1
   107    89   126    1
   108    90    91    1
   109    90   127    1
   110    90   128    1
   111    91    92    1
   112    91   129    1
   113    91   130    1
   114    92    93    1
   115    92   131    1
   116    92   132    1
   117    93    94    1
   118    93    97    1
   119    94    95    1
   120    94   133    1
   121    94   134    1
   122    95    96    1
   123    95   135    1
   124    95   136    1
   125    96   137    1
   126    96   138    1
   127    96   139    1
   128    97    98    2
   129    97    99    1
   130    99   100    1
   131    99   140    1
   132    99   141    1
   133   100   101    1
   134   101   102    1
   135   101   142    1
   136   101   143    1
   137   102   103    2
   138   102   104    1
   139   104   105    1
   140   104   108    1
   141   105   106    1
   142   105   144    1
   143   105   145    1
   144   106   107    1
   145   106   146    1
   146   106   147    1
   147   107   148    1
   148   107   149    1
   149   107   150    1
   150   108   109    1
   151   108   151    1
   152   108   152    1
   153   109   110    1
   154   109   153    1
   155   109   154    1
   156   110   111    1
   157   110   155    1
   158   110   156    1
   159   111   112    1
   160   111   157    1
   161   111   158    1
   162   112   113    1
   163   112   159    1
   164   112   160    1
   165   113   114    1
   166   113   161    1
   167   113   162    1
   168   114   115    1
   169   114   163    1
   170   114   164    1
   171   115   165    1
   172   115   166    1
   173   115   167    1
   174   168   169    1
   175   168   199    1
   176   168   200    1
   177   168   201    1
   178   169   170    1
   179   169   202    1
   180   169   203    1
   181   170   171    1
   182   170   204    1
   183   170   205    1
   184   171   172    1
   185   171   206    1
   186   171   207    1
   187   172   173    1
   188   172   208    1
   189   172   209    1
   190   173   174    1
   191   173   210    1
   192   173   211    1
   193   174   175    1
   194   174   212    1
   195   174   213    1
   196   175   176    1
   197   175   214    1
   198   175   215    1
   199   176   177    1
   200   176   180    1
   201   177   178    1
   202   177   216    1
   203   177   217    1
   204   178   179    1
   205   178   218    1
   206   178   219    1
   207   179   220    1
   208   179   221    1
   209   179   222    1
   210   180   181    2
   211   180   182    1
   212   182   183    1
   213   182   223    1
   214   182   224    1
   215   183   184    1
   216   184   185    1
   217   184   225    1
   218   184   226    1
   219   185   186    2
   220   185   187    1
   221   187   188    1
   222   187   191    1
   223   188   189    1
   224   188   227    1
   225   188   228    1
   226   189   190    1
   227   189   229    1
   228   189   230    1
   229   190   231    1
   230   190   232    1
   231   190   233    1
   232   191   192    1
   233   191   234    1
   234   191   235    1
   235   192   193    1
   236   192   236    1
   237   192   237    1
   238   193   194    1
   239   193   238    1
   240   193   239    1
   241   194   195    1
   242   194   240    1
   243   194   241    1
   244   195   196    1
   245   195   242    1
   246   195   243    1
   247   196   197    1
   248   196   244    1
   249   196   245    1
   250   197   198    1
   251   197   246    1
   252   197   247    1
   253   198   248    1
   254   198   249    1
   255   198   250    1
@<TRIPOS>SUBSTRUCTURE
     1 RES1      250 GROUP             0 ****  ****    0  
