@<TRIPOS>MOLECULE
tri_tri_mer_capped_0_nunpairedes_0_charge_3 Charge: 3 Unpaired_Electrons: 3 XTB_Unpaired_Electrons: 0 XTB_Charge: 3
   352   363     1     0     0
SMALL
NoCharges
****
Generated from Architector

@<TRIPOS>ATOM
     1 Nd1      -0.1045   -0.0096   -0.0307   Nd        1 RES1   0.0000
     2 C1        4.0529    1.6170   -6.8130   C.3       1 RES1   0.0000
     3 C2        3.9432    0.9912   -5.4283   C.3       1 RES1   0.0000
     4 C3        5.2378    1.0807   -4.6167   C.3       1 RES1   0.0000
     5 C4        5.5734    2.4828   -4.1086   C.3       1 RES1   0.0000
     6 C5        6.6728    2.4360   -3.0401   C.3       1 RES1   0.0000
     7 C6        6.1535    2.2648   -1.5994   C.3       1 RES1   0.0000
     8 C7        6.9820    1.2455   -0.8189   C.3       1 RES1   0.0000
     9 C8        6.7275    1.2866    0.6897   C.3       1 RES1   0.0000
    10 C9        7.7256    0.4516    1.5082   C.3       1 RES1   0.0000
    11 C10       9.1582    0.9424    1.3121   C.3       1 RES1   0.0000
    12 C11       7.3730    0.4932    2.9865   C.3       1 RES1   0.0000
    13 S1        7.7307   -1.3020    0.8340   S.3       1 RES1   0.0000
    14 C12       6.8744   -2.4500    1.9821   C.3       1 RES1   0.0000
    15 C13       5.7332   -3.0732    1.1789   C.3       1 RES1   0.0000
    16 C14       4.6273   -2.0336    0.9507   C.3       1 RES1   0.0000
    17 N1        3.4074   -2.5876    1.5284   N.am      1 RES1   0.0000
    18 C15       2.2483   -1.9611    1.4020   C.2       1 RES1   0.0000
    19 O1        2.1316   -0.8361    0.8906   O.2       1 RES1   0.0000
    20 C16       0.9800   -2.7319    1.7865   C.3       1 RES1   0.0000
    21 O2       -0.1640   -1.8921    1.8842   O.3       1 RES1   0.0000
    22 C17      -0.4054   -1.3468    3.1727   C.3       1 RES1   0.0000
    23 C18      -0.0829    0.1513    3.2046   C.2       1 RES1   0.0000
    24 O3        0.2609    0.7335    2.1563   O.2       1 RES1   0.0000
    25 N2       -0.2004    0.7871    4.3520   N.am      1 RES1   0.0000
    26 C19       0.0545    2.2253    4.4161   C.3       1 RES1   0.0000
    27 C20      -0.5439    2.6582    5.7586   C.3       1 RES1   0.0000
    28 C21      -1.2300    4.0013    5.7150   C.3       1 RES1   0.0000
    29 C22      -1.5514    1.5445    6.0613   C.3       1 RES1   0.0000
    30 C23      -2.1178    1.6244    7.4780   C.3       1 RES1   0.0000
    31 S2       -3.6110    2.6900    7.5051   S.3       1 RES1   0.0000
    32 C24      -5.0097    1.4621    7.4878   C.3       1 RES1   0.0000
    33 C25      -6.2669    2.3120    7.6277   C.3       1 RES1   0.0000
    34 C26      -4.8485    0.5183    8.6725   C.3       1 RES1   0.0000
    35 C27      -4.9499    0.7334    6.1454   C.3       1 RES1   0.0000
    36 C28      -5.9793   -0.3815    5.9682   C.3       1 RES1   0.0000
    37 C29      -5.8189   -1.0208    4.5858   C.3       1 RES1   0.0000
    38 C30      -6.5681   -2.3547    4.4430   C.3       1 RES1   0.0000
    39 C31      -5.6851   -3.6071    4.4512   C.3       1 RES1   0.0000
    40 C32      -5.0603   -3.9999    5.7949   C.3       1 RES1   0.0000
    41 C33      -3.6953   -3.3715    6.0800   C.3       1 RES1   0.0000
    42 C34      -3.0647   -3.9663    7.3362   C.3       1 RES1   0.0000
    43 C35      -0.7579    0.3128    5.6099   C.3       1 RES1   0.0000
    44 C36       3.6827   -3.7879    2.3077   C.3       1 RES1   0.0000
    45 C37       5.0279   -4.3084    1.7936   C.3       1 RES1   0.0000
    46 C38       5.8323   -5.0346    2.8624   C.3       1 RES1   0.0000
    47 H1        3.1336    1.4605   -7.3749   H         1 RES1   0.0000
    48 H2        4.8681    1.1574   -7.3648   H         1 RES1   0.0000
    49 H3        4.2416    2.6853   -6.7455   H         1 RES1   0.0000
    50 H4        3.1256    1.4812   -4.8820   H         1 RES1   0.0000
    51 H5        3.6811   -0.0646   -5.5455   H         1 RES1   0.0000
    52 H6        6.0653    0.7218   -5.2310   H         1 RES1   0.0000
    53 H7        5.1596    0.4124   -3.7549   H         1 RES1   0.0000
    54 H8        4.6781    2.9461   -3.6883   H         1 RES1   0.0000
    55 H9        5.9104    3.1007   -4.9394   H         1 RES1   0.0000
    56 H10       7.2689    3.3479   -3.0864   H         1 RES1   0.0000
    57 H11       7.3390    1.6055   -3.2832   H         1 RES1   0.0000
    58 H12       5.0988    1.9718   -1.6021   H         1 RES1   0.0000
    59 H13       6.2238    3.2216   -1.0808   H         1 RES1   0.0000
    60 H14       8.0298    1.4728   -1.0030   H         1 RES1   0.0000
    61 H15       6.7922    0.2384   -1.1976   H         1 RES1   0.0000
    62 H16       5.7058    0.9500    0.9032   H         1 RES1   0.0000
    63 H17       6.8065    2.3238    1.0315   H         1 RES1   0.0000
    64 H18       9.2010    2.0252    1.4123   H         1 RES1   0.0000
    65 H19       9.5284    0.6624    0.3303   H         1 RES1   0.0000
    66 H20       9.8180    0.4966    2.0515   H         1 RES1   0.0000
    67 H21       7.6043    1.4814    3.3787   H         1 RES1   0.0000
    68 H22       7.9648   -0.2292    3.5435   H         1 RES1   0.0000
    69 H23       6.3132    0.3133    3.1656   H         1 RES1   0.0000
    70 H24       6.5185   -1.9368    2.8687   H         1 RES1   0.0000
    71 H25       7.6179   -3.1879    2.2722   H         1 RES1   0.0000
    72 H26       6.1763   -3.3759    0.2260   H         1 RES1   0.0000
    73 H27       4.4555   -1.8321   -0.1070   H         1 RES1   0.0000
    74 H28       4.8849   -1.0902    1.4389   H         1 RES1   0.0000
    75 H29       1.1199   -3.2991    2.7076   H         1 RES1   0.0000
    76 H30       0.7388   -3.4288    0.9701   H         1 RES1   0.0000
    77 H31       0.1524   -1.8743    3.9549   H         1 RES1   0.0000
    78 H32      -1.4773   -1.4704    3.3719   H         1 RES1   0.0000
    79 H33      -0.4259    2.7071    3.5582   H         1 RES1   0.0000
    80 H34       1.1306    2.4033    4.3457   H         1 RES1   0.0000
    81 H35       0.2304    2.6596    6.5264   H         1 RES1   0.0000
    82 H36      -2.1957    3.9053    5.2364   H         1 RES1   0.0000
    83 H37      -0.6293    4.7247    5.1835   H         1 RES1   0.0000
    84 H38      -1.4091    4.3482    6.7252   H         1 RES1   0.0000
    85 H39      -2.3972    1.6590    5.3729   H         1 RES1   0.0000
    86 H40      -1.4114    2.1060    8.1512   H         1 RES1   0.0000
    87 H41      -2.3847    0.6579    7.8968   H         1 RES1   0.0000
    88 H42      -6.2171    2.9000    8.5409   H         1 RES1   0.0000
    89 H43      -7.1454    1.6744    7.6820   H         1 RES1   0.0000
    90 H44      -6.3762    2.9936    6.7851   H         1 RES1   0.0000
    91 H45      -4.4527    1.0587    9.5297   H         1 RES1   0.0000
    92 H46      -4.1847   -0.3130    8.4417   H         1 RES1   0.0000
    93 H47      -5.8122    0.1039    8.9523   H         1 RES1   0.0000
    94 H48      -3.9585    0.2782    6.0431   H         1 RES1   0.0000
    95 H49      -5.0714    1.4686    5.3419   H         1 RES1   0.0000
    96 H50      -6.9914    0.0145    6.0575   H         1 RES1   0.0000
    97 H51      -5.8377   -1.1344    6.7432   H         1 RES1   0.0000
    98 H52      -4.7532   -1.1814    4.3808   H         1 RES1   0.0000
    99 H53      -6.1926   -0.3081    3.8438   H         1 RES1   0.0000
   100 H54      -7.1265   -2.3462    3.5027   H         1 RES1   0.0000
   101 H55      -7.3015   -2.4356    5.2458   H         1 RES1   0.0000
   102 H56      -4.8854   -3.4990    3.7105   H         1 RES1   0.0000
   103 H57      -6.3208   -4.4331    4.1307   H         1 RES1   0.0000
   104 H58      -4.9243   -5.0827    5.8010   H         1 RES1   0.0000
   105 H59      -5.7526   -3.7656    6.6038   H         1 RES1   0.0000
   106 H60      -3.7912   -2.2910    6.2020   H         1 RES1   0.0000
   107 H61      -3.0319   -3.5585    5.2274   H         1 RES1   0.0000
   108 H62      -3.7225   -3.8356    8.1917   H         1 RES1   0.0000
   109 H63      -2.1137   -3.4854    7.5624   H         1 RES1   0.0000
   110 H64      -2.8891   -5.0319    7.2045   H         1 RES1   0.0000
   111 H65      -1.3645   -0.5786    5.4580   H         1 RES1   0.0000
   112 H66       0.0517    0.0883    6.3091   H         1 RES1   0.0000
   113 H67       2.9036   -4.5362    2.1744   H         1 RES1   0.0000
   114 H68       3.7497   -3.5235    3.3686   H         1 RES1   0.0000
   115 H69       4.8270   -5.0199    0.9870   H         1 RES1   0.0000
   116 H70       6.0370   -4.3915    3.7145   H         1 RES1   0.0000
   117 H71       6.7722   -5.3774    2.4395   H         1 RES1   0.0000
   118 H72       5.2888   -5.9079    3.2111   H         1 RES1   0.0000
   119 C39      -1.6011   -5.9990    4.0628   C.3       1 RES1   0.0000
   120 C40      -0.7784   -5.3284    2.9667   C.3       1 RES1   0.0000
   121 C41      -0.6060   -6.2048    1.7239   C.3       1 RES1   0.0000
   122 C42      -1.9155   -6.3975    0.9621   C.3       1 RES1   0.0000
   123 C43      -1.8306   -7.4658   -0.1390   C.3       1 RES1   0.0000
   124 C44      -1.7712   -6.9239   -1.5686   C.3       1 RES1   0.0000
   125 C45      -0.4713   -6.1745   -1.8568   C.3       1 RES1   0.0000
   126 C46      -0.1854   -5.9778   -3.3517   C.3       1 RES1   0.0000
   127 C47       0.8294   -6.9732   -3.9284   C.3       1 RES1   0.0000
   128 C48       0.3766   -8.4227   -3.7891   C.3       1 RES1   0.0000
   129 C49       1.1034   -6.6720   -5.3935   C.3       1 RES1   0.0000
   130 S3        2.3939   -6.8985   -2.9175   S.3       1 RES1   0.0000
   131 C50       3.3975   -5.5040   -3.5573   C.3       1 RES1   0.0000
   132 C51       3.8593   -4.6817   -2.3593   C.3       1 RES1   0.0000
   133 C52       2.7230   -3.8450   -1.7585   C.3       1 RES1   0.0000
   134 N3        2.9976   -2.4573   -2.1305   N.am      1 RES1   0.0000
   135 C53       2.1748   -1.4737   -1.8076   C.2       1 RES1   0.0000
   136 O4        1.0648   -1.6744   -1.2721   O.2       1 RES1   0.0000
   137 C54       2.6481   -0.0517   -2.1156   C.3       1 RES1   0.0000
   138 O5        1.8930    0.9162   -1.3840   O.3       1 RES1   0.0000
   139 C55       1.4288    2.0084   -2.1686   C.3       1 RES1   0.0000
   140 C56       0.0583    1.6430   -2.7561   C.2       1 RES1   0.0000
   141 O6       -0.5825    0.7328   -2.1933   O.2       1 RES1   0.0000
   142 N4       -0.3833    2.2880   -3.8164   N.am      1 RES1   0.0000
   143 C57      -1.6985    1.9929   -4.3769   C.3       1 RES1   0.0000
   144 C58      -1.8995    3.0290   -5.4870   C.3       1 RES1   0.0000
   145 C59      -3.3516    3.4391   -5.6668   C.3       1 RES1   0.0000
   146 C60      -1.0047    4.1881   -5.0216   C.3       1 RES1   0.0000
   147 C61      -0.6938    5.2305   -6.0995   C.3       1 RES1   0.0000
   148 S4       -1.4020    6.8711   -5.7310   S.3       1 RES1   0.0000
   149 C62      -0.1135    7.7420   -4.6977   C.3       1 RES1   0.0000
   150 C63      -0.7172    9.1217   -4.4697   C.3       1 RES1   0.0000
   151 C64       1.2011    7.8383   -5.4576   C.3       1 RES1   0.0000
   152 C65       0.0311    6.9673   -3.3888   C.3       1 RES1   0.0000
   153 C66       1.0117    7.5466   -2.3662   C.3       1 RES1   0.0000
   154 C67       1.0167    6.6588   -1.1192   C.3       1 RES1   0.0000
   155 C68       2.0494    7.0634   -0.0575   C.3       1 RES1   0.0000
   156 C69       3.3371    6.2368   -0.0493   C.3       1 RES1   0.0000
   157 C70       4.2796    6.5203   -1.2230   C.3       1 RES1   0.0000
   158 C71       4.0785    5.5754   -2.4079   C.3       1 RES1   0.0000
   159 C72       4.8558    6.0411   -3.6329   C.3       1 RES1   0.0000
   160 C73       0.2117    3.4448   -4.4595   C.3       1 RES1   0.0000
   161 C74       4.2290   -2.3379   -2.8944   C.3       1 RES1   0.0000
   162 C75       4.9734   -3.6544   -2.6514   C.3       1 RES1   0.0000
   163 C76       5.9277   -4.0439   -3.7704   C.3       1 RES1   0.0000
   164 H73      -1.5430   -5.4210    4.9820   H         1 RES1   0.0000
   165 H74      -1.2134   -6.9939    4.2657   H         1 RES1   0.0000
   166 H75      -2.6479   -6.0887    3.7850   H         1 RES1   0.0000
   167 H76       0.2120   -5.1137    3.3803   H         1 RES1   0.0000
   168 H77      -1.2455   -4.3778    2.6803   H         1 RES1   0.0000
   169 H78      -0.2324   -7.1810    2.0366   H         1 RES1   0.0000
   170 H79       0.1451   -5.7636    1.0620   H         1 RES1   0.0000
   171 H80      -2.2279   -5.4407    0.5343   H         1 RES1   0.0000
   172 H81      -2.6776   -6.7042    1.6769   H         1 RES1   0.0000
   173 H82      -2.6982   -8.1224   -0.0643   H         1 RES1   0.0000
   174 H83      -0.9480   -8.0871    0.0291   H         1 RES1   0.0000
   175 H84      -2.6234   -6.2661   -1.7648   H         1 RES1   0.0000
   176 H85      -1.8587   -7.7739   -2.2445   H         1 RES1   0.0000
   177 H86       0.3577   -6.7316   -1.4158   H         1 RES1   0.0000
   178 H87      -0.5048   -5.1970   -1.3664   H         1 RES1   0.0000
   179 H88       0.1953   -4.9651   -3.5158   H         1 RES1   0.0000
   180 H89      -1.1124   -6.0666   -3.9227   H         1 RES1   0.0000
   181 H90      -0.6058   -8.5566   -4.2361   H         1 RES1   0.0000
   182 H91       0.3379   -8.7280   -2.7472   H         1 RES1   0.0000
   183 H92       1.0767   -9.0769   -4.3024   H         1 RES1   0.0000
   184 H93       0.2408   -6.9693   -5.9853   H         1 RES1   0.0000
   185 H94       1.9646   -7.2338   -5.7456   H         1 RES1   0.0000
   186 H95       1.2656   -5.6112   -5.5678   H         1 RES1   0.0000
   187 H96       2.8290   -4.9151   -4.2675   H         1 RES1   0.0000
   188 H97       4.2445   -5.9656   -4.0577   H         1 RES1   0.0000
   189 H98       4.2262   -5.4017   -1.6258   H         1 RES1   0.0000
   190 H99       2.7159   -3.9135   -0.6675   H         1 RES1   0.0000
   191 H100      1.7447   -4.1619   -2.1283   H         1 RES1   0.0000
   192 H101      2.5844    0.0936   -3.2001   H         1 RES1   0.0000
   193 H102      3.6946    0.0734   -1.8111   H         1 RES1   0.0000
   194 H103      1.3048    2.8508   -1.4719   H         1 RES1   0.0000
   195 H104      2.1603    2.2635   -2.9429   H         1 RES1   0.0000
   196 H105     -2.4531    2.0933   -3.5910   H         1 RES1   0.0000
   197 H106     -1.7112    0.9643   -4.7349   H         1 RES1   0.0000
   198 H107     -1.5095    2.6398   -6.4324   H         1 RES1   0.0000
   199 H108     -3.7687    3.8019   -4.7322   H         1 RES1   0.0000
   200 H109     -3.9460    2.5972   -6.0071   H         1 RES1   0.0000
   201 H110     -3.4299    4.2353   -6.4003   H         1 RES1   0.0000
   202 H111     -1.5198    4.6878   -4.1974   H         1 RES1   0.0000
   203 H112     -1.1568    4.9508   -7.0455   H         1 RES1   0.0000
   204 H113      0.3729    5.3416   -6.2745   H         1 RES1   0.0000
   205 H114     -0.8937    9.6144   -5.4220   H         1 RES1   0.0000
   206 H115     -0.0390    9.7354   -3.8820   H         1 RES1   0.0000
   207 H116     -1.6690    9.0365   -3.9483   H         1 RES1   0.0000
   208 H117      1.0251    8.1279   -6.4907   H         1 RES1   0.0000
   209 H118      1.7493    6.8973   -5.4395   H         1 RES1   0.0000
   210 H119      1.8283    8.5972   -4.9969   H         1 RES1   0.0000
   211 H120      0.3773    5.9614   -3.6320   H         1 RES1   0.0000
   212 H121     -0.9586    6.8855   -2.9265   H         1 RES1   0.0000
   213 H122      0.7012    8.5493   -2.0694   H         1 RES1   0.0000
   214 H123      2.0114    7.6079   -2.7935   H         1 RES1   0.0000
   215 H124      1.1784    5.6104   -1.4027   H         1 RES1   0.0000
   216 H125      0.0176    6.7300   -0.6892   H         1 RES1   0.0000
   217 H126      1.5958    6.9677    0.9330   H         1 RES1   0.0000
   218 H127      2.3009    8.1168   -0.1885   H         1 RES1   0.0000
   219 H128      3.0905    5.1701   -0.0169   H         1 RES1   0.0000
   220 H129      3.8583    6.4757    0.8773   H         1 RES1   0.0000
   221 H130      5.3136    6.4264   -0.8878   H         1 RES1   0.0000
   222 H131      4.1513    7.5550   -1.5454   H         1 RES1   0.0000
   223 H132      3.0170    5.5105   -2.6577   H         1 RES1   0.0000
   224 H133      4.4157    4.5762   -2.1168   H         1 RES1   0.0000
   225 H134      4.5649    7.0554   -3.8952   H         1 RES1   0.0000
   226 H135      4.6599    5.3989   -4.4891   H         1 RES1   0.0000
   227 H136      5.9241    6.0309   -3.4333   H         1 RES1   0.0000
   228 H137      0.7814    4.0298   -3.7392   H         1 RES1   0.0000
   229 H138      0.8736    3.1354   -5.2745   H         1 RES1   0.0000
   230 H139      4.8420   -1.4956   -2.5693   H         1 RES1   0.0000
   231 H140      3.9907   -2.1948   -3.9527   H         1 RES1   0.0000
   232 H141      5.5693   -3.5311   -1.7422   H         1 RES1   0.0000
   233 H142      5.4284   -4.0705   -4.7341   H         1 RES1   0.0000
   234 H143      6.3368   -5.0296   -3.5680   H         1 RES1   0.0000
   235 H144      6.7538   -3.3406   -3.8255   H         1 RES1   0.0000
   236 C77       2.3364   -2.6866   -6.4741   C.3       1 RES1   0.0000
   237 C78       1.3642   -2.3652   -5.3404   C.3       1 RES1   0.0000
   238 C79      -0.0998   -2.5898   -5.7257   C.3       1 RES1   0.0000
   239 C80      -0.5957   -1.5412   -6.7190   C.3       1 RES1   0.0000
   240 C81      -2.0453   -1.7543   -7.1788   C.3       1 RES1   0.0000
   241 C82      -3.0870   -0.8733   -6.4815   C.3       1 RES1   0.0000
   242 C83      -3.3472   -1.3158   -5.0426   C.3       1 RES1   0.0000
   243 C84      -4.4602   -0.5469   -4.3187   C.3       1 RES1   0.0000
   244 C85      -5.8597   -1.1706   -4.4232   C.3       1 RES1   0.0000
   245 C86      -6.3767   -1.2345   -5.8567   C.3       1 RES1   0.0000
   246 C87      -6.8485   -0.3795   -3.5757   C.3       1 RES1   0.0000
   247 S5       -5.7611   -2.9602   -3.8958   S.3       1 RES1   0.0000
   248 C88      -6.1131   -3.0159   -2.1020   C.3       1 RES1   0.0000
   249 C89      -5.1183   -3.9606   -1.4351   C.3       1 RES1   0.0000
   250 C90      -3.7384   -3.3203   -1.3061   C.3       1 RES1   0.0000
   251 N5       -3.8483   -2.5416   -0.0745   N.am      1 RES1   0.0000
   252 C91      -3.0258   -1.5592    0.2054   C.2       1 RES1   0.0000
   253 O7       -1.9860   -1.3268   -0.4428   O.2       1 RES1   0.0000
   254 C92      -3.4305   -0.6073    1.3380   C.3       1 RES1   0.0000
   255 O8       -2.4131    0.3718    1.4386   O.3       1 RES1   0.0000
   256 C93      -2.8573    1.6594    1.8266   C.3       1 RES1   0.0000
   257 C94      -2.0049    2.7140    1.0970   C.2       1 RES1   0.0000
   258 O9       -1.2256    2.3313    0.2006   O.2       1 RES1   0.0000
   259 N6       -2.2292    3.9780    1.4293   N.am      1 RES1   0.0000
   260 C95      -1.6918    5.1387    0.6982   C.3       1 RES1   0.0000
   261 C96      -2.1128    6.3471    1.5580   C.3       1 RES1   0.0000
   262 C97      -1.3098    7.6225    1.3996   C.3       1 RES1   0.0000
   263 C98      -2.0217    5.7110    2.9531   C.3       1 RES1   0.0000
   264 C99      -2.3545    6.5977    4.1561   C.3       1 RES1   0.0000
   265 S6       -0.8023    7.5261    4.6276   S.3       1 RES1   0.0000
   266 C100     -0.3318    7.4292    6.4705   C.3       1 RES1   0.0000
   267 C101      0.0941    8.8548    6.8111   C.3       1 RES1   0.0000
   268 C102     -1.5400    7.0955    7.3278   C.3       1 RES1   0.0000
   269 C103      0.8986    6.4909    6.5813   C.3       1 RES1   0.0000
   270 C104      1.0323    5.6002    7.8227   C.3       1 RES1   0.0000
   271 C105      2.1912    4.6145    7.6333   C.3       1 RES1   0.0000
   272 C106      2.3572    3.6181    8.7984   C.3       1 RES1   0.0000
   273 C107      2.5334    2.1313    8.4102   C.3       1 RES1   0.0000
   274 C108      1.3932    1.2566    8.9417   C.3       1 RES1   0.0000
   275 C109      1.5266   -0.2470    8.6729   C.3       1 RES1   0.0000
   276 C110      0.2111   -0.9608    8.9816   C.3       1 RES1   0.0000
   277 C111     -2.8520    4.4496    2.6670   C.3       1 RES1   0.0000
   278 C112     -4.9807   -2.9701    0.7340   C.3       1 RES1   0.0000
   279 C113     -5.4592   -4.2514    0.0389   C.3       1 RES1   0.0000
   280 C114     -6.9078   -4.6153    0.3246   C.3       1 RES1   0.0000
   281 H145      2.2857   -1.9415   -7.2635   H         1 RES1   0.0000
   282 H146      2.1092   -3.6564   -6.9117   H         1 RES1   0.0000
   283 H147      3.3631   -2.7157   -6.1121   H         1 RES1   0.0000
   284 H148      1.5969   -2.9927   -4.4744   H         1 RES1   0.0000
   285 H149      1.4941   -1.3219   -5.0286   H         1 RES1   0.0000
   286 H150     -0.2036   -3.5778   -6.1798   H         1 RES1   0.0000
   287 H151     -0.7115   -2.5765   -4.8202   H         1 RES1   0.0000
   288 H152     -0.4880   -0.5450   -6.2804   H         1 RES1   0.0000
   289 H153      0.0507   -1.5815   -7.5953   H         1 RES1   0.0000
   290 H154     -2.1039   -1.5537   -8.2497   H         1 RES1   0.0000
   291 H155     -2.3192   -2.8008   -7.0285   H         1 RES1   0.0000
   292 H156     -2.7642    0.1718   -6.5025   H         1 RES1   0.0000
   293 H157     -4.0104   -0.9324   -7.0554   H         1 RES1   0.0000
   294 H158     -3.5985   -2.3784   -5.0484   H         1 RES1   0.0000
   295 H159     -2.4260   -1.2072   -4.4648   H         1 RES1   0.0000
   296 H160     -4.1998   -0.4873   -3.2555   H         1 RES1   0.0000
   297 H161     -4.5133    0.4771   -4.6998   H         1 RES1   0.0000
   298 H162     -6.2496   -0.2705   -6.3445   H         1 RES1   0.0000
   299 H163     -5.8583   -1.9989   -6.4286   H         1 RES1   0.0000
   300 H164     -7.4349   -1.4835   -5.8609   H         1 RES1   0.0000
   301 H165     -7.1053    0.5365   -4.1018   H         1 RES1   0.0000
   302 H166     -7.7637   -0.9433   -3.4174   H         1 RES1   0.0000
   303 H167     -6.4324   -0.0908   -2.6119   H         1 RES1   0.0000
   304 H168     -6.0478   -2.0151   -1.6876   H         1 RES1   0.0000
   305 H169     -7.1273   -3.3946   -2.0006   H         1 RES1   0.0000
   306 H170     -5.0714   -4.8780   -2.0213   H         1 RES1   0.0000
   307 H171     -2.9559   -4.0762   -1.2098   H         1 RES1   0.0000
   308 H172     -3.4829   -2.6625   -2.1389   H         1 RES1   0.0000
   309 H173     -4.3904   -0.1467    1.0673   H         1 RES1   0.0000
   310 H174     -3.5769   -1.1284    2.2949   H         1 RES1   0.0000
   311 H175     -3.8994    1.8213    1.5190   H         1 RES1   0.0000
   312 H176     -2.8055    1.7588    2.9171   H         1 RES1   0.0000
   313 H177     -0.6050    5.0636    0.6153   H         1 RES1   0.0000
   314 H178     -2.1211    5.1680   -0.3044   H         1 RES1   0.0000
   315 H179     -3.1591    6.5799    1.3330   H         1 RES1   0.0000
   316 H180     -0.2824    7.4870    1.7091   H         1 RES1   0.0000
   317 H181     -1.3264    7.9729    0.3740   H         1 RES1   0.0000
   318 H182     -1.7288    8.4010    2.0307   H         1 RES1   0.0000
   319 H183     -0.9844    5.3913    3.0907   H         1 RES1   0.0000
   320 H184     -3.1070    7.3460    3.9152   H         1 RES1   0.0000
   321 H185     -2.6935    6.0230    5.0127   H         1 RES1   0.0000
   322 H186     -0.7424    9.5430    6.7184   H         1 RES1   0.0000
   323 H187      0.4477    8.8807    7.8404   H         1 RES1   0.0000
   324 H188      0.8926    9.1988    6.1575   H         1 RES1   0.0000
   325 H189     -2.2783    7.8925    7.2463   H         1 RES1   0.0000
   326 H190     -2.0257    6.1616    7.0664   H         1 RES1   0.0000
   327 H191     -1.2282    7.0368    8.3679   H         1 RES1   0.0000
   328 H192      0.9442    5.8453    5.7034   H         1 RES1   0.0000
   329 H193      1.7950    7.1123    6.5280   H         1 RES1   0.0000
   330 H194      1.2295    6.2084    8.7032   H         1 RES1   0.0000
   331 H195      0.1166    5.0391    8.0037   H         1 RES1   0.0000
   332 H196      2.0163    4.0745    6.7008   H         1 RES1   0.0000
   333 H197      3.1093    5.1902    7.5161   H         1 RES1   0.0000
   334 H198      3.2146    3.9278    9.3933   H         1 RES1   0.0000
   335 H199      1.4818    3.6941    9.4421   H         1 RES1   0.0000
   336 H200      2.5948    2.0231    7.3240   H         1 RES1   0.0000
   337 H201      3.4714    1.7648    8.8245   H         1 RES1   0.0000
   338 H202      1.3207    1.3982   10.0203   H         1 RES1   0.0000
   339 H203      0.4539    1.6003    8.5028   H         1 RES1   0.0000
   340 H204      1.8188   -0.4285    7.6318   H         1 RES1   0.0000
   341 H205      2.3148   -0.6667    9.2991   H         1 RES1   0.0000
   342 H206     -0.5410   -0.7325    8.2292   H         1 RES1   0.0000
   343 H207      0.3429   -2.0380    9.0167   H         1 RES1   0.0000
   344 H208     -0.1696   -0.6383    9.9459   H         1 RES1   0.0000
   345 H209     -2.8053    3.6971    3.4475   H         1 RES1   0.0000
   346 H210     -3.8975    4.7208    2.5049   H         1 RES1   0.0000
   347 H211     -4.6726   -3.1498    1.7670   H         1 RES1   0.0000
   348 H212     -5.7721   -2.2131    0.7389   H         1 RES1   0.0000
   349 H213     -4.8271   -5.0813    0.3718   H         1 RES1   0.0000
   350 H214     -7.5768   -3.7717    0.1789   H         1 RES1   0.0000
   351 H215     -7.2138   -5.4178   -0.3406   H         1 RES1   0.0000
   352 H216     -7.0146   -4.9595    1.3500   H         1 RES1   0.0000
@<TRIPOS>BOND
     1     1    19    1
     2     1    21    1
     3     1    24    1
     4     1   136    1
     5     1   138    1
     6     1   141    1
     7     1   253    1
     8     1   255    1
     9     1   258    1
    10     2     3    1
    11     2    47    1
    12     2    48    1
    13     2    49    1
    14     3     4    1
    15     3    50    1
    16     3    51    1
    17     4     5    1
    18     4    52    1
    19     4    53    1
    20     5     6    1
    21     5    54    1
    22     5    55    1
    23     6     7    1
    24     6    56    1
    25     6    57    1
    26     7     8    1
    27     7    58    1
    28     7    59    1
    29     8     9    1
    30     8    60    1
    31     8    61    1
    32     9    10    1
    33     9    62    1
    34     9    63    1
    35    10    11    1
    36    10    12    1
    37    10    13    1
    38    11    64    1
    39    11    65    1
    40    11    66    1
    41    12    67    1
    42    12    68    1
    43    12    69    1
    44    13    14    1
    45    14    15    1
    46    14    70    1
    47    14    71    1
    48    15    16    1
    49    15    45    1
    50    15    72    1
    51    16    17    1
    52    16    73    1
    53    16    74    1
    54    17    18    1
    55    17    44    1
    56    18    19    2
    57    18    20    1
    58    20    21    1
    59    20    75    1
    60    20    76    1
    61    21    22    1
    62    22    23    1
    63    22    77    1
    64    22    78    1
    65    23    24    2
    66    23    25    1
    67    25    26    1
    68    25    43    1
    69    26    27    1
    70    26    79    1
    71    26    80    1
    72    27    28    1
    73    27    29    1
    74    27    81    1
    75    28    82    1
    76    28    83    1
    77    28    84    1
    78    29    30    1
    79    29    43    1
    80    29    85    1
    81    30    31    1
    82    30    86    1
    83    30    87    1
    84    31    32    1
    85    32    33    1
    86    32    34    1
    87    32    35    1
    88    33    88    1
    89    33    89    1
    90    33    90    1
    91    34    91    1
    92    34    92    1
    93    34    93    1
    94    35    36    1
    95    35    94    1
    96    35    95    1
    97    36    37    1
    98    36    96    1
    99    36    97    1
   100    37    38    1
   101    37    98    1
   102    37    99    1
   103    38    39    1
   104    38   100    1
   105    38   101    1
   106    39    40    1
   107    39   102    1
   108    39   103    1
   109    40    41    1
   110    40   104    1
   111    40   105    1
   112    41    42    1
   113    41   106    1
   114    41   107    1
   115    42   108    1
   116    42   109    1
   117    42   110    1
   118    43   111    1
   119    43   112    1
   120    44    45    1
   121    44   113    1
   122    44   114    1
   123    45    46    1
   124    45   115    1
   125    46   116    1
   126    46   117    1
   127    46   118    1
   128   119   120    1
   129   119   164    1
   130   119   165    1
   131   119   166    1
   132   120   121    1
   133   120   167    1
   134   120   168    1
   135   121   122    1
   136   121   169    1
   137   121   170    1
   138   122   123    1
   139   122   171    1
   140   122   172    1
   141   123   124    1
   142   123   173    1
   143   123   174    1
   144   124   125    1
   145   124   175    1
   146   124   176    1
   147   125   126    1
   148   125   177    1
   149   125   178    1
   150   126   127    1
   151   126   179    1
   152   126   180    1
   153   127   128    1
   154   127   129    1
   155   127   130    1
   156   128   181    1
   157   128   182    1
   158   128   183    1
   159   129   184    1
   160   129   185    1
   161   129   186    1
   162   130   131    1
   163   131   132    1
   164   131   187    1
   165   131   188    1
   166   132   133    1
   167   132   162    1
   168   132   189    1
   169   133   134    1
   170   133   190    1
   171   133   191    1
   172   134   135    1
   173   134   161    1
   174   135   136    2
   175   135   137    1
   176   137   138    1
   177   137   192    1
   178   137   193    1
   179   138   139    1
   180   139   140    1
   181   139   194    1
   182   139   195    1
   183   140   141    2
   184   140   142    1
   185   142   143    1
   186   142   160    1
   187   143   144    1
   188   143   196    1
   189   143   197    1
   190   144   145    1
   191   144   146    1
   192   144   198    1
   193   145   199    1
   194   145   200    1
   195   145   201    1
   196   146   147    1
   197   146   160    1
   198   146   202    1
   199   147   148    1
   200   147   203    1
   201   147   204    1
   202   148   149    1
   203   149   150    1
   204   149   151    1
   205   149   152    1
   206   150   205    1
   207   150   206    1
   208   150   207    1
   209   151   208    1
   210   151   209    1
   211   151   210    1
   212   152   153    1
   213   152   211    1
   214   152   212    1
   215   153   154    1
   216   153   213    1
   217   153   214    1
   218   154   155    1
   219   154   215    1
   220   154   216    1
   221   155   156    1
   222   155   217    1
   223   155   218    1
   224   156   157    1
   225   156   219    1
   226   156   220    1
   227   157   158    1
   228   157   221    1
   229   157   222    1
   230   158   159    1
   231   158   223    1
   232   158   224    1
   233   159   225    1
   234   159   226    1
   235   159   227    1
   236   160   228    1
   237   160   229    1
   238   161   162    1
   239   161   230    1
   240   161   231    1
   241   162   163    1
   242   162   232    1
   243   163   233    1
   244   163   234    1
   245   163   235    1
   246   236   237    1
   247   236   281    1
   248   236   282    1
   249   236   283    1
   250   237   238    1
   251   237   284    1
   252   237   285    1
   253   238   239    1
   254   238   286    1
   255   238   287    1
   256   239   240    1
   257   239   288    1
   258   239   289    1
   259   240   241    1
   260   240   290    1
   261   240   291    1
   262   241   242    1
   263   241   292    1
   264   241   293    1
   265   242   243    1
   266   242   294    1
   267   242   295    1
   268   243   244    1
   269   243   296    1
   270   243   297    1
   271   244   245    1
   272   244   246    1
   273   244   247    1
   274   245   298    1
   275   245   299    1
   276   245   300    1
   277   246   301    1
   278   246   302    1
   279   246   303    1
   280   247   248    1
   281   248   249    1
   282   248   304    1
   283   248   305    1
   284   249   250    1
   285   249   279    1
   286   249   306    1
   287   250   251    1
   288   250   307    1
   289   250   308    1
   290   251   252    1
   291   251   278    1
   292   252   253    2
   293   252   254    1
   294   254   255    1
   295   254   309    1
   296   254   310    1
   297   255   256    1
   298   256   257    1
   299   256   311    1
   300   256   312    1
   301   257   258    2
   302   257   259    1
   303   259   260    1
   304   259   277    1
   305   260   261    1
   306   260   313    1
   307   260   314    1
   308   261   262    1
   309   261   263    1
   310   261   315    1
   311   262   316    1
   312   262   317    1
   313   262   318    1
   314   263   264    1
   315   263   277    1
   316   263   319    1
   317   264   265    1
   318   264   320    1
   319   264   321    1
   320   265   266    1
   321   266   267    1
   322   266   268    1
   323   266   269    1
   324   267   322    1
   325   267   323    1
   326   267   324    1
   327   268   325    1
   328   268   326    1
   329   268   327    1
   330   269   270    1
   331   269   328    1
   332   269   329    1
   333   270   271    1
   334   270   330    1
   335   270   331    1
   336   271   272    1
   337   271   332    1
   338   271   333    1
   339   272   273    1
   340   272   334    1
   341   272   335    1
   342   273   274    1
   343   273   336    1
   344   273   337    1
   345   274   275    1
   346   274   338    1
   347   274   339    1
   348   275   276    1
   349   275   340    1
   350   275   341    1
   351   276   342    1
   352   276   343    1
   353   276   344    1
   354   277   345    1
   355   277   346    1
   356   278   279    1
   357   278   347    1
   358   278   348    1
   359   279   280    1
   360   279   349    1
   361   280   350    1
   362   280   351    1
   363   280   352    1
@<TRIPOS>SUBSTRUCTURE
     1 RES1      352 GROUP             0 ****  ****    0  
