@<TRIPOS>MOLECULE
am_c3_9H2O_c0_0_nunpairedes_0_charge_3 Charge: 3 Unpaired_Electrons: 3 XTB_Unpaired_Electrons: 0 XTB_Charge: 3
   214   219     1     0     0
SMALL
NoCharges
****
Generated from Architector

@<TRIPOS>ATOM
     1 Nd1      -0.3194    0.1082    0.0149   Nd        1 RES1   0.0000
     2 C1        1.6121   -4.8723   -6.8388   C.3       1 RES1   0.0000
     3 C2        0.3859   -4.6250   -7.7149   C.3       1 RES1   0.0000
     4 C3       -0.6734   -3.7698   -6.9971   C.3       1 RES1   0.0000
     5 C4       -1.2908   -2.7307   -7.9377   C.3       1 RES1   0.0000
     6 C5       -2.6334   -2.1515   -7.4650   C.3       1 RES1   0.0000
     7 C6       -2.5381   -0.8960   -6.5695   C.3       1 RES1   0.0000
     8 C7       -3.6139   -0.9126   -5.4681   C.3       1 RES1   0.0000
     9 C8       -3.8599    0.3689   -4.6455   C.3       1 RES1   0.0000
    10 N1       -2.7034    0.8441   -3.8978   N.am      1 RES1   0.0000
    11 C9       -1.8115    1.6953   -4.6635   C.3       1 RES1   0.0000
    12 C10      -2.4136    0.5956   -2.6260   C.2       1 RES1   0.0000
    13 O1       -1.2913    0.8471   -2.1331   O.2       1 RES1   0.0000
    14 C11      -3.4882    0.0357   -1.6795   C.3       1 RES1   0.0000
    15 O2       -2.9669    0.0835   -0.3549   O.3       1 RES1   0.0000
    16 C12      -3.7569    0.7606    0.6257   C.3       1 RES1   0.0000
    17 C13      -2.8097    1.5603    1.5494   C.2       1 RES1   0.0000
    18 O3       -1.5932    1.4365    1.3405   O.2       1 RES1   0.0000
    19 N2       -3.3336    2.2828    2.5304   N.am      1 RES1   0.0000
    20 C14      -4.7561    2.5143    2.7047   C.3       1 RES1   0.0000
    21 C15      -2.5690    2.8610    3.6480   C.3       1 RES1   0.0000
    22 C16      -1.0958    3.1878    3.4335   C.3       1 RES1   0.0000
    23 C17      -0.8358    4.3274    2.4357   C.3       1 RES1   0.0000
    24 C18      -0.7433    5.7300    3.0733   C.3       1 RES1   0.0000
    25 C19      -1.9660    6.6280    2.8587   C.3       1 RES1   0.0000
    26 C20      -2.1236    7.1302    1.4195   C.3       1 RES1   0.0000
    27 C21      -1.2174    8.3066    1.0560   C.3       1 RES1   0.0000
    28 C22      -1.4038    8.7286   -0.3995   C.3       1 RES1   0.0000
    29 H1        2.3227   -5.5199   -7.3428   H         1 RES1   0.0000
    30 H2        1.3360   -5.3456   -5.8944   H         1 RES1   0.0000
    31 H3        2.1200   -3.9274   -6.6322   H         1 RES1   0.0000
    32 H4       -0.0582   -5.5745   -8.0224   H         1 RES1   0.0000
    33 H5        0.7142   -4.1083   -8.6172   H         1 RES1   0.0000
    34 H6       -0.1980   -3.2588   -6.1556   H         1 RES1   0.0000
    35 H7       -1.4511   -4.4293   -6.6013   H         1 RES1   0.0000
    36 H8       -0.5641   -1.9339   -8.1083   H         1 RES1   0.0000
    37 H9       -1.4577   -3.2205   -8.8947   H         1 RES1   0.0000
    38 H10      -3.1698   -2.9383   -6.9294   H         1 RES1   0.0000
    39 H11      -3.2284   -1.9110   -8.3442   H         1 RES1   0.0000
    40 H12      -2.6600   -0.0078   -7.1956   H         1 RES1   0.0000
    41 H13      -1.5382   -0.8614   -6.1328   H         1 RES1   0.0000
    42 H14      -3.4115   -1.7278   -4.7691   H         1 RES1   0.0000
    43 H15      -4.5691   -1.1228   -5.9458   H         1 RES1   0.0000
    44 H16      -4.6858    0.1652   -3.9623   H         1 RES1   0.0000
    45 H17      -4.1761    1.1756   -5.3120   H         1 RES1   0.0000
    46 H18      -2.3221    2.6267   -4.9110   H         1 RES1   0.0000
    47 H19      -1.5251    1.2176   -5.5911   H         1 RES1   0.0000
    48 H20      -0.9332    1.9206   -4.0713   H         1 RES1   0.0000
    49 H21      -3.7434   -1.0089   -1.9118   H         1 RES1   0.0000
    50 H22      -4.3907    0.6521   -1.7780   H         1 RES1   0.0000
    51 H23      -4.2708    0.0016    1.2374   H         1 RES1   0.0000
    52 H24      -4.4975    1.4225    0.1692   H         1 RES1   0.0000
    53 H25      -5.3608    1.8468    2.1035   H         1 RES1   0.0000
    54 H26      -4.9959    3.5470    2.4407   H         1 RES1   0.0000
    55 H27      -5.0221    2.3690    3.7524   H         1 RES1   0.0000
    56 H28      -2.6538    2.1475    4.4776   H         1 RES1   0.0000
    57 H29      -3.0915    3.7771    3.9336   H         1 RES1   0.0000
    58 H30      -0.5613    2.2931    3.1153   H         1 RES1   0.0000
    59 H31      -0.7041    3.4692    4.4123   H         1 RES1   0.0000
    60 H32      -1.6209    4.3214    1.6772   H         1 RES1   0.0000
    61 H33       0.1053    4.1095    1.9256   H         1 RES1   0.0000
    62 H34       0.1310    6.2439    2.6736   H         1 RES1   0.0000
    63 H35      -0.5851    5.6200    4.1463   H         1 RES1   0.0000
    64 H36      -1.8772    7.4887    3.5224   H         1 RES1   0.0000
    65 H37      -2.8680    6.0874    3.1552   H         1 RES1   0.0000
    66 H38      -3.1606    7.4404    1.2704   H         1 RES1   0.0000
    67 H39      -1.9163    6.3106    0.7273   H         1 RES1   0.0000
    68 H40      -0.1710    8.0400    1.2206   H         1 RES1   0.0000
    69 H41      -1.4521    9.1539    1.7010   H         1 RES1   0.0000
    70 H42      -1.1173    7.9258   -1.0799   H         1 RES1   0.0000
    71 H43      -0.7902    9.5975   -0.6232   H         1 RES1   0.0000
    72 H44      -2.4422    8.9879   -0.5984   H         1 RES1   0.0000
    73 C23       2.0342   -6.2114    4.9123   C.3       1 RES1   0.0000
    74 C24       2.8880   -5.9647    3.6718   C.3       1 RES1   0.0000
    75 C25       4.3084   -5.5595    4.0694   C.3       1 RES1   0.0000
    76 C26       5.3252   -5.4990    2.9205   C.3       1 RES1   0.0000
    77 C27       5.5197   -4.1407    2.2328   C.3       1 RES1   0.0000
    78 C28       4.3813   -3.7119    1.3005   C.3       1 RES1   0.0000
    79 C29       4.8405   -2.7314    0.2108   C.3       1 RES1   0.0000
    80 C30       5.1160   -1.2931    0.6684   C.3       1 RES1   0.0000
    81 N3        3.9244   -0.6542    1.2131   N.am      1 RES1   0.0000
    82 C31       3.7675   -0.6266    2.6599   C.3       1 RES1   0.0000
    83 C32       2.9349   -0.1495    0.4890   C.2       1 RES1   0.0000
    84 O4        1.8471    0.1961    0.9932   O.2       1 RES1   0.0000
    85 C33       3.1252    0.0620   -1.0242   C.3       1 RES1   0.0000
    86 O5        1.9390    0.6531   -1.5333   O.3       1 RES1   0.0000
    87 C34       2.0367    1.9771   -2.0587   C.3       1 RES1   0.0000
    88 C35       0.8445    2.7828   -1.5003   C.2       1 RES1   0.0000
    89 O6        0.2604    2.3250   -0.5047   O.2       1 RES1   0.0000
    90 N4        0.4902    3.9178   -2.0878   N.am      1 RES1   0.0000
    91 C36       1.1796    4.5302   -3.2011   C.3       1 RES1   0.0000
    92 C37      -0.6329    4.6862   -1.5517   C.3       1 RES1   0.0000
    93 C38      -1.9659    4.3456   -2.2254   C.3       1 RES1   0.0000
    94 C39      -3.0959    5.2377   -1.7053   C.3       1 RES1   0.0000
    95 C40      -4.5012    4.7810   -2.1049   C.3       1 RES1   0.0000
    96 C41      -4.8989    3.5007   -1.3725   C.3       1 RES1   0.0000
    97 C42      -6.4050    3.1941   -1.3664   C.3       1 RES1   0.0000
    98 C43      -6.8853    2.1480   -2.3772   C.3       1 RES1   0.0000
    99 C44      -6.7413    2.5367   -3.8448   C.3       1 RES1   0.0000
   100 H45       1.0157   -6.4806    4.6457   H         1 RES1   0.0000
   101 H46       2.0070   -5.3289    5.5478   H         1 RES1   0.0000
   102 H47       2.4524   -7.0273    5.4941   H         1 RES1   0.0000
   103 H48       2.4318   -5.1858    3.0510   H         1 RES1   0.0000
   104 H49       2.9312   -6.8819    3.0793   H         1 RES1   0.0000
   105 H50       4.6598   -6.3041    4.7854   H         1 RES1   0.0000
   106 H51       4.2823   -4.6008    4.5935   H         1 RES1   0.0000
   107 H52       5.0745   -6.2540    2.1716   H         1 RES1   0.0000
   108 H53       6.2984   -5.7724    3.3312   H         1 RES1   0.0000
   109 H54       6.4281   -4.2259    1.6323   H         1 RES1   0.0000
   110 H55       5.7036   -3.3829    2.9964   H         1 RES1   0.0000
   111 H56       3.5470   -3.2952    1.8673   H         1 RES1   0.0000
   112 H57       4.0204   -4.6081    0.7903   H         1 RES1   0.0000
   113 H58       4.0900   -2.6967   -0.5846   H         1 RES1   0.0000
   114 H59       5.7622   -3.1217   -0.2225   H         1 RES1   0.0000
   115 H60       5.4871   -0.7159   -0.1809   H         1 RES1   0.0000
   116 H61       5.8939   -1.2882    1.4330   H         1 RES1   0.0000
   117 H62       4.5643   -1.1909    3.1340   H         1 RES1   0.0000
   118 H63       2.8064   -1.0515    2.9443   H         1 RES1   0.0000
   119 H64       3.7906    0.4035    3.0224   H         1 RES1   0.0000
   120 H65       3.2707   -0.8877   -1.5525   H         1 RES1   0.0000
   121 H66       4.0025    0.6900   -1.2097   H         1 RES1   0.0000
   122 H67       2.0004    1.9101   -3.1561   H         1 RES1   0.0000
   123 H68       2.9706    2.4768   -1.7674   H         1 RES1   0.0000
   124 H69       1.9841    3.9089   -3.5745   H         1 RES1   0.0000
   125 H70       1.6067    5.4854   -2.8928   H         1 RES1   0.0000
   126 H71       0.4694    4.7161   -4.0052   H         1 RES1   0.0000
   127 H72      -0.4047    5.7433   -1.6916   H         1 RES1   0.0000
   128 H73      -0.6908    4.4801   -0.4810   H         1 RES1   0.0000
   129 H74      -2.1865    3.2939   -2.0361   H         1 RES1   0.0000
   130 H75      -1.8769    4.4921   -3.3021   H         1 RES1   0.0000
   131 H76      -2.9399    6.2540   -2.0679   H         1 RES1   0.0000
   132 H77      -3.0628    5.2630   -0.6146   H         1 RES1   0.0000
   133 H78      -4.5797    4.6469   -3.1828   H         1 RES1   0.0000
   134 H79      -5.1971    5.5690   -1.8212   H         1 RES1   0.0000
   135 H80      -4.5635    3.6151   -0.3386   H         1 RES1   0.0000
   136 H81      -4.3424    2.6717   -1.8103   H         1 RES1   0.0000
   137 H82      -6.9532    4.1206   -1.5246   H         1 RES1   0.0000
   138 H83      -6.6867    2.8301   -0.3753   H         1 RES1   0.0000
   139 H84      -7.9423    1.9645   -2.1815   H         1 RES1   0.0000
   140 H85      -6.3646    1.1990   -2.1963   H         1 RES1   0.0000
   141 H86      -7.3555    3.4057   -4.0637   H         1 RES1   0.0000
   142 H87      -7.0838    1.7223   -4.4816   H         1 RES1   0.0000
   143 H88      -5.7097    2.7645   -4.1062   H         1 RES1   0.0000
   144 C45       5.5470   -0.7795   -6.6521   C.3       1 RES1   0.0000
   145 C46       4.4276   -0.4056   -5.6879   C.3       1 RES1   0.0000
   146 C47       3.0548   -0.7009   -6.2983   C.3       1 RES1   0.0000
   147 C48       1.8753   -0.5014   -5.3382   C.3       1 RES1   0.0000
   148 C49       1.7058   -1.6654   -4.3589   C.3       1 RES1   0.0000
   149 C50       0.6538   -1.4024   -3.2682   C.3       1 RES1   0.0000
   150 C51      -0.7272   -2.0175   -3.5218   C.3       1 RES1   0.0000
   151 C52      -0.8837   -3.5068   -3.2068   C.3       1 RES1   0.0000
   152 N5       -0.0551   -3.9257   -2.0821   N.am      1 RES1   0.0000
   153 C53       0.8282   -5.0566   -2.2945   C.3       1 RES1   0.0000
   154 C54      -0.0153   -3.1690   -0.9884   C.2       1 RES1   0.0000
   155 O7       -0.7547   -2.1823   -0.7926   O.2       1 RES1   0.0000
   156 C55       1.0844   -3.4715    0.0321   C.3       1 RES1   0.0000
   157 O8        1.1266   -2.4623    1.0203   O.3       1 RES1   0.0000
   158 C56       0.6316   -2.8189    2.3029   C.3       1 RES1   0.0000
   159 C57      -0.7064   -2.1455    2.5909   C.2       1 RES1   0.0000
   160 O9       -1.0733   -1.1933    1.8769   O.2       1 RES1   0.0000
   161 N6       -1.4069   -2.6144    3.6184   N.am      1 RES1   0.0000
   162 C58      -0.9325   -3.6521    4.5098   C.3       1 RES1   0.0000
   163 C59      -2.7607   -2.1328    3.8520   C.3       1 RES1   0.0000
   164 C60      -3.8027   -3.2292    3.6220   C.3       1 RES1   0.0000
   165 C61      -3.7656   -3.8100    2.2017   C.3       1 RES1   0.0000
   166 C62      -5.1575   -4.1929    1.6776   C.3       1 RES1   0.0000
   167 C63      -6.0249   -2.9976    1.2654   C.3       1 RES1   0.0000
   168 C64      -5.5855   -2.2877   -0.0226   C.3       1 RES1   0.0000
   169 C65      -6.2436   -2.8072   -1.3051   C.3       1 RES1   0.0000
   170 C66      -5.9063   -4.2480   -1.6648   C.3       1 RES1   0.0000
   171 H89       6.5158   -0.5231   -6.2357   H         1 RES1   0.0000
   172 H90       5.5392   -1.8448   -6.8662   H         1 RES1   0.0000
   173 H91       5.4258   -0.2467   -7.5890   H         1 RES1   0.0000
   174 H92       4.5647   -0.9561   -4.7535   H         1 RES1   0.0000
   175 H93       4.4868    0.6611   -5.4548   H         1 RES1   0.0000
   176 H94       2.9265   -0.0397   -7.1573   H         1 RES1   0.0000
   177 H95       3.0476   -1.7257   -6.6753   H         1 RES1   0.0000
   178 H96       2.0205    0.4296   -4.7816   H         1 RES1   0.0000
   179 H97       0.9602   -0.3864   -5.9238   H         1 RES1   0.0000
   180 H98       1.4287   -2.5593   -4.9162   H         1 RES1   0.0000
   181 H99       2.6716   -1.8688   -3.8919   H         1 RES1   0.0000
   182 H100      1.0585   -1.7493   -2.3106   H         1 RES1   0.0000
   183 H101      0.4956   -0.3258   -3.1586   H         1 RES1   0.0000
   184 H102     -1.4493   -1.4719   -2.9208   H         1 RES1   0.0000
   185 H103     -0.9744   -1.8809   -4.5683   H         1 RES1   0.0000
   186 H104     -1.9364   -3.7197   -2.9858   H         1 RES1   0.0000
   187 H105     -0.5983   -4.1094   -4.0691   H         1 RES1   0.0000
   188 H106      0.8056   -5.3325   -3.3440   H         1 RES1   0.0000
   189 H107      1.8593   -4.8098   -2.0538   H         1 RES1   0.0000
   190 H108      0.5267   -5.9296   -1.7137   H         1 RES1   0.0000
   191 H109      0.9681   -4.4711    0.4608   H         1 RES1   0.0000
   192 H110      2.0529   -3.4349   -0.4780   H         1 RES1   0.0000
   193 H111      0.5406   -3.9042    2.3926   H         1 RES1   0.0000
   194 H112      1.3548   -2.4682    3.0548   H         1 RES1   0.0000
   195 H113      0.1145   -3.5069    4.7710   H         1 RES1   0.0000
   196 H114     -1.5118   -3.6037    5.4304   H         1 RES1   0.0000
   197 H115     -1.0552   -4.6499    4.0807   H         1 RES1   0.0000
   198 H116     -2.8311   -1.7553    4.8750   H         1 RES1   0.0000
   199 H117     -2.9218   -1.3062    3.1600   H         1 RES1   0.0000
   200 H118     -3.6618   -4.0315    4.3427   H         1 RES1   0.0000
   201 H119     -4.7828   -2.8011    3.8303   H         1 RES1   0.0000
   202 H120     -3.2972   -3.0953    1.5188   H         1 RES1   0.0000
   203 H121     -3.1501   -4.7124    2.1992   H         1 RES1   0.0000
   204 H122     -5.0395   -4.8651    0.8276   H         1 RES1   0.0000
   205 H123     -5.6810   -4.7468    2.4613   H         1 RES1   0.0000
   206 H124     -7.0546   -3.3349    1.1441   H         1 RES1   0.0000
   207 H125     -6.0255   -2.2761    2.0860   H         1 RES1   0.0000
   208 H126     -5.8603   -1.2316    0.0655   H         1 RES1   0.0000
   209 H127     -4.4960   -2.3438   -0.1157   H         1 RES1   0.0000
   210 H128     -7.3250   -2.7095   -1.2054   H         1 RES1   0.0000
   211 H129     -5.9343   -2.1569   -2.1308   H         1 RES1   0.0000
   212 H130     -6.3797   -4.9400   -0.9756   H         1 RES1   0.0000
   213 H131     -6.2731   -4.4737   -2.6625   H         1 RES1   0.0000
   214 H132     -4.8297   -4.4128   -1.6527   H         1 RES1   0.0000
@<TRIPOS>BOND
     1     1    13    1
     2     1    15    1
     3     1    18    1
     4     1    84    1
     5     1    86    1
     6     1    89    1
     7     1   155    1
     8     1   157    1
     9     1   160    1
    10     2     3    1
    11     2    29    1
    12     2    30    1
    13     2    31    1
    14     3     4    1
    15     3    32    1
    16     3    33    1
    17     4     5    1
    18     4    34    1
    19     4    35    1
    20     5     6    1
    21     5    36    1
    22     5    37    1
    23     6     7    1
    24     6    38    1
    25     6    39    1
    26     7     8    1
    27     7    40    1
    28     7    41    1
    29     8     9    1
    30     8    42    1
    31     8    43    1
    32     9    10    1
    33     9    44    1
    34     9    45    1
    35    10    11    1
    36    10    12    1
    37    11    46    1
    38    11    47    1
    39    11    48    1
    40    12    13    2
    41    12    14    1
    42    14    15    1
    43    14    49    1
    44    14    50    1
    45    15    16    1
    46    16    17    1
    47    16    51    1
    48    16    52    1
    49    17    18    2
    50    17    19    1
    51    19    20    1
    52    19    21    1
    53    20    53    1
    54    20    54    1
    55    20    55    1
    56    21    22    1
    57    21    56    1
    58    21    57    1
    59    22    23    1
    60    22    58    1
    61    22    59    1
    62    23    24    1
    63    23    60    1
    64    23    61    1
    65    24    25    1
    66    24    62    1
    67    24    63    1
    68    25    26    1
    69    25    64    1
    70    25    65    1
    71    26    27    1
    72    26    66    1
    73    26    67    1
    74    27    28    1
    75    27    68    1
    76    27    69    1
    77    28    70    1
    78    28    71    1
    79    28    72    1
    80    73    74    1
    81    73   100    1
    82    73   101    1
    83    73   102    1
    84    74    75    1
    85    74   103    1
    86    74   104    1
    87    75    76    1
    88    75   105    1
    89    75   106    1
    90    76    77    1
    91    76   107    1
    92    76   108    1
    93    77    78    1
    94    77   109    1
    95    77   110    1
    96    78    79    1
    97    78   111    1
    98    78   112    1
    99    79    80    1
   100    79   113    1
   101    79   114    1
   102    80    81    1
   103    80   115    1
   104    80   116    1
   105    81    82    1
   106    81    83    1
   107    82   117    1
   108    82   118    1
   109    82   119    1
   110    83    84    2
   111    83    85    1
   112    85    86    1
   113    85   120    1
   114    85   121    1
   115    86    87    1
   116    87    88    1
   117    87   122    1
   118    87   123    1
   119    88    89    2
   120    88    90    1
   121    90    91    1
   122    90    92    1
   123    91   124    1
   124    91   125    1
   125    91   126    1
   126    92    93    1
   127    92   127    1
   128    92   128    1
   129    93    94    1
   130    93   129    1
   131    93   130    1
   132    94    95    1
   133    94   131    1
   134    94   132    1
   135    95    96    1
   136    95   133    1
   137    95   134    1
   138    96    97    1
   139    96   135    1
   140    96   136    1
   141    97    98    1
   142    97   137    1
   143    97   138    1
   144    98    99    1
   145    98   139    1
   146    98   140    1
   147    99   141    1
   148    99   142    1
   149    99   143    1
   150   144   145    1
   151   144   171    1
   152   144   172    1
   153   144   173    1
   154   145   146    1
   155   145   174    1
   156   145   175    1
   157   146   147    1
   158   146   176    1
   159   146   177    1
   160   147   148    1
   161   147   178    1
   162   147   179    1
   163   148   149    1
   164   148   180    1
   165   148   181    1
   166   149   150    1
   167   149   182    1
   168   149   183    1
   169   150   151    1
   170   150   184    1
   171   150   185    1
   172   151   152    1
   173   151   186    1
   174   151   187    1
   175   152   153    1
   176   152   154    1
   177   153   188    1
   178   153   189    1
   179   153   190    1
   180   154   155    2
   181   154   156    1
   182   156   157    1
   183   156   191    1
   184   156   192    1
   185   157   158    1
   186   158   159    1
   187   158   193    1
   188   158   194    1
   189   159   160    2
   190   159   161    1
   191   161   162    1
   192   161   163    1
   193   162   195    1
   194   162   196    1
   195   162   197    1
   196   163   164    1
   197   163   198    1
   198   163   199    1
   199   164   165    1
   200   164   200    1
   201   164   201    1
   202   165   166    1
   203   165   202    1
   204   165   203    1
   205   166   167    1
   206   166   204    1
   207   166   205    1
   208   167   168    1
   209   167   206    1
   210   167   207    1
   211   168   169    1
   212   168   208    1
   213   168   209    1
   214   169   170    1
   215   169   210    1
   216   169   211    1
   217   170   212    1
   218   170   213    1
   219   170   214    1
@<TRIPOS>SUBSTRUCTURE
     1 RES1      214 GROUP             0 ****  ****    0  
