@<TRIPOS>MOLECULE
am_c3_9H2O_c0_0_nunpairedes_0_charge_3 Charge: 3 Unpaired_Electrons: 3 XTB_Unpaired_Electrons: 0 XTB_Charge: 3
   160   171     1     0     0
SMALL
NoCharges
****
Generated from Architector

@<TRIPOS>ATOM
     1 Nd1      -0.0068    0.0078   -0.0216   Nd        1 RES1   0.0000
     2 C1       -4.3782    3.3957    0.1364   C.3       1 RES1   0.0000
     3 C2       -4.7439    2.5413   -1.0709   C.3       1 RES1   0.0000
     4 C3       -4.2981    3.1973   -2.3753   C.3       1 RES1   0.0000
     5 C4       -2.8126    3.0239   -2.6910   C.3       1 RES1   0.0000
     6 N1       -1.8750    3.6729   -1.7617   N.am      1 RES1   0.0000
     7 C5       -1.7990    5.1175   -1.9228   C.3       1 RES1   0.0000
     8 C6       -0.5053    5.5617   -2.6136   C.3       1 RES1   0.0000
     9 C7       -0.3204    4.9660   -4.0072   C.3       1 RES1   0.0000
    10 C8        0.0851    3.4948   -4.0058   C.3       1 RES1   0.0000
    11 C9       -1.0104    2.8823   -1.1218   C.2       1 RES1   0.0000
    12 O1       -1.0477    1.6466   -1.3227   O.2       1 RES1   0.0000
    13 C10      -0.0019    3.3340   -0.0822   C.ar      1 RES1   0.0000
    14 C11       0.2361    4.6272    0.4102   C.ar      1 RES1   0.0000
    15 C12       1.1432    4.7974    1.4314   C.ar      1 RES1   0.0000
    16 C13       1.7864    3.6944    2.0110   C.ar      1 RES1   0.0000
    17 C14       2.6603    3.8121    3.1284   C.ar      1 RES1   0.0000
    18 C15       3.1804    2.7067    3.7195   C.ar      1 RES1   0.0000
    19 C16       2.8851    1.4039    3.2205   C.ar      1 RES1   0.0000
    20 C17       3.3202    0.2287    3.8508   C.ar      1 RES1   0.0000
    21 C18       2.9331   -1.0053    3.3794   C.ar      1 RES1   0.0000
    22 C19       2.1883   -1.0819    2.1885   C.ar      1 RES1   0.0000
    23 C20       1.5982   -2.3069    1.5064   C.2       1 RES1   0.0000
    24 O2        0.7809   -2.0727    0.5851   O.2       1 RES1   0.0000
    25 N2        1.8179   -3.5724    1.8657   N.am      1 RES1   0.0000
    26 C21       2.9142   -4.1476    2.6380   C.3       1 RES1   0.0000
    27 C22       2.5241   -4.9515    3.8950   C.3       1 RES1   0.0000
    28 C23       1.8501   -4.2052    5.0471   C.3       1 RES1   0.0000
    29 C24       0.4226   -3.7625    4.7511   C.3       1 RES1   0.0000
    30 C25       0.9796   -4.5770    1.1975   C.3       1 RES1   0.0000
    31 C26       1.3966   -4.8372   -0.2570   C.3       1 RES1   0.0000
    32 C27       0.5044   -5.8826   -0.9292   C.3       1 RES1   0.0000
    33 C28       0.9700   -6.1612   -2.3527   C.3       1 RES1   0.0000
    34 N3        1.8104    0.0319    1.5592   N.ar      1 RES1   0.0000
    35 C29       2.0812    1.2430    2.0660   C.ar      1 RES1   0.0000
    36 C30       1.4939    2.4226    1.4582   C.ar      1 RES1   0.0000
    37 N4        0.6420    2.2842    0.4338   N.ar      1 RES1   0.0000
    38 H1       -4.7458    2.9385    1.0523   H         1 RES1   0.0000
    39 H2       -4.8410    4.3744    0.0477   H         1 RES1   0.0000
    40 H3       -3.3011    3.5311    0.2010   H         1 RES1   0.0000
    41 H4       -5.8263    2.4037   -1.1068   H         1 RES1   0.0000
    42 H5       -4.2816    1.5520   -0.9906   H         1 RES1   0.0000
    43 H6       -4.5696    4.2530   -2.3609   H         1 RES1   0.0000
    44 H7       -4.8224    2.7358   -3.2158   H         1 RES1   0.0000
    45 H8       -2.6341    3.4442   -3.6842   H         1 RES1   0.0000
    46 H9       -2.5910    1.9523   -2.7099   H         1 RES1   0.0000
    47 H10      -1.9449    5.6278   -0.9682   H         1 RES1   0.0000
    48 H11      -2.6512    5.4020   -2.5412   H         1 RES1   0.0000
    49 H12       0.3679    5.2802   -2.0220   H         1 RES1   0.0000
    50 H13      -0.5387    6.6487   -2.6885   H         1 RES1   0.0000
    51 H14       0.4621    5.5369   -4.5116   H         1 RES1   0.0000
    52 H15      -1.2223    5.1002   -4.6051   H         1 RES1   0.0000
    53 H16       1.0395    3.3624   -3.5021   H         1 RES1   0.0000
    54 H17       0.1736    3.1817   -5.0359   H         1 RES1   0.0000
    55 H18      -0.6215    2.8293   -3.5250   H         1 RES1   0.0000
    56 H19      -0.2694    5.4944    0.0285   H         1 RES1   0.0000
    57 H20       1.3447    5.7862    1.8150   H         1 RES1   0.0000
    58 H21       2.8736    4.8043    3.4974   H         1 RES1   0.0000
    59 H22       3.8201    2.7878    4.5863   H         1 RES1   0.0000
    60 H23       3.9270    0.3131    4.7403   H         1 RES1   0.0000
    61 H24       3.2035   -1.8719    3.9570   H         1 RES1   0.0000
    62 H25       3.6463   -3.3832    2.8906   H         1 RES1   0.0000
    63 H26       3.4179   -4.8466    1.9573   H         1 RES1   0.0000
    64 H27       3.4625   -5.3682    4.2648   H         1 RES1   0.0000
    65 H28       1.8982   -5.8044    3.6286   H         1 RES1   0.0000
    66 H29       2.4552   -3.3497    5.3482   H         1 RES1   0.0000
    67 H30       1.8224   -4.8851    5.9012   H         1 RES1   0.0000
    68 H31       0.3884   -3.0115    3.9633   H         1 RES1   0.0000
    69 H32      -0.0189   -3.3445    5.6526   H         1 RES1   0.0000
    70 H33      -0.1779   -4.6169    4.4474   H         1 RES1   0.0000
    71 H34      -0.0595   -4.2296    1.2230   H         1 RES1   0.0000
    72 H35       1.0440   -5.5030    1.7714   H         1 RES1   0.0000
    73 H36       2.4327   -5.1859   -0.2791   H         1 RES1   0.0000
    74 H37       1.3390   -3.8984   -0.8171   H         1 RES1   0.0000
    75 H38      -0.5275   -5.5224   -0.9457   H         1 RES1   0.0000
    76 H39       0.5296   -6.8124   -0.3578   H         1 RES1   0.0000
    77 H40       0.9654   -5.2506   -2.9490   H         1 RES1   0.0000
    78 H41       0.3153   -6.8851   -2.8266   H         1 RES1   0.0000
    79 H42       1.9777   -6.5680   -2.3532   H         1 RES1   0.0000
    80 C31      -0.6395    3.4343    5.2471   C.3       1 RES1   0.0000
    81 C32      -0.8161    2.1001    4.5337   C.3       1 RES1   0.0000
    82 C33      -1.2706    0.9844    5.4723   C.3       1 RES1   0.0000
    83 C34      -1.3279   -0.3955    4.8066   C.3       1 RES1   0.0000
    84 N5       -2.3777   -0.5951    3.7976   N.am      1 RES1   0.0000
    85 C35      -3.7190   -0.7513    4.3506   C.3       1 RES1   0.0000
    86 C36      -4.7476    0.2704    3.8435   C.3       1 RES1   0.0000
    87 C37      -4.5777    1.6757    4.4255   C.3       1 RES1   0.0000
    88 C38      -5.7515    2.5635    4.0344   C.3       1 RES1   0.0000
    89 C39      -1.9687   -0.7454    2.5332   C.2       1 RES1   0.0000
    90 O3       -0.7795   -0.4762    2.2524   O.2       1 RES1   0.0000
    91 C40      -2.8130   -1.2203    1.3618   C.ar      1 RES1   0.0000
    92 C41      -4.0864   -1.8085    1.3945   C.ar      1 RES1   0.0000
    93 C42      -4.6739   -2.1798    0.2067   C.ar      1 RES1   0.0000
    94 C43      -3.9984   -2.0150   -1.0113   C.ar      1 RES1   0.0000
    95 C44      -4.5808   -2.3849   -2.2557   C.ar      1 RES1   0.0000
    96 C45      -3.9020   -2.2119   -3.4167   C.ar      1 RES1   0.0000
    97 C46      -2.5838   -1.6726   -3.4152   C.ar      1 RES1   0.0000
    98 C47      -1.8620   -1.4552   -4.5984   C.ar      1 RES1   0.0000
    99 C48      -0.6184   -0.8684   -4.5630   C.ar      1 RES1   0.0000
   100 C49      -0.0453   -0.5714   -3.3160   C.ar      1 RES1   0.0000
   101 C50       1.2963    0.0753   -3.0183   C.2       1 RES1   0.0000
   102 O4        1.5273    0.2581   -1.7965   O.2       1 RES1   0.0000
   103 N6        2.1983    0.4480   -3.9303   N.am      1 RES1   0.0000
   104 C51       2.2130    0.2663   -5.3833   C.3       1 RES1   0.0000
   105 C52       1.4780    1.3176   -6.2394   C.3       1 RES1   0.0000
   106 C53       2.1970    2.6732   -6.3359   C.3       1 RES1   0.0000
   107 C54       1.4333    3.6630   -7.2172   C.3       1 RES1   0.0000
   108 C55       3.4657    0.9708   -3.4061   C.3       1 RES1   0.0000
   109 C56       4.6454   -0.0052   -3.5325   C.3       1 RES1   0.0000
   110 C57       4.5223   -1.3125   -2.7424   C.3       1 RES1   0.0000
   111 C58       3.5518   -2.3253   -3.3461   C.3       1 RES1   0.0000
   112 N7       -0.6973   -0.8430   -2.1835   N.ar      1 RES1   0.0000
   113 C59      -1.9477   -1.3213   -2.1990   C.ar      1 RES1   0.0000
   114 C60      -2.6893   -1.4705   -0.9572   C.ar      1 RES1   0.0000
   115 N8       -2.1544   -1.0742    0.2070   N.ar      1 RES1   0.0000
   116 H43      -0.3464    4.2035    4.5353   H         1 RES1   0.0000
   117 H44       0.1264    3.3703    6.0154   H         1 RES1   0.0000
   118 H45      -1.5709    3.7446    5.7155   H         1 RES1   0.0000
   119 H46       0.1231    1.8083    4.0582   H         1 RES1   0.0000
   120 H47      -1.5735    2.2388    3.7554   H         1 RES1   0.0000
   121 H48      -2.2329    1.2469    5.9120   H         1 RES1   0.0000
   122 H49      -0.5576    0.8938    6.2952   H         1 RES1   0.0000
   123 H50      -1.4996   -1.1528    5.5765   H         1 RES1   0.0000
   124 H51      -0.3621   -0.5904    4.3326   H         1 RES1   0.0000
   125 H52      -3.6282   -0.6176    5.4305   H         1 RES1   0.0000
   126 H53      -4.0667   -1.7795    4.1991   H         1 RES1   0.0000
   127 H54      -5.7354   -0.0915    4.1367   H         1 RES1   0.0000
   128 H55      -4.7277    0.3232    2.7511   H         1 RES1   0.0000
   129 H56      -3.6502    2.1237    4.0642   H         1 RES1   0.0000
   130 H57      -4.5354    1.6202    5.5147   H         1 RES1   0.0000
   131 H58      -5.8413    2.6400    2.9523   H         1 RES1   0.0000
   132 H59      -5.6253    3.5635    4.4362   H         1 RES1   0.0000
   133 H60      -6.6799    2.1584    4.4273   H         1 RES1   0.0000
   134 H61      -4.6204   -1.9828    2.3106   H         1 RES1   0.0000
   135 H62      -5.6651   -2.6070    0.2014   H         1 RES1   0.0000
   136 H63      -5.5746   -2.8061   -2.2413   H         1 RES1   0.0000
   137 H64      -4.3441   -2.4758   -4.3660   H         1 RES1   0.0000
   138 H65      -2.3114   -1.7297   -5.5406   H         1 RES1   0.0000
   139 H66      -0.1263   -0.6622   -5.4944   H         1 RES1   0.0000
   140 H67       1.8776   -0.7448   -5.6305   H         1 RES1   0.0000
   141 H68       3.2592    0.3224   -5.6855   H         1 RES1   0.0000
   142 H69       0.4546    1.4501   -5.8817   H         1 RES1   0.0000
   143 H70       1.4147    0.9073   -7.2507   H         1 RES1   0.0000
   144 H71       3.1918    2.5325   -6.7619   H         1 RES1   0.0000
   145 H72       2.3337    3.1067   -5.3443   H         1 RES1   0.0000
   146 H73       1.3962    3.3231   -8.2480   H         1 RES1   0.0000
   147 H74       1.9224    4.6326   -7.2022   H         1 RES1   0.0000
   148 H75       0.4078    3.8120   -6.8829   H         1 RES1   0.0000
   149 H76       3.3277    1.2229   -2.3517   H         1 RES1   0.0000
   150 H77       3.6982    1.8885   -3.9525   H         1 RES1   0.0000
   151 H78       5.5135    0.5479   -3.1670   H         1 RES1   0.0000
   152 H79       4.8389   -0.2484   -4.5792   H         1 RES1   0.0000
   153 H80       4.2313   -1.0923   -1.7126   H         1 RES1   0.0000
   154 H81       5.5153   -1.7658   -2.7182   H         1 RES1   0.0000
   155 H82       2.5219   -1.9771   -3.2915   H         1 RES1   0.0000
   156 H83       3.6114   -3.2668   -2.8057   H         1 RES1   0.0000
   157 H84       3.8053   -2.5237   -4.3852   H         1 RES1   0.0000
   158 O5       -1.9740    1.7155    1.2215   O.3       1 RES1   0.0000
   159 H85      -1.7357    1.9685    2.1295   H         1 RES1   0.0000
   160 H86      -2.9251    1.5359    1.2248   H         1 RES1   0.0000
@<TRIPOS>BOND
     1     1    12    1
     2     1    24    1
     3     1    34    1
     4     1    37    1
     5     1    90    1
     6     1   102    1
     7     1   112    1
     8     1   115    1
     9     1   158    1
    10     2     3    1
    11     2    38    1
    12     2    39    1
    13     2    40    1
    14     3     4    1
    15     3    41    1
    16     3    42    1
    17     4     5    1
    18     4    43    1
    19     4    44    1
    20     5     6    1
    21     5    45    1
    22     5    46    1
    23     6     7    1
    24     6    11    1
    25     7     8    1
    26     7    47    1
    27     7    48    1
    28     8     9    1
    29     8    49    1
    30     8    50    1
    31     9    10    1
    32     9    51    1
    33     9    52    1
    34    10    53    1
    35    10    54    1
    36    10    55    1
    37    11    12    2
    38    11    13    1
    39    13    14    1
    40    13    37    2
    41    14    15    2
    42    14    56    1
    43    15    16    1
    44    15    57    1
    45    16    17    1
    46    16    36    2
    47    17    18    2
    48    17    58    1
    49    18    19    1
    50    18    59    1
    51    19    20    1
    52    19    35    2
    53    20    21    2
    54    20    60    1
    55    21    22    1
    56    21    61    1
    57    22    23    1
    58    22    34    2
    59    23    24    2
    60    23    25    1
    61    25    26    1
    62    25    30    1
    63    26    27    1
    64    26    62    1
    65    26    63    1
    66    27    28    1
    67    27    64    1
    68    27    65    1
    69    28    29    1
    70    28    66    1
    71    28    67    1
    72    29    68    1
    73    29    69    1
    74    29    70    1
    75    30    31    1
    76    30    71    1
    77    30    72    1
    78    31    32    1
    79    31    73    1
    80    31    74    1
    81    32    33    1
    82    32    75    1
    83    32    76    1
    84    33    77    1
    85    33    78    1
    86    33    79    1
    87    34    35    1
    88    35    36    1
    89    36    37    1
    90    80    81    1
    91    80   116    1
    92    80   117    1
    93    80   118    1
    94    81    82    1
    95    81   119    1
    96    81   120    1
    97    82    83    1
    98    82   121    1
    99    82   122    1
   100    83    84    1
   101    83   123    1
   102    83   124    1
   103    84    85    1
   104    84    89    1
   105    85    86    1
   106    85   125    1
   107    85   126    1
   108    86    87    1
   109    86   127    1
   110    86   128    1
   111    87    88    1
   112    87   129    1
   113    87   130    1
   114    88   131    1
   115    88   132    1
   116    88   133    1
   117    89    90    2
   118    89    91    1
   119    91    92    1
   120    91   115    2
   121    92    93    2
   122    92   134    1
   123    93    94    1
   124    93   135    1
   125    94    95    1
   126    94   114    2
   127    95    96    2
   128    95   136    1
   129    96    97    1
   130    96   137    1
   131    97    98    1
   132    97   113    2
   133    98    99    2
   134    98   138    1
   135    99   100    1
   136    99   139    1
   137   100   101    1
   138   100   112    2
   139   101   102    2
   140   101   103    1
   141   103   104    1
   142   103   108    1
   143   104   105    1
   144   104   140    1
   145   104   141    1
   146   105   106    1
   147   105   142    1
   148   105   143    1
   149   106   107    1
   150   106   144    1
   151   106   145    1
   152   107   146    1
   153   107   147    1
   154   107   148    1
   155   108   109    1
   156   108   149    1
   157   108   150    1
   158   109   110    1
   159   109   151    1
   160   109   152    1
   161   110   111    1
   162   110   153    1
   163   110   154    1
   164   111   155    1
   165   111   156    1
   166   111   157    1
   167   112   113    1
   168   113   114    1
   169   114   115    1
   170   158   159    1
   171   158   160    1
@<TRIPOS>SUBSTRUCTURE
     1 RES1      160 GROUP             0 ****  ****    0  
