@<TRIPOS>MOLECULE
am_c3_9H2O_c0_0_nunpairedes_0_charge_3 Charge: 3 Unpaired_Electrons: 3 XTB_Unpaired_Electrons: 0 XTB_Charge: 3
   256   267     1     0     0
SMALL
NoCharges
****
Generated from Architector

@<TRIPOS>ATOM
     1 Nd1      -0.1131    0.0244   -0.0601   Nd        1 RES1   0.0000
     2 C1        7.2872    3.6457    4.5268   C.3       1 RES1   0.0000
     3 C2        7.5931    2.4276    5.3948   C.3       1 RES1   0.0000
     4 C3        7.2986    1.0873    4.7197   C.3       1 RES1   0.0000
     5 C4        5.8576    0.6061    4.8842   C.3       1 RES1   0.0000
     6 C5        4.8256    1.3708    4.0436   C.3       1 RES1   0.0000
     7 C6        3.6860    2.0535    4.8100   C.3       1 RES1   0.0000
     8 C7        2.7067    2.5868    3.7519   C.3       1 RES1   0.0000
     9 C8        1.2849    3.0462    4.1147   C.3       1 RES1   0.0000
    10 N1        0.2377    2.0039    4.1457   N.am      1 RES1   0.0000
    11 C9       -0.2673    1.6806    5.4805   C.3       1 RES1   0.0000
    12 C10       0.8087    1.3616    6.5275   C.3       1 RES1   0.0000
    13 C11       0.1697    1.0124    7.8753   C.3       1 RES1   0.0000
    14 C12      -0.4433   -0.3831    7.9006   C.3       1 RES1   0.0000
    15 C13      -1.1854   -0.6755    9.2008   C.3       1 RES1   0.0000
    16 C14      -2.4821    0.1193    9.3360   C.3       1 RES1   0.0000
    17 C15      -3.2855   -0.2967   10.5672   C.3       1 RES1   0.0000
    18 C16      -3.8664   -1.6993   10.4332   C.3       1 RES1   0.0000
    19 C17      -0.2620    1.4995    3.0056   C.2       1 RES1   0.0000
    20 O1        0.3682    1.5311    1.9249   O.2       1 RES1   0.0000
    21 C18      -1.6640    0.9085    2.9218   C.ar      1 RES1   0.0000
    22 C19      -2.6941    1.1839    3.8368   C.ar      1 RES1   0.0000
    23 C20      -3.9049    0.5490    3.6959   C.ar      1 RES1   0.0000
    24 C21      -4.1227   -0.3122    2.6088   C.ar      1 RES1   0.0000
    25 C22      -5.3341   -1.0488    2.4617   C.ar      1 RES1   0.0000
    26 C23      -5.5621   -1.7968    1.3556   C.ar      1 RES1   0.0000
    27 C24      -4.5981   -1.8578    0.3094   C.ar      1 RES1   0.0000
    28 C25      -4.7945   -2.6452   -0.8350   C.ar      1 RES1   0.0000
    29 C26      -3.8209   -2.7042   -1.8071   C.ar      1 RES1   0.0000
    30 C27      -2.6508   -1.9487   -1.6501   C.ar      1 RES1   0.0000
    31 C28      -1.4823   -1.8472   -2.6040   C.2       1 RES1   0.0000
    32 O2       -0.5563   -1.1203   -2.1754   O.2       1 RES1   0.0000
    33 N2       -1.3642   -2.4319   -3.8011   N.am      1 RES1   0.0000
    34 C29      -2.3346   -3.2243   -4.5475   C.3       1 RES1   0.0000
    35 C30      -2.3128   -4.7379   -4.2839   C.3       1 RES1   0.0000
    36 C31      -1.0615   -5.4411   -4.8192   C.3       1 RES1   0.0000
    37 C32      -1.1809   -6.9652   -4.7413   C.3       1 RES1   0.0000
    38 C33       0.0489   -7.7128   -5.2812   C.3       1 RES1   0.0000
    39 C34      -0.1650   -8.2842   -6.6841   C.3       1 RES1   0.0000
    40 C35      -0.3604   -7.2316   -7.7742   C.3       1 RES1   0.0000
    41 C36       0.8698   -6.3546   -7.9845   C.3       1 RES1   0.0000
    42 C37      -0.0835   -2.2669   -4.5014   C.3       1 RES1   0.0000
    43 C38      -0.1580   -1.6545   -5.9116   C.3       1 RES1   0.0000
    44 C39       0.6251   -0.3415   -6.0124   C.3       1 RES1   0.0000
    45 C40      -0.2718    0.8869   -5.8801   C.3       1 RES1   0.0000
    46 C41      -1.0297    1.0167   -4.5510   C.3       1 RES1   0.0000
    47 C42      -2.4950    0.5792   -4.6082   C.3       1 RES1   0.0000
    48 C43      -3.3490    1.4677   -5.5114   C.3       1 RES1   0.0000
    49 C44      -4.8270    1.1332   -5.3648   C.3       1 RES1   0.0000
    50 N3       -2.4406   -1.2131   -0.5497   N.ar      1 RES1   0.0000
    51 C45      -3.3652   -1.1559    0.4188   C.ar      1 RES1   0.0000
    52 C46      -3.0992   -0.3859    1.6269   C.ar      1 RES1   0.0000
    53 N4       -1.9050    0.2085    1.8090   N.ar      1 RES1   0.0000
    54 H1        7.6865    4.5429    4.9929   H         1 RES1   0.0000
    55 H2        6.2144    3.7903    4.4098   H         1 RES1   0.0000
    56 H3        7.7430    3.5381    3.5417   H         1 RES1   0.0000
    57 H4        7.0195    2.4841    6.3207   H         1 RES1   0.0000
    58 H5        8.6479    2.4463    5.6691   H         1 RES1   0.0000
    59 H6        7.9439    0.3262    5.1621   H         1 RES1   0.0000
    60 H7        7.5551    1.1399    3.6587   H         1 RES1   0.0000
    61 H8        5.5928    0.6509    5.9385   H         1 RES1   0.0000
    62 H9        5.8482   -0.4449    4.5961   H         1 RES1   0.0000
    63 H10       4.3583    0.6734    3.3550   H         1 RES1   0.0000
    64 H11       5.3382    2.1200    3.4433   H         1 RES1   0.0000
    65 H12       4.0828    2.8619    5.4247   H         1 RES1   0.0000
    66 H13       3.2041    1.3291    5.4640   H         1 RES1   0.0000
    67 H14       2.5827    1.8088    3.0022   H         1 RES1   0.0000
    68 H15       3.1894    3.4346    3.2574   H         1 RES1   0.0000
    69 H16       0.9832    3.7747    3.3550   H         1 RES1   0.0000
    70 H17       1.2699    3.5452    5.0814   H         1 RES1   0.0000
    71 H18      -0.8964    0.7972    5.3991   H         1 RES1   0.0000
    72 H19      -0.8607    2.5199    5.8624   H         1 RES1   0.0000
    73 H20       1.4647    2.2164    6.6794   H         1 RES1   0.0000
    74 H21       1.4150    0.5186    6.1897   H         1 RES1   0.0000
    75 H22      -0.5843    1.7594    8.1212   H         1 RES1   0.0000
    76 H23       0.9404    1.0732    8.6442   H         1 RES1   0.0000
    77 H24       0.3557   -1.1149    7.7677   H         1 RES1   0.0000
    78 H25      -1.1404   -0.5013    7.0671   H         1 RES1   0.0000
    79 H26      -0.5371   -0.4579   10.0496   H         1 RES1   0.0000
    80 H27      -1.4144   -1.7405    9.2242   H         1 RES1   0.0000
    81 H28      -3.0938   -0.0338    8.4418   H         1 RES1   0.0000
    82 H29      -2.2578    1.1858    9.4052   H         1 RES1   0.0000
    83 H30      -4.0987    0.4166   10.7126   H         1 RES1   0.0000
    84 H31      -2.6415   -0.2479   11.4466   H         1 RES1   0.0000
    85 H32      -4.4306   -1.7897    9.5060   H         1 RES1   0.0000
    86 H33      -4.5355   -1.9124   11.2608   H         1 RES1   0.0000
    87 H34      -3.0806   -2.4508   10.4360   H         1 RES1   0.0000
    88 H35      -2.5634    1.9001    4.6289   H         1 RES1   0.0000
    89 H36      -4.6908    0.7075    4.4188   H         1 RES1   0.0000
    90 H37      -6.0660   -0.9999    3.2549   H         1 RES1   0.0000
    91 H38      -6.4730   -2.3657    1.2482   H         1 RES1   0.0000
    92 H39      -5.6981   -3.2272   -0.9378   H         1 RES1   0.0000
    93 H40      -3.9768   -3.3544   -2.6465   H         1 RES1   0.0000
    94 H41      -2.0966   -3.0803   -5.6019   H         1 RES1   0.0000
    95 H42      -3.3321   -2.8139   -4.3873   H         1 RES1   0.0000
    96 H43      -3.1870   -5.1517   -4.7902   H         1 RES1   0.0000
    97 H44      -2.4220   -4.9479   -3.2219   H         1 RES1   0.0000
    98 H45      -0.1885   -5.1348   -4.2346   H         1 RES1   0.0000
    99 H46      -0.9025   -5.1521   -5.8591   H         1 RES1   0.0000
   100 H47      -2.0545   -7.2831   -5.3083   H         1 RES1   0.0000
   101 H48      -1.3483   -7.2529   -3.7026   H         1 RES1   0.0000
   102 H49       0.2742   -8.5480   -4.6175   H         1 RES1   0.0000
   103 H50       0.9240   -7.0610   -5.2783   H         1 RES1   0.0000
   104 H51      -1.0410   -8.9349   -6.6619   H         1 RES1   0.0000
   105 H52       0.6928   -8.9057   -6.9464   H         1 RES1   0.0000
   106 H53      -1.2262   -6.6070   -7.5400   H         1 RES1   0.0000
   107 H54      -0.5828   -7.7496   -8.7087   H         1 RES1   0.0000
   108 H55       1.0941   -5.7615   -7.0981   H         1 RES1   0.0000
   109 H56       0.7098   -5.6729   -8.8169   H         1 RES1   0.0000
   110 H57       1.7358   -6.9726   -8.2093   H         1 RES1   0.0000
   111 H58       0.3884   -3.2481   -4.5728   H         1 RES1   0.0000
   112 H59       0.5478   -1.6413   -3.8729   H         1 RES1   0.0000
   113 H60      -1.1825   -1.4357   -6.2073   H         1 RES1   0.0000
   114 H61       0.2338   -2.3767   -6.6287   H         1 RES1   0.0000
   115 H62       1.1213   -0.2934   -6.9838   H         1 RES1   0.0000
   116 H63       1.4072   -0.3188   -5.2490   H         1 RES1   0.0000
   117 H64      -0.9814    0.8711   -6.7058   H         1 RES1   0.0000
   118 H65       0.3609    1.7619   -6.0175   H         1 RES1   0.0000
   119 H66      -1.0198    2.0681   -4.2561   H         1 RES1   0.0000
   120 H67      -0.5094    0.4562   -3.7704   H         1 RES1   0.0000
   121 H68      -2.9050    0.6024   -3.5911   H         1 RES1   0.0000
   122 H69      -2.5780   -0.4504   -4.9538   H         1 RES1   0.0000
   123 H70      -3.0585    1.3260   -6.5530   H         1 RES1   0.0000
   124 H71      -3.1839    2.5196   -5.2660   H         1 RES1   0.0000
   125 H72      -4.9985    0.0770   -5.5664   H         1 RES1   0.0000
   126 H73      -5.4228    1.7136   -6.0632   H         1 RES1   0.0000
   127 H74      -5.1712    1.3519   -4.3548   H         1 RES1   0.0000
   128 C47       7.1667    2.3722   -2.1936   C.3       1 RES1   0.0000
   129 C48       5.9769    3.0320   -1.5093   C.3       1 RES1   0.0000
   130 C49       6.0762    4.5542   -1.5042   C.3       1 RES1   0.0000
   131 C50       4.8889    5.2335   -0.8225   C.3       1 RES1   0.0000
   132 C51       3.6149    5.1395   -1.6585   C.3       1 RES1   0.0000
   133 C52       2.4267    5.8304   -0.9937   C.3       1 RES1   0.0000
   134 C53       1.1933    5.8978   -1.8979   C.3       1 RES1   0.0000
   135 C54       0.4047    4.5845   -1.9769   C.3       1 RES1   0.0000
   136 N5        1.0744    3.5007   -2.7006   N.am      1 RES1   0.0000
   137 C55       1.4465    3.7741   -4.0833   C.3       1 RES1   0.0000
   138 C56       0.3711    4.5213   -4.8930   C.3       1 RES1   0.0000
   139 C57       0.7167    4.5184   -6.3956   C.3       1 RES1   0.0000
   140 C58      -0.5050    4.2495   -7.2793   C.3       1 RES1   0.0000
   141 C59      -0.1460    3.9675   -8.7414   C.3       1 RES1   0.0000
   142 C60       0.8592    2.8221   -8.9229   C.3       1 RES1   0.0000
   143 C61       0.6756    2.0635  -10.2399   C.3       1 RES1   0.0000
   144 C62      -0.4727    1.0635  -10.1675   C.3       1 RES1   0.0000
   145 C63       1.2072    2.3296   -2.0760   C.2       1 RES1   0.0000
   146 O3        0.6295    2.1158   -0.9844   O.2       1 RES1   0.0000
   147 C64       2.0547    1.1832   -2.5877   C.ar      1 RES1   0.0000
   148 C65       3.1467    1.2560   -3.4681   C.ar      1 RES1   0.0000
   149 C66       3.7847    0.0900   -3.8286   C.ar      1 RES1   0.0000
   150 C67       3.3747   -1.1376   -3.2823   C.ar      1 RES1   0.0000
   151 C68       3.9896   -2.3764   -3.6297   C.ar      1 RES1   0.0000
   152 C69       3.6388   -3.5285   -3.0070   C.ar      1 RES1   0.0000
   153 C70       2.6836   -3.5267   -1.9465   C.ar      1 RES1   0.0000
   154 C71       2.3398   -4.6885   -1.2380   C.ar      1 RES1   0.0000
   155 C72       1.5195   -4.6119   -0.1337   C.ar      1 RES1   0.0000
   156 C73       1.0592   -3.3549    0.2847   C.ar      1 RES1   0.0000
   157 C74       0.3938   -2.9646    1.5949   C.2       1 RES1   0.0000
   158 O4       -0.1210   -1.8206    1.5746   O.2       1 RES1   0.0000
   159 N6        0.4766   -3.6321    2.7573   N.am      1 RES1   0.0000
   160 C75       0.3413   -2.8331    3.9807   C.3       1 RES1   0.0000
   161 C76       1.5981   -2.8392    4.8833   C.3       1 RES1   0.0000
   162 C77       2.9649   -3.1091    4.2328   C.3       1 RES1   0.0000
   163 C78       3.6763   -1.8672    3.7030   C.3       1 RES1   0.0000
   164 C79       3.1052   -1.3766    2.3682   C.3       1 RES1   0.0000
   165 C80       4.1760   -0.9279    1.3707   C.3       1 RES1   0.0000
   166 C81       3.5882   -0.0248    0.2851   C.3       1 RES1   0.0000
   167 C82       3.5468    1.4736    0.6057   C.3       1 RES1   0.0000
   168 C83       0.7306   -5.0433    3.0374   C.3       1 RES1   0.0000
   169 C84      -0.4611   -6.0285    3.0638   C.3       1 RES1   0.0000
   170 C85      -1.5912   -5.6968    4.0454   C.3       1 RES1   0.0000
   171 C86      -2.6414   -4.6775    3.5905   C.3       1 RES1   0.0000
   172 C87      -3.4391   -5.1483    2.3747   C.3       1 RES1   0.0000
   173 C88      -2.7540   -4.7970    1.0486   C.3       1 RES1   0.0000
   174 C89      -2.9410   -5.8676   -0.0312   C.3       1 RES1   0.0000
   175 C90      -1.7213   -5.9524   -0.9368   C.3       1 RES1   0.0000
   176 N7        1.2905   -2.2597   -0.4512   N.ar      1 RES1   0.0000
   177 C91       2.0693   -2.3160   -1.5421   C.ar      1 RES1   0.0000
   178 C92       2.3686   -1.0985   -2.2850   C.ar      1 RES1   0.0000
   179 N8        1.7355    0.0433   -1.9792   N.ar      1 RES1   0.0000
   180 H75       7.0551    1.2874   -2.1953   H         1 RES1   0.0000
   181 H76       8.0880    2.6203   -1.6720   H         1 RES1   0.0000
   182 H77       7.2582    2.7133   -3.2231   H         1 RES1   0.0000
   183 H78       5.9214    2.6760   -0.4807   H         1 RES1   0.0000
   184 H79       5.0629    2.7170   -2.0203   H         1 RES1   0.0000
   185 H80       6.1561    4.9194   -2.5288   H         1 RES1   0.0000
   186 H81       6.9902    4.8409   -0.9869   H         1 RES1   0.0000
   187 H82       5.1246    6.2872   -0.6646   H         1 RES1   0.0000
   188 H83       4.7137    4.7821    0.1570   H         1 RES1   0.0000
   189 H84       3.3678    4.0891   -1.8249   H         1 RES1   0.0000
   190 H85       3.8029    5.6089   -2.6273   H         1 RES1   0.0000
   191 H86       2.7182    6.8483   -0.7256   H         1 RES1   0.0000
   192 H87       2.1627    5.3099   -0.0695   H         1 RES1   0.0000
   193 H88       1.4896    6.2361   -2.8910   H         1 RES1   0.0000
   194 H89       0.5006    6.6408   -1.4940   H         1 RES1   0.0000
   195 H90      -0.5628    4.7823   -2.4458   H         1 RES1   0.0000
   196 H91       0.2391    4.2279   -0.9590   H         1 RES1   0.0000
   197 H92       1.6158    2.8182   -4.5800   H         1 RES1   0.0000
   198 H93       2.3691    4.3625   -4.1004   H         1 RES1   0.0000
   199 H94       0.2701    5.5494   -4.5489   H         1 RES1   0.0000
   200 H95      -0.5963    4.0333   -4.7466   H         1 RES1   0.0000
   201 H96       1.4703    3.7535   -6.5936   H         1 RES1   0.0000
   202 H97       1.1501    5.4770   -6.6795   H         1 RES1   0.0000
   203 H98      -1.1754    5.1102   -7.2449   H         1 RES1   0.0000
   204 H99      -1.0557    3.3926   -6.8873   H         1 RES1   0.0000
   205 H100      0.2508    4.8750   -9.1955   H         1 RES1   0.0000
   206 H101     -1.0686    3.7180   -9.2679   H         1 RES1   0.0000
   207 H102      0.7427    2.1040   -8.1105   H         1 RES1   0.0000
   208 H103      1.8779    3.2142   -8.8723   H         1 RES1   0.0000
   209 H104      1.5976    1.5266  -10.4727   H         1 RES1   0.0000
   210 H105      0.4954    2.7754  -11.0452   H         1 RES1   0.0000
   211 H106     -0.3057    0.3463   -9.3641   H         1 RES1   0.0000
   212 H107     -0.5552    0.5138  -11.0997   H         1 RES1   0.0000
   213 H108     -1.4198    1.5667   -9.9890   H         1 RES1   0.0000
   214 H109      3.5155    2.1951   -3.8446   H         1 RES1   0.0000
   215 H110      4.6147    0.1190   -4.5166   H         1 RES1   0.0000
   216 H111      4.7635   -2.3721   -4.3837   H         1 RES1   0.0000
   217 H112      4.1114   -4.4646   -3.2698   H         1 RES1   0.0000
   218 H113      2.7444   -5.6397   -1.5463   H         1 RES1   0.0000
   219 H114      1.2525   -5.5156    0.3854   H         1 RES1   0.0000
   220 H115     -0.4905   -3.2138    4.5735   H         1 RES1   0.0000
   221 H116      0.1039   -1.8142    3.6773   H         1 RES1   0.0000
   222 H117      1.4578   -3.5697    5.6801   H         1 RES1   0.0000
   223 H118      1.6271   -1.8619    5.3652   H         1 RES1   0.0000
   224 H119      2.8775   -3.8230    3.4152   H         1 RES1   0.0000
   225 H120      3.6084   -3.5673    4.9870   H         1 RES1   0.0000
   226 H121      4.7295   -2.1195    3.5657   H         1 RES1   0.0000
   227 H122      3.6219   -1.0852    4.4582   H         1 RES1   0.0000
   228 H123      2.3848   -0.5645    2.5287   H         1 RES1   0.0000
   229 H124      2.5627   -2.2090    1.9178   H         1 RES1   0.0000
   230 H125      4.6186   -1.8123    0.9058   H         1 RES1   0.0000
   231 H126      4.9913   -0.4165    1.8773   H         1 RES1   0.0000
   232 H127      2.5466   -0.3501    0.1157   H         1 RES1   0.0000
   233 H128      4.1773   -0.1630   -0.6236   H         1 RES1   0.0000
   234 H129      2.6013    1.7470    1.0729   H         1 RES1   0.0000
   235 H130      3.6293    2.0539   -0.3092   H         1 RES1   0.0000
   236 H131      4.3723    1.7628    1.2514   H         1 RES1   0.0000
   237 H132      1.1590   -5.0649    4.0392   H         1 RES1   0.0000
   238 H133      1.4807   -5.4346    2.3508   H         1 RES1   0.0000
   239 H134     -0.0066   -6.9668    3.3989   H         1 RES1   0.0000
   240 H135     -0.8632   -6.2234    2.0720   H         1 RES1   0.0000
   241 H136     -1.1515   -5.3784    4.9921   H         1 RES1   0.0000
   242 H137     -2.1178   -6.6287    4.2541   H         1 RES1   0.0000
   243 H138     -2.1893   -3.7115    3.3664   H         1 RES1   0.0000
   244 H139     -3.3225   -4.5241    4.4290   H         1 RES1   0.0000
   245 H140     -4.4349   -4.7063    2.3976   H         1 RES1   0.0000
   246 H141     -3.5641   -6.2285    2.4477   H         1 RES1   0.0000
   247 H142     -1.6852   -4.6556    1.2166   H         1 RES1   0.0000
   248 H143     -3.1175   -3.8348    0.6873   H         1 RES1   0.0000
   249 H144     -3.8295   -5.6471   -0.6226   H         1 RES1   0.0000
   250 H145     -3.0923   -6.8441    0.4317   H         1 RES1   0.0000
   251 H146     -1.4087   -4.9623   -1.2681   H         1 RES1   0.0000
   252 H147     -1.9332   -6.5640   -1.8067   H         1 RES1   0.0000
   253 H148     -0.8859   -6.4088   -0.4145   H         1 RES1   0.0000
   254 O5       -2.1180    1.7891   -0.8760   O.3       1 RES1   0.0000
   255 H149     -2.3416    1.9169   -1.8097   H         1 RES1   0.0000
   256 H150     -2.1277    2.6723   -0.4873   H         1 RES1   0.0000
@<TRIPOS>BOND
     1     1    20    1
     2     1    32    1
     3     1    50    1
     4     1    53    1
     5     1   146    1
     6     1   158    1
     7     1   176    1
     8     1   179    1
     9     1   254    1
    10     2     3    1
    11     2    54    1
    12     2    55    1
    13     2    56    1
    14     3     4    1
    15     3    57    1
    16     3    58    1
    17     4     5    1
    18     4    59    1
    19     4    60    1
    20     5     6    1
    21     5    61    1
    22     5    62    1
    23     6     7    1
    24     6    63    1
    25     6    64    1
    26     7     8    1
    27     7    65    1
    28     7    66    1
    29     8     9    1
    30     8    67    1
    31     8    68    1
    32     9    10    1
    33     9    69    1
    34     9    70    1
    35    10    11    1
    36    10    19    1
    37    11    12    1
    38    11    71    1
    39    11    72    1
    40    12    13    1
    41    12    73    1
    42    12    74    1
    43    13    14    1
    44    13    75    1
    45    13    76    1
    46    14    15    1
    47    14    77    1
    48    14    78    1
    49    15    16    1
    50    15    79    1
    51    15    80    1
    52    16    17    1
    53    16    81    1
    54    16    82    1
    55    17    18    1
    56    17    83    1
    57    17    84    1
    58    18    85    1
    59    18    86    1
    60    18    87    1
    61    19    20    2
    62    19    21    1
    63    21    22    1
    64    21    53    2
    65    22    23    2
    66    22    88    1
    67    23    24    1
    68    23    89    1
    69    24    25    1
    70    24    52    2
    71    25    26    2
    72    25    90    1
    73    26    27    1
    74    26    91    1
    75    27    28    1
    76    27    51    2
    77    28    29    2
    78    28    92    1
    79    29    30    1
    80    29    93    1
    81    30    31    1
    82    30    50    2
    83    31    32    2
    84    31    33    1
    85    33    34    1
    86    33    42    1
    87    34    35    1
    88    34    94    1
    89    34    95    1
    90    35    36    1
    91    35    96    1
    92    35    97    1
    93    36    37    1
    94    36    98    1
    95    36    99    1
    96    37    38    1
    97    37   100    1
    98    37   101    1
    99    38    39    1
   100    38   102    1
   101    38   103    1
   102    39    40    1
   103    39   104    1
   104    39   105    1
   105    40    41    1
   106    40   106    1
   107    40   107    1
   108    41   108    1
   109    41   109    1
   110    41   110    1
   111    42    43    1
   112    42   111    1
   113    42   112    1
   114    43    44    1
   115    43   113    1
   116    43   114    1
   117    44    45    1
   118    44   115    1
   119    44   116    1
   120    45    46    1
   121    45   117    1
   122    45   118    1
   123    46    47    1
   124    46   119    1
   125    46   120    1
   126    47    48    1
   127    47   121    1
   128    47   122    1
   129    48    49    1
   130    48   123    1
   131    48   124    1
   132    49   125    1
   133    49   126    1
   134    49   127    1
   135    50    51    1
   136    51    52    1
   137    52    53    1
   138   128   129    1
   139   128   180    1
   140   128   181    1
   141   128   182    1
   142   129   130    1
   143   129   183    1
   144   129   184    1
   145   130   131    1
   146   130   185    1
   147   130   186    1
   148   131   132    1
   149   131   187    1
   150   131   188    1
   151   132   133    1
   152   132   189    1
   153   132   190    1
   154   133   134    1
   155   133   191    1
   156   133   192    1
   157   134   135    1
   158   134   193    1
   159   134   194    1
   160   135   136    1
   161   135   195    1
   162   135   196    1
   163   136   137    1
   164   136   145    1
   165   137   138    1
   166   137   197    1
   167   137   198    1
   168   138   139    1
   169   138   199    1
   170   138   200    1
   171   139   140    1
   172   139   201    1
   173   139   202    1
   174   140   141    1
   175   140   203    1
   176   140   204    1
   177   141   142    1
   178   141   205    1
   179   141   206    1
   180   142   143    1
   181   142   207    1
   182   142   208    1
   183   143   144    1
   184   143   209    1
   185   143   210    1
   186   144   211    1
   187   144   212    1
   188   144   213    1
   189   145   146    2
   190   145   147    1
   191   147   148    1
   192   147   179    2
   193   148   149    2
   194   148   214    1
   195   149   150    1
   196   149   215    1
   197   150   151    1
   198   150   178    2
   199   151   152    2
   200   151   216    1
   201   152   153    1
   202   152   217    1
   203   153   154    1
   204   153   177    2
   205   154   155    2
   206   154   218    1
   207   155   156    1
   208   155   219    1
   209   156   157    1
   210   156   176    2
   211   157   158    2
   212   157   159    1
   213   159   160    1
   214   159   168    1
   215   160   161    1
   216   160   220    1
   217   160   221    1
   218   161   162    1
   219   161   222    1
   220   161   223    1
   221   162   163    1
   222   162   224    1
   223   162   225    1
   224   163   164    1
   225   163   226    1
   226   163   227    1
   227   164   165    1
   228   164   228    1
   229   164   229    1
   230   165   166    1
   231   165   230    1
   232   165   231    1
   233   166   167    1
   234   166   232    1
   235   166   233    1
   236   167   234    1
   237   167   235    1
   238   167   236    1
   239   168   169    1
   240   168   237    1
   241   168   238    1
   242   169   170    1
   243   169   239    1
   244   169   240    1
   245   170   171    1
   246   170   241    1
   247   170   242    1
   248   171   172    1
   249   171   243    1
   250   171   244    1
   251   172   173    1
   252   172   245    1
   253   172   246    1
   254   173   174    1
   255   173   247    1
   256   173   248    1
   257   174   175    1
   258   174   249    1
   259   174   250    1
   260   175   251    1
   261   175   252    1
   262   175   253    1
   263   176   177    1
   264   177   178    1
   265   178   179    1
   266   254   255    1
   267   254   256    1
@<TRIPOS>SUBSTRUCTURE
     1 RES1      256 GROUP             0 ****  ****    0  
