@<TRIPOS>MOLECULE
am_c3_9H2O_c0_0_nunpairedes_0_charge_3 Charge: 3 Unpaired_Electrons: 3 XTB_Unpaired_Electrons: 0 XTB_Charge: 3
   340   345     1     0     0
SMALL
NoCharges
****
Generated from Architector

@<TRIPOS>ATOM
     1 Nd1      -0.2889    0.1001    0.0270   Nd        1 RES1   0.0000
     2 C1       -5.1586   -5.6757    2.8561   C.3       1 RES1   0.0000
     3 C2       -4.4011   -5.6927    1.5373   C.3       1 RES1   0.0000
     4 C3       -4.4280   -4.3632    0.7811   C.3       1 RES1   0.0000
     5 C4       -5.8263   -3.8391    0.4474   C.3       1 RES1   0.0000
     6 C5       -5.8706   -2.7578   -0.6588   C.3       1 RES1   0.0000
     7 C6       -5.5407   -3.3509   -2.0392   C.3       1 RES1   0.0000
     8 C7       -4.0764   -3.3943   -2.4755   C.3       1 RES1   0.0000
     9 C8       -5.0243   -1.5654   -0.1981   C.3       1 RES1   0.0000
    10 N1       -4.7699   -0.4394   -1.1109   N.am      1 RES1   0.0000
    11 C9       -5.9223    0.2924   -1.6474   C.3       1 RES1   0.0000
    12 C10      -6.6053   -0.1691   -2.9638   C.3       1 RES1   0.0000
    13 C11      -7.5513    0.9366   -3.4712   C.3       1 RES1   0.0000
    14 C12      -8.6534    1.3620   -2.5106   C.3       1 RES1   0.0000
    15 C13      -5.6672   -0.5513   -4.1178   C.3       1 RES1   0.0000
    16 C14      -6.4242   -1.3534   -5.1951   C.3       1 RES1   0.0000
    17 C15      -5.5148   -2.1526   -6.1289   C.3       1 RES1   0.0000
    18 C16      -4.8257   -1.2736   -7.1638   C.3       1 RES1   0.0000
    19 C17      -3.5375    0.0707   -1.0296   C.2       1 RES1   0.0000
    20 O1       -2.6137   -0.4836   -0.3971   O.2       1 RES1   0.0000
    21 C18      -3.2011    1.3503   -1.7904   C.3       1 RES1   0.0000
    22 O2       -1.8844    1.8053   -1.4736   O.3       1 RES1   0.0000
    23 C19      -1.8396    3.1132   -0.9160   C.3       1 RES1   0.0000
    24 C20      -1.8865    3.0242    0.6156   C.2       1 RES1   0.0000
    25 O3       -1.5430    1.9267    1.1063   O.2       1 RES1   0.0000
    26 N2       -2.3035    4.0564    1.3321   N.am      1 RES1   0.0000
    27 C21      -2.5653    5.3935    0.8111   C.3       1 RES1   0.0000
    28 C22      -4.0121    5.9630    0.7905   C.3       1 RES1   0.0000
    29 C23      -5.0974    5.0932    0.1279   C.3       1 RES1   0.0000
    30 C24      -5.3573    3.6955    0.6858   C.3       1 RES1   0.0000
    31 C25      -4.4481    6.6397    2.1144   C.3       1 RES1   0.0000
    32 C26      -5.2366    5.8407    3.1542   C.3       1 RES1   0.0000
    33 C27      -5.3328    6.6173    4.4697   C.3       1 RES1   0.0000
    34 C28      -5.8622    5.7352    5.5909   C.3       1 RES1   0.0000
    35 C29      -2.2450    3.9929    2.7904   C.3       1 RES1   0.0000
    36 C30      -0.8397    4.3250    3.3281   C.3       1 RES1   0.0000
    37 C31      -0.8770    5.4290    4.4002   C.3       1 RES1   0.0000
    38 C32      -1.5828    5.0360    5.6919   C.3       1 RES1   0.0000
    39 C33      -0.0020    3.1173    3.8123   C.3       1 RES1   0.0000
    40 C34      -0.7230    1.8027    4.1091   C.3       1 RES1   0.0000
    41 C35       0.2721    0.6626    4.3296   C.3       1 RES1   0.0000
    42 C36       1.1688    0.8724    5.5379   C.3       1 RES1   0.0000
    43 H1       -4.9821   -6.6056    3.3875   H         1 RES1   0.0000
    44 H2       -6.2260   -5.5821    2.6896   H         1 RES1   0.0000
    45 H3       -4.8347   -4.8510    3.4857   H         1 RES1   0.0000
    46 H4       -4.8098   -6.4806    0.9032   H         1 RES1   0.0000
    47 H5       -3.3523   -5.9403    1.7326   H         1 RES1   0.0000
    48 H6       -3.8587   -4.5011   -0.1354   H         1 RES1   0.0000
    49 H7       -3.9076   -3.6132    1.3781   H         1 RES1   0.0000
    50 H8       -6.2822   -3.4389    1.3553   H         1 RES1   0.0000
    51 H9       -6.4504   -4.6700    0.1164   H         1 RES1   0.0000
    52 H10      -6.9110   -2.4232   -0.7189   H         1 RES1   0.0000
    53 H11      -6.0963   -2.7924   -2.7873   H         1 RES1   0.0000
    54 H12      -5.9391   -4.3664   -2.0662   H         1 RES1   0.0000
    55 H13      -3.5133   -2.5302   -2.1245   H         1 RES1   0.0000
    56 H14      -4.0446   -3.4002   -3.5627   H         1 RES1   0.0000
    57 H15      -3.5851   -4.3071   -2.1413   H         1 RES1   0.0000
    58 H16      -4.0410   -1.9229    0.1014   H         1 RES1   0.0000
    59 H17      -5.5041   -1.1496    0.6928   H         1 RES1   0.0000
    60 H18      -5.6433    1.3358   -1.7885   H         1 RES1   0.0000
    61 H19      -6.6909    0.2624   -0.8683   H         1 RES1   0.0000
    62 H20      -7.2240   -1.0362   -2.7257   H         1 RES1   0.0000
    63 H21      -8.0337    0.5596   -4.3736   H         1 RES1   0.0000
    64 H22      -6.9729    1.8178   -3.7635   H         1 RES1   0.0000
    65 H23      -9.2250    0.5027   -2.1716   H         1 RES1   0.0000
    66 H24      -9.3329    2.0345   -3.0279   H         1 RES1   0.0000
    67 H25      -8.2625    1.8882   -1.6442   H         1 RES1   0.0000
    68 H26      -4.8391   -1.1531   -3.7420   H         1 RES1   0.0000
    69 H27      -5.2483    0.3530   -4.5655   H         1 RES1   0.0000
    70 H28      -7.0247   -0.6834   -5.8109   H         1 RES1   0.0000
    71 H29      -7.1126   -2.0462   -4.7053   H         1 RES1   0.0000
    72 H30      -6.1157   -2.9008   -6.6471   H         1 RES1   0.0000
    73 H31      -4.7666   -2.6893   -5.5424   H         1 RES1   0.0000
    74 H32      -5.5684   -0.7532   -7.7621   H         1 RES1   0.0000
    75 H33      -4.2195   -1.8752   -7.8379   H         1 RES1   0.0000
    76 H34      -4.1899   -0.5308   -6.6851   H         1 RES1   0.0000
    77 H35      -3.9259    2.1434   -1.5847   H         1 RES1   0.0000
    78 H36      -3.2062    1.1198   -2.8633   H         1 RES1   0.0000
    79 H37      -2.6341    3.7442   -1.3256   H         1 RES1   0.0000
    80 H38      -0.8592    3.5193   -1.2022   H         1 RES1   0.0000
    81 H39      -2.1522    5.4593   -0.1938   H         1 RES1   0.0000
    82 H40      -1.9868    6.0751    1.4414   H         1 RES1   0.0000
    83 H41      -3.8937    6.8128    0.1060   H         1 RES1   0.0000
    84 H42      -4.8527    5.0048   -0.9358   H         1 RES1   0.0000
    85 H43      -6.0284    5.6622    0.1833   H         1 RES1   0.0000
    86 H44      -4.4868    3.0528    0.5850   H         1 RES1   0.0000
    87 H45      -6.1836    3.2430    0.1395   H         1 RES1   0.0000
    88 H46      -5.6351    3.7267    1.7317   H         1 RES1   0.0000
    89 H47      -5.0693    7.5009    1.8550   H         1 RES1   0.0000
    90 H48      -3.5519    7.0513    2.5890   H         1 RES1   0.0000
    91 H49      -4.7715    4.8761    3.3642   H         1 RES1   0.0000
    92 H50      -6.2442    5.6471    2.7840   H         1 RES1   0.0000
    93 H51      -5.9862    7.4796    4.3354   H         1 RES1   0.0000
    94 H52      -4.3453    6.9969    4.7436   H         1 RES1   0.0000
    95 H53      -6.8559    5.3696    5.3498   H         1 RES1   0.0000
    96 H54      -5.9126    6.2923    6.5201   H         1 RES1   0.0000
    97 H55      -5.2100    4.8772    5.7445   H         1 RES1   0.0000
    98 H56      -2.5994    3.0127    3.0968   H         1 RES1   0.0000
    99 H57      -2.9423    4.7392    3.1520   H         1 RES1   0.0000
   100 H58      -0.2958    4.7624    2.4792   H         1 RES1   0.0000
   101 H59      -1.3500    6.3229    3.9894   H         1 RES1   0.0000
   102 H60       0.1581    5.7059    4.6155   H         1 RES1   0.0000
   103 H61      -2.6547    4.9479    5.5327   H         1 RES1   0.0000
   104 H62      -1.4187    5.7979    6.4482   H         1 RES1   0.0000
   105 H63      -1.2117    4.0901    6.0847   H         1 RES1   0.0000
   106 H64       0.5327    3.4382    4.7058   H         1 RES1   0.0000
   107 H65       0.7400    2.8972    3.0453   H         1 RES1   0.0000
   108 H66      -1.3222    1.5090    3.2457   H         1 RES1   0.0000
   109 H67      -1.3643    1.9072    4.9869   H         1 RES1   0.0000
   110 H68       0.8630    0.5439    3.4150   H         1 RES1   0.0000
   111 H69      -0.2793   -0.2680    4.4594   H         1 RES1   0.0000
   112 H70       1.8061    1.7374    5.3956   H         1 RES1   0.0000
   113 H71       1.8048    0.0079    5.7068   H         1 RES1   0.0000
   114 H72       0.5731    1.0261    6.4346   H         1 RES1   0.0000
   115 C37       1.9502    4.1977    8.2012   C.3       1 RES1   0.0000
   116 C38       2.2878    4.8240    6.8487   C.3       1 RES1   0.0000
   117 C39       3.4042    4.0522    6.1353   C.3       1 RES1   0.0000
   118 C40       3.5333    4.3407    4.6297   C.3       1 RES1   0.0000
   119 C41       4.1288    3.1716    3.8262   C.3       1 RES1   0.0000
   120 C42       5.6241    2.9058    4.0981   C.3       1 RES1   0.0000
   121 C43       5.9669    2.3750    5.4861   C.3       1 RES1   0.0000
   122 C44       4.0349    3.4394    2.2996   C.3       1 RES1   0.0000
   123 N3        2.7718    3.2967    1.5658   N.am      1 RES1   0.0000
   124 C45       2.2116    4.5301    1.0038   C.3       1 RES1   0.0000
   125 C46       2.7970    4.9960   -0.3587   C.3       1 RES1   0.0000
   126 C47       4.3207    4.8196   -0.4696   C.3       1 RES1   0.0000
   127 C48       4.9003    5.1018   -1.8546   C.3       1 RES1   0.0000
   128 C49       2.4244    6.4690   -0.5933   C.3       1 RES1   0.0000
   129 C50       0.9568    6.7543   -0.9149   C.3       1 RES1   0.0000
   130 C51       0.4983    6.1679   -2.2499   C.3       1 RES1   0.0000
   131 C52      -0.8375    6.7497   -2.6951   C.3       1 RES1   0.0000
   132 C53       2.2434    2.1212    1.2345   C.2       1 RES1   0.0000
   133 O4        1.2287    1.9874    0.5155   O.2       1 RES1   0.0000
   134 C54       2.9491    0.8824    1.7837   C.3       1 RES1   0.0000
   135 O5        2.2205   -0.3117    1.5093   O.3       1 RES1   0.0000
   136 C55       3.0699   -1.3828    1.1089   C.3       1 RES1   0.0000
   137 C56       3.1270   -1.4071   -0.4314   C.2       1 RES1   0.0000
   138 O6        2.1604   -0.8733   -1.0060   O.2       1 RES1   0.0000
   139 N4        4.1436   -1.9902   -1.0734   N.am      1 RES1   0.0000
   140 C57       5.4181   -2.3696   -0.4444   C.3       1 RES1   0.0000
   141 C58       5.6575   -3.8520   -0.0520   C.3       1 RES1   0.0000
   142 C59       6.1849   -4.6882   -1.2333   C.3       1 RES1   0.0000
   143 C60       6.1563   -6.1990   -0.9812   C.3       1 RES1   0.0000
   144 C61       6.7065   -3.8979    1.0740   C.3       1 RES1   0.0000
   145 C62       6.1756   -3.6257    2.4848   C.3       1 RES1   0.0000
   146 C63       5.8468   -4.9016    3.2653   C.3       1 RES1   0.0000
   147 C64       4.5808   -5.6150    2.8034   C.3       1 RES1   0.0000
   148 C65       4.1707   -1.8736   -2.5421   C.3       1 RES1   0.0000
   149 C66       3.0636   -2.5471   -3.3617   C.3       1 RES1   0.0000
   150 C67       3.2898   -2.1734   -4.8446   C.3       1 RES1   0.0000
   151 C68       3.4672   -0.6962   -5.1855   C.3       1 RES1   0.0000
   152 C69       3.0425   -4.0822   -3.3127   C.3       1 RES1   0.0000
   153 C70       2.6946   -4.7346   -1.9700   C.3       1 RES1   0.0000
   154 C71       1.8645   -6.0211   -2.1274   C.3       1 RES1   0.0000
   155 C72       2.7217   -7.2652   -2.3482   C.3       1 RES1   0.0000
   156 H73       1.1712    4.7699    8.6987   H         1 RES1   0.0000
   157 H74       2.8177    4.1712    8.8554   H         1 RES1   0.0000
   158 H75       1.5903    3.1779    8.0785   H         1 RES1   0.0000
   159 H76       2.5863    5.8637    6.9989   H         1 RES1   0.0000
   160 H77       1.3827    4.8153    6.2370   H         1 RES1   0.0000
   161 H78       3.2058    2.9875    6.2744   H         1 RES1   0.0000
   162 H79       4.3442    4.2764    6.6350   H         1 RES1   0.0000
   163 H80       4.1351    5.2377    4.4759   H         1 RES1   0.0000
   164 H81       2.5363    4.5396    4.2276   H         1 RES1   0.0000
   165 H82       3.5836    2.2697    4.1143   H         1 RES1   0.0000
   166 H83       6.1929    3.8157    3.9046   H         1 RES1   0.0000
   167 H84       5.9575    2.1560    3.3730   H         1 RES1   0.0000
   168 H85       5.9557    3.1587    6.2342   H         1 RES1   0.0000
   169 H86       6.9670    1.9513    5.4672   H         1 RES1   0.0000
   170 H87       5.2728    1.5949    5.7878   H         1 RES1   0.0000
   171 H88       4.7792    2.8140    1.7980   H         1 RES1   0.0000
   172 H89       4.3489    4.4728    2.1658   H         1 RES1   0.0000
   173 H90       2.3546    5.3125    1.7531   H         1 RES1   0.0000
   174 H91       1.1417    4.3576    0.8669   H         1 RES1   0.0000
   175 H92       2.3432    4.3881   -1.1462   H         1 RES1   0.0000
   176 H93       4.5722    3.7852   -0.2293   H         1 RES1   0.0000
   177 H94       4.8196    5.4736    0.2468   H         1 RES1   0.0000
   178 H95       4.3658    4.5572   -2.6277   H         1 RES1   0.0000
   179 H96       5.9386    4.7820   -1.8704   H         1 RES1   0.0000
   180 H97       4.8841    6.1579   -2.0993   H         1 RES1   0.0000
   181 H98       3.0136    6.8355   -1.4319   H         1 RES1   0.0000
   182 H99       2.7187    7.0579    0.2785   H         1 RES1   0.0000
   183 H100      0.8425    7.8383   -0.9664   H         1 RES1   0.0000
   184 H101      0.3091    6.4005   -0.1091   H         1 RES1   0.0000
   185 H102      0.4212    5.0785   -2.1758   H         1 RES1   0.0000
   186 H103      1.2444    6.3902   -3.0131   H         1 RES1   0.0000
   187 H104     -1.6009    6.6096   -1.9330   H         1 RES1   0.0000
   188 H105     -1.1746    6.2795   -3.6144   H         1 RES1   0.0000
   189 H106     -0.7424    7.8165   -2.8731   H         1 RES1   0.0000
   190 H107      3.0639    0.9587    2.8707   H         1 RES1   0.0000
   191 H108      3.9473    0.8434    1.3329   H         1 RES1   0.0000
   192 H109      2.5966   -2.3075    1.4558   H         1 RES1   0.0000
   193 H110      4.0435   -1.3056    1.6028   H         1 RES1   0.0000
   194 H111      5.5600   -1.7602    0.4493   H         1 RES1   0.0000
   195 H112      6.2118   -2.0900   -1.1431   H         1 RES1   0.0000
   196 H113      4.7247   -4.2849    0.3136   H         1 RES1   0.0000
   197 H114      7.2179   -4.3853   -1.4224   H         1 RES1   0.0000
   198 H115      5.6097   -4.4735   -2.1351   H         1 RES1   0.0000
   199 H116      6.9157   -6.5088   -0.2671   H         1 RES1   0.0000
   200 H117      6.3456   -6.7321   -1.9096   H         1 RES1   0.0000
   201 H118      5.1860   -6.5183   -0.6046   H         1 RES1   0.0000
   202 H119      7.4968   -3.1882    0.8235   H         1 RES1   0.0000
   203 H120      7.1671   -4.8843    1.0827   H         1 RES1   0.0000
   204 H121      5.2864   -2.9916    2.4435   H         1 RES1   0.0000
   205 H122      6.9394   -3.0821    3.0434   H         1 RES1   0.0000
   206 H123      5.7431   -4.6478    4.3225   H         1 RES1   0.0000
   207 H124      6.6888   -5.5886    3.1834   H         1 RES1   0.0000
   208 H125      3.7277   -4.9357    2.8208   H         1 RES1   0.0000
   209 H126      4.3642   -6.4458    3.4706   H         1 RES1   0.0000
   210 H127      4.6953   -6.0158    1.7997   H         1 RES1   0.0000
   211 H128      5.1288   -2.2627   -2.8828   H         1 RES1   0.0000
   212 H129      4.1264   -0.8046   -2.7714   H         1 RES1   0.0000
   213 H130      2.0966   -2.1544   -3.0313   H         1 RES1   0.0000
   214 H131      2.4466   -2.5660   -5.4148   H         1 RES1   0.0000
   215 H132      4.1805   -2.6983   -5.1931   H         1 RES1   0.0000
   216 H133      2.6911   -0.0701   -4.7532   H         1 RES1   0.0000
   217 H134      3.4194   -0.5826   -6.2653   H         1 RES1   0.0000
   218 H135      4.4368   -0.3296   -4.8631   H         1 RES1   0.0000
   219 H136      4.0059   -4.4515   -3.6647   H         1 RES1   0.0000
   220 H137      2.2995   -4.3959   -4.0477   H         1 RES1   0.0000
   221 H138      2.1610   -4.0044   -1.3573   H         1 RES1   0.0000
   222 H139      3.6073   -4.9888   -1.4356   H         1 RES1   0.0000
   223 H140      1.1771   -5.9164   -2.9705   H         1 RES1   0.0000
   224 H141      1.2448   -6.1810   -1.2392   H         1 RES1   0.0000
   225 H142      3.5101   -7.0743   -3.0691   H         1 RES1   0.0000
   226 H143      2.1093   -8.0785   -2.7270   H         1 RES1   0.0000
   227 H144      3.1801   -7.5982   -1.4186   H         1 RES1   0.0000
   228 C73      -5.9786    0.6541    3.8770   C.3       1 RES1   0.0000
   229 C74      -4.6388    0.6149    3.1509   C.3       1 RES1   0.0000
   230 C75      -3.9657   -0.7581    3.2198   C.3       1 RES1   0.0000
   231 C76      -3.1856   -0.9459    4.5233   C.3       1 RES1   0.0000
   232 C77      -2.9467   -2.4121    4.8869   C.3       1 RES1   0.0000
   233 C78      -2.4300   -2.6079    6.3236   C.3       1 RES1   0.0000
   234 C79      -1.1969   -1.8111    6.7299   C.3       1 RES1   0.0000
   235 C80      -2.2964   -3.2919    3.7951   C.3       1 RES1   0.0000
   236 N5       -0.9420   -3.2569    3.1799   N.am      1 RES1   0.0000
   237 C81      -0.1725   -4.4729    3.4310   C.3       1 RES1   0.0000
   238 C82       0.5489   -4.5001    4.7871   C.3       1 RES1   0.0000
   239 C83       1.0310   -5.9407    5.0186   C.3       1 RES1   0.0000
   240 C84      -0.1161   -6.9103    5.2867   C.3       1 RES1   0.0000
   241 C85       1.6863   -3.4698    4.7880   C.3       1 RES1   0.0000
   242 C86       2.6292   -3.6132    5.9859   C.3       1 RES1   0.0000
   243 C87       3.4312   -2.3529    6.3174   C.3       1 RES1   0.0000
   244 C88       4.1940   -1.7943    5.1228   C.3       1 RES1   0.0000
   245 C89      -0.6728   -2.5429    2.0785   C.2       1 RES1   0.0000
   246 O7       -1.0231   -1.3665    1.8851   O.2       1 RES1   0.0000
   247 C90       0.0199   -3.2719    0.8872   C.3       1 RES1   0.0000
   248 O8       -0.0907   -2.4280   -0.2512   O.3       1 RES1   0.0000
   249 C91      -0.5112   -3.1004   -1.4363   C.3       1 RES1   0.0000
   250 C92      -0.6686   -2.0377   -2.5281   C.2       1 RES1   0.0000
   251 O9       -0.6166   -0.8371   -2.1921   O.2       1 RES1   0.0000
   252 N6       -0.9226   -2.4213   -3.7776   N.am      1 RES1   0.0000
   253 C93      -0.8785   -3.8401   -4.1596   C.3       1 RES1   0.0000
   254 C94      -0.8425   -4.2049   -5.6574   C.3       1 RES1   0.0000
   255 C95      -0.1536   -5.5815   -5.8494   C.3       1 RES1   0.0000
   256 C96       1.2254   -5.5376   -6.5213   C.3       1 RES1   0.0000
   257 C97      -2.2031   -4.2432   -6.3813   C.3       1 RES1   0.0000
   258 C98      -3.2368   -5.2717   -5.8918   C.3       1 RES1   0.0000
   259 C99      -4.1327   -5.7274   -7.0489   C.3       1 RES1   0.0000
   260 C100     -5.2960   -6.6012   -6.5918   C.3       1 RES1   0.0000
   261 C101     -1.3591   -1.3617   -4.6877   C.3       1 RES1   0.0000
   262 C102     -0.2287   -0.4141   -5.1356   C.3       1 RES1   0.0000
   263 C103      0.2279   -0.6435   -6.5865   C.3       1 RES1   0.0000
   264 C104     -0.7616   -0.2968   -7.6925   C.3       1 RES1   0.0000
   265 C105     -0.5542    1.0555   -4.7959   C.3       1 RES1   0.0000
   266 C106     -1.8944    1.6352   -5.2625   C.3       1 RES1   0.0000
   267 C107     -2.0642    3.0699   -4.7552   C.3       1 RES1   0.0000
   268 C108     -3.5055    3.5591   -4.8388   C.3       1 RES1   0.0000
   269 H145     -6.3975    1.6584    3.8584   H         1 RES1   0.0000
   270 H146     -5.8690    0.3566    4.9167   H         1 RES1   0.0000
   271 H147     -6.6924   -0.0192    3.4049   H         1 RES1   0.0000
   272 H148     -3.9668    1.3528    3.5909   H         1 RES1   0.0000
   273 H149     -4.7963    0.8939    2.1055   H         1 RES1   0.0000
   274 H150     -3.2779   -0.8538    2.3761   H         1 RES1   0.0000
   275 H151     -4.7358   -1.5284    3.1329   H         1 RES1   0.0000
   276 H152     -3.7560   -0.5044    5.3430   H         1 RES1   0.0000
   277 H153     -2.2458   -0.4102    4.4398   H         1 RES1   0.0000
   278 H154     -3.9475   -2.8699    4.9069   H         1 RES1   0.0000
   279 H155     -2.2506   -3.6740    6.4843   H         1 RES1   0.0000
   280 H156     -3.2443   -2.3330    7.0000   H         1 RES1   0.0000
   281 H157     -0.3665   -1.9800    6.0511   H         1 RES1   0.0000
   282 H158     -0.8885   -2.1079    7.7297   H         1 RES1   0.0000
   283 H159     -1.4238   -0.7496    6.7565   H         1 RES1   0.0000
   284 H160     -2.9751   -3.2105    2.9484   H         1 RES1   0.0000
   285 H161     -2.3660   -4.3066    4.1882   H         1 RES1   0.0000
   286 H162      0.6019   -4.6044    2.6784   H         1 RES1   0.0000
   287 H163     -0.8388   -5.3351    3.3675   H         1 RES1   0.0000
   288 H164     -0.1457   -4.2455    5.5875   H         1 RES1   0.0000
   289 H165      1.6896   -5.9649    5.8842   H         1 RES1   0.0000
   290 H166      1.6084   -6.2792    4.1552   H         1 RES1   0.0000
   291 H167     -0.7322   -6.5479    6.1058   H         1 RES1   0.0000
   292 H168      0.2822   -7.8806    5.5672   H         1 RES1   0.0000
   293 H169     -0.7499   -7.0561    4.4146   H         1 RES1   0.0000
   294 H170      1.2518   -2.4680    4.7822   H         1 RES1   0.0000
   295 H171      2.2644   -3.5684    3.8669   H         1 RES1   0.0000
   296 H172      3.3274   -4.4266    5.7855   H         1 RES1   0.0000
   297 H173      2.0444   -3.8794    6.8672   H         1 RES1   0.0000
   298 H174      4.1440   -2.6039    7.1046   H         1 RES1   0.0000
   299 H175      2.7612   -1.5900    6.7204   H         1 RES1   0.0000
   300 H176      4.8506   -2.5538    4.7079   H         1 RES1   0.0000
   301 H177      4.8019   -0.9469    5.4288   H         1 RES1   0.0000
   302 H178      3.5045   -1.4600    4.3483   H         1 RES1   0.0000
   303 H179     -0.5213   -4.2093    0.7141   H         1 RES1   0.0000
   304 H180      1.0766   -3.5112    1.0532   H         1 RES1   0.0000
   305 H181     -1.4894   -3.5829   -1.2877   H         1 RES1   0.0000
   306 H182      0.2104   -3.8737   -1.7207   H         1 RES1   0.0000
   307 H183      0.0480   -4.2280   -3.7310   H         1 RES1   0.0000
   308 H184     -1.7192   -4.3569   -3.6868   H         1 RES1   0.0000
   309 H185     -0.2272   -3.4529   -6.1591   H         1 RES1   0.0000
   310 H186     -0.8034   -6.1966   -6.4713   H         1 RES1   0.0000
   311 H187     -0.0709   -6.1065   -4.8969   H         1 RES1   0.0000
   312 H188      2.0450   -5.5914   -5.8064   H         1 RES1   0.0000
   313 H189      1.3539   -4.6423   -7.1247   H         1 RES1   0.0000
   314 H190      1.3288   -6.3867   -7.1899   H         1 RES1   0.0000
   315 H191     -1.9661   -4.4701   -7.4239   H         1 RES1   0.0000
   316 H192     -2.6666   -3.2569   -6.3785   H         1 RES1   0.0000
   317 H193     -3.8738   -4.8440   -5.1147   H         1 RES1   0.0000
   318 H194     -2.7457   -6.1441   -5.4590   H         1 RES1   0.0000
   319 H195     -3.5292   -6.2846   -7.7669   H         1 RES1   0.0000
   320 H196     -4.5334   -4.8530   -7.5656   H         1 RES1   0.0000
   321 H197     -4.9395   -7.4791   -6.0567   H         1 RES1   0.0000
   322 H198     -5.8681   -6.9367   -7.4530   H         1 RES1   0.0000
   323 H199     -5.9656   -6.0458   -5.9366   H         1 RES1   0.0000
   324 H200     -2.1035   -0.7894   -4.1305   H         1 RES1   0.0000
   325 H201     -1.8446   -1.8173   -5.5427   H         1 RES1   0.0000
   326 H202      0.6338   -0.6690   -4.5100   H         1 RES1   0.0000
   327 H203      0.5179   -1.6914   -6.6895   H         1 RES1   0.0000
   328 H204      1.1336   -0.0584   -6.7477   H         1 RES1   0.0000
   329 H205     -1.7518   -0.6998   -7.4991   H         1 RES1   0.0000
   330 H206     -0.4110   -0.7080   -8.6369   H         1 RES1   0.0000
   331 H207     -0.8335    0.7790   -7.8151   H         1 RES1   0.0000
   332 H208      0.2507    1.6784   -5.1942   H         1 RES1   0.0000
   333 H209     -0.5232    1.1363   -3.7003   H         1 RES1   0.0000
   334 H210     -2.7224    1.0246   -4.8925   H         1 RES1   0.0000
   335 H211     -1.9706    1.6413   -6.3461   H         1 RES1   0.0000
   336 H212     -1.4309    3.7320   -5.3452   H         1 RES1   0.0000
   337 H213     -1.7114    3.1290   -3.7234   H         1 RES1   0.0000
   338 H214     -3.8732    3.4912   -5.8581   H         1 RES1   0.0000
   339 H215     -3.5704    4.5979   -4.5261   H         1 RES1   0.0000
   340 H216     -4.1649    2.9681   -4.2043   H         1 RES1   0.0000
@<TRIPOS>BOND
     1     1    20    1
     2     1    22    1
     3     1    25    1
     4     1   133    1
     5     1   135    1
     6     1   138    1
     7     1   246    1
     8     1   248    1
     9     1   251    1
    10     2     3    1
    11     2    43    1
    12     2    44    1
    13     2    45    1
    14     3     4    1
    15     3    46    1
    16     3    47    1
    17     4     5    1
    18     4    48    1
    19     4    49    1
    20     5     6    1
    21     5    50    1
    22     5    51    1
    23     6     7    1
    24     6     9    1
    25     6    52    1
    26     7     8    1
    27     7    53    1
    28     7    54    1
    29     8    55    1
    30     8    56    1
    31     8    57    1
    32     9    10    1
    33     9    58    1
    34     9    59    1
    35    10    11    1
    36    10    19    1
    37    11    12    1
    38    11    60    1
    39    11    61    1
    40    12    13    1
    41    12    15    1
    42    12    62    1
    43    13    14    1
    44    13    63    1
    45    13    64    1
    46    14    65    1
    47    14    66    1
    48    14    67    1
    49    15    16    1
    50    15    68    1
    51    15    69    1
    52    16    17    1
    53    16    70    1
    54    16    71    1
    55    17    18    1
    56    17    72    1
    57    17    73    1
    58    18    74    1
    59    18    75    1
    60    18    76    1
    61    19    20    2
    62    19    21    1
    63    21    22    1
    64    21    77    1
    65    21    78    1
    66    22    23    1
    67    23    24    1
    68    23    79    1
    69    23    80    1
    70    24    25    2
    71    24    26    1
    72    26    27    1
    73    26    35    1
    74    27    28    1
    75    27    81    1
    76    27    82    1
    77    28    29    1
    78    28    31    1
    79    28    83    1
    80    29    30    1
    81    29    84    1
    82    29    85    1
    83    30    86    1
    84    30    87    1
    85    30    88    1
    86    31    32    1
    87    31    89    1
    88    31    90    1
    89    32    33    1
    90    32    91    1
    91    32    92    1
    92    33    34    1
    93    33    93    1
    94    33    94    1
    95    34    95    1
    96    34    96    1
    97    34    97    1
    98    35    36    1
    99    35    98    1
   100    35    99    1
   101    36    37    1
   102    36    39    1
   103    36   100    1
   104    37    38    1
   105    37   101    1
   106    37   102    1
   107    38   103    1
   108    38   104    1
   109    38   105    1
   110    39    40    1
   111    39   106    1
   112    39   107    1
   113    40    41    1
   114    40   108    1
   115    40   109    1
   116    41    42    1
   117    41   110    1
   118    41   111    1
   119    42   112    1
   120    42   113    1
   121    42   114    1
   122   115   116    1
   123   115   156    1
   124   115   157    1
   125   115   158    1
   126   116   117    1
   127   116   159    1
   128   116   160    1
   129   117   118    1
   130   117   161    1
   131   117   162    1
   132   118   119    1
   133   118   163    1
   134   118   164    1
   135   119   120    1
   136   119   122    1
   137   119   165    1
   138   120   121    1
   139   120   166    1
   140   120   167    1
   141   121   168    1
   142   121   169    1
   143   121   170    1
   144   122   123    1
   145   122   171    1
   146   122   172    1
   147   123   124    1
   148   123   132    1
   149   124   125    1
   150   124   173    1
   151   124   174    1
   152   125   126    1
   153   125   128    1
   154   125   175    1
   155   126   127    1
   156   126   176    1
   157   126   177    1
   158   127   178    1
   159   127   179    1
   160   127   180    1
   161   128   129    1
   162   128   181    1
   163   128   182    1
   164   129   130    1
   165   129   183    1
   166   129   184    1
   167   130   131    1
   168   130   185    1
   169   130   186    1
   170   131   187    1
   171   131   188    1
   172   131   189    1
   173   132   133    2
   174   132   134    1
   175   134   135    1
   176   134   190    1
   177   134   191    1
   178   135   136    1
   179   136   137    1
   180   136   192    1
   181   136   193    1
   182   137   138    2
   183   137   139    1
   184   139   140    1
   185   139   148    1
   186   140   141    1
   187   140   194    1
   188   140   195    1
   189   141   142    1
   190   141   144    1
   191   141   196    1
   192   142   143    1
   193   142   197    1
   194   142   198    1
   195   143   199    1
   196   143   200    1
   197   143   201    1
   198   144   145    1
   199   144   202    1
   200   144   203    1
   201   145   146    1
   202   145   204    1
   203   145   205    1
   204   146   147    1
   205   146   206    1
   206   146   207    1
   207   147   208    1
   208   147   209    1
   209   147   210    1
   210   148   149    1
   211   148   211    1
   212   148   212    1
   213   149   150    1
   214   149   152    1
   215   149   213    1
   216   150   151    1
   217   150   214    1
   218   150   215    1
   219   151   216    1
   220   151   217    1
   221   151   218    1
   222   152   153    1
   223   152   219    1
   224   152   220    1
   225   153   154    1
   226   153   221    1
   227   153   222    1
   228   154   155    1
   229   154   223    1
   230   154   224    1
   231   155   225    1
   232   155   226    1
   233   155   227    1
   234   228   229    1
   235   228   269    1
   236   228   270    1
   237   228   271    1
   238   229   230    1
   239   229   272    1
   240   229   273    1
   241   230   231    1
   242   230   274    1
   243   230   275    1
   244   231   232    1
   245   231   276    1
   246   231   277    1
   247   232   233    1
   248   232   235    1
   249   232   278    1
   250   233   234    1
   251   233   279    1
   252   233   280    1
   253   234   281    1
   254   234   282    1
   255   234   283    1
   256   235   236    1
   257   235   284    1
   258   235   285    1
   259   236   237    1
   260   236   245    1
   261   237   238    1
   262   237   286    1
   263   237   287    1
   264   238   239    1
   265   238   241    1
   266   238   288    1
   267   239   240    1
   268   239   289    1
   269   239   290    1
   270   240   291    1
   271   240   292    1
   272   240   293    1
   273   241   242    1
   274   241   294    1
   275   241   295    1
   276   242   243    1
   277   242   296    1
   278   242   297    1
   279   243   244    1
   280   243   298    1
   281   243   299    1
   282   244   300    1
   283   244   301    1
   284   244   302    1
   285   245   246    2
   286   245   247    1
   287   247   248    1
   288   247   303    1
   289   247   304    1
   290   248   249    1
   291   249   250    1
   292   249   305    1
   293   249   306    1
   294   250   251    2
   295   250   252    1
   296   252   253    1
   297   252   261    1
   298   253   254    1
   299   253   307    1
   300   253   308    1
   301   254   255    1
   302   254   257    1
   303   254   309    1
   304   255   256    1
   305   255   310    1
   306   255   311    1
   307   256   312    1
   308   256   313    1
   309   256   314    1
   310   257   258    1
   311   257   315    1
   312   257   316    1
   313   258   259    1
   314   258   317    1
   315   258   318    1
   316   259   260    1
   317   259   319    1
   318   259   320    1
   319   260   321    1
   320   260   322    1
   321   260   323    1
   322   261   262    1
   323   261   324    1
   324   261   325    1
   325   262   263    1
   326   262   265    1
   327   262   326    1
   328   263   264    1
   329   263   327    1
   330   263   328    1
   331   264   329    1
   332   264   330    1
   333   264   331    1
   334   265   266    1
   335   265   332    1
   336   265   333    1
   337   266   267    1
   338   266   334    1
   339   266   335    1
   340   267   268    1
   341   267   336    1
   342   267   337    1
   343   268   338    1
   344   268   339    1
   345   268   340    1
@<TRIPOS>SUBSTRUCTURE
     1 RES1      340 GROUP             0 ****  ****    0  
