@<TRIPOS>MOLECULE
cn9_YICLED_0_nunpairedes_0_charge_3 Charge: 3 Unpaired_Electrons: 3 XTB_Unpaired_Electrons: 0 XTB_Charge: 3
   340   345     1     0     0
SMALL
NoCharges
****
Generated from Architector

@<TRIPOS>ATOM
     1 Nd1      -0.2354   -0.2848   -0.0244   Nd        1 RES1   0.0000
     2 C1       -3.4846    5.2630    1.4186   C.3       1 RES1   0.0000
     3 C2       -4.8261    4.7228    1.9101   C.3       1 RES1   0.0000
     4 C3       -4.8111    4.1549    3.3337   C.3       1 RES1   0.0000
     5 C4       -4.8312    5.2064    4.4529   C.3       1 RES1   0.0000
     6 C5       -3.4770    5.6071    5.0398   C.3       1 RES1   0.0000
     7 C6       -2.7201    4.4268    5.6781   C.3       1 RES1   0.0000
     8 C7       -1.4874    4.0500    4.8519   C.3       1 RES1   0.0000
     9 C8       -0.7302    2.7967    5.3224   C.3       1 RES1   0.0000
    10 N1        0.2183    2.3610    4.2956   N.am      1 RES1   0.0000
    11 C9        1.5537    2.9785    4.4890   C.3       1 RES1   0.0000
    12 C10       2.4780    2.1517    5.3991   C.3       1 RES1   0.0000
    13 C11       3.6596    2.7639    6.2157   C.3       1 RES1   0.0000
    14 C12       4.7493    3.7711    5.7629   C.3       1 RES1   0.0000
    15 C13       6.0149    3.2312    5.0529   C.3       1 RES1   0.0000
    16 C14       6.6795    4.3052    4.1682   C.3       1 RES1   0.0000
    17 C15       7.6148    3.7710    3.0742   C.3       1 RES1   0.0000
    18 C16       8.1177    4.8816    2.1447   C.3       1 RES1   0.0000
    19 C17      -0.1946    1.7245    3.1864   C.2       1 RES1   0.0000
    20 O1        0.4506    1.5630    2.1330   O.2       1 RES1   0.0000
    21 C18      -1.6085    1.0961    3.1538   C.3       1 RES1   0.0000
    22 O2       -1.5899   -0.0274    2.2624   O.3       1 RES1   0.0000
    23 C19      -2.1171   -1.2234    2.8319   C.3       1 RES1   0.0000
    24 C20      -1.3951   -2.4171    2.1983   C.2       1 RES1   0.0000
    25 O3       -0.7511   -2.2233    1.1569   O.2       1 RES1   0.0000
    26 N2       -1.4204   -3.5950    2.8224   N.am      1 RES1   0.0000
    27 C21      -2.5768   -4.0873    3.5593   C.3       1 RES1   0.0000
    28 C22      -3.4970   -4.9274    2.6538   C.3       1 RES1   0.0000
    29 C23      -4.3345   -4.1906    1.6051   C.3       1 RES1   0.0000
    30 C24      -3.6727   -3.3848    0.4816   C.3       1 RES1   0.0000
    31 C25      -2.6188   -4.0780   -0.3822   C.3       1 RES1   0.0000
    32 C26      -1.9851   -3.0680   -1.3637   C.3       1 RES1   0.0000
    33 C27      -1.8968   -3.5146   -2.8251   C.3       1 RES1   0.0000
    34 C28      -1.4468   -2.3282   -3.6702   C.3       1 RES1   0.0000
    35 C29      -0.4309   -4.6063    2.4434   C.3       1 RES1   0.0000
    36 C30       0.4779   -5.0137    3.6072   C.3       1 RES1   0.0000
    37 C31       1.3374   -6.2443    3.2853   C.3       1 RES1   0.0000
    38 C32       0.5594   -7.5584    3.1112   C.3       1 RES1   0.0000
    39 C33       0.1502   -7.9384    1.6844   C.3       1 RES1   0.0000
    40 C34       1.3263   -8.3283    0.7920   C.3       1 RES1   0.0000
    41 C35       0.9129   -8.5891   -0.6594   C.3       1 RES1   0.0000
    42 C36       0.0885   -9.8554   -0.8486   C.3       1 RES1   0.0000
    43 H1       -3.5917    5.6455    0.4024   H         1 RES1   0.0000
    44 H2       -2.7229    4.4787    1.4208   H         1 RES1   0.0000
    45 H3       -3.1402    6.0787    2.0490   H         1 RES1   0.0000
    46 H4       -5.1546    3.9317    1.2274   H         1 RES1   0.0000
    47 H5       -5.5678    5.5213    1.8587   H         1 RES1   0.0000
    48 H6       -3.9570    3.4851    3.4552   H         1 RES1   0.0000
    49 H7       -5.7042    3.5373    3.4413   H         1 RES1   0.0000
    50 H8       -5.4333    4.8159    5.2737   H         1 RES1   0.0000
    51 H9       -5.3296    6.1041    4.0874   H         1 RES1   0.0000
    52 H10      -3.6717    6.3735    5.7932   H         1 RES1   0.0000
    53 H11      -2.8511    6.0649    4.2747   H         1 RES1   0.0000
    54 H12      -3.3863    3.5654    5.7566   H         1 RES1   0.0000
    55 H13      -2.4277    4.6941    6.6930   H         1 RES1   0.0000
    56 H14      -0.7983    4.8940    4.8552   H         1 RES1   0.0000
    57 H15      -1.7980    3.8827    3.8188   H         1 RES1   0.0000
    58 H16      -1.4442    2.0138    5.5606   H         1 RES1   0.0000
    59 H17      -0.1535    3.0136    6.2238   H         1 RES1   0.0000
    60 H18       1.3848    3.9595    4.9292   H         1 RES1   0.0000
    61 H19       1.9907    3.0916    3.5131   H         1 RES1   0.0000
    62 H20       2.8410    1.3304    4.7964   H         1 RES1   0.0000
    63 H21       1.8334    1.7278    6.1728   H         1 RES1   0.0000
    64 H22       4.1949    1.8785    6.5688   H         1 RES1   0.0000
    65 H23       3.1974    3.2292    7.0844   H         1 RES1   0.0000
    66 H24       5.1008    4.2189    6.6931   H         1 RES1   0.0000
    67 H25       4.3372    4.5971    5.1869   H         1 RES1   0.0000
    68 H26       5.7782    2.3556    4.4550   H         1 RES1   0.0000
    69 H27       6.7320    2.9159    5.8111   H         1 RES1   0.0000
    70 H28       7.2264    5.0005    4.8042   H         1 RES1   0.0000
    71 H29       5.9052    4.8759    3.6609   H         1 RES1   0.0000
    72 H30       7.0755    3.0211    2.4911   H         1 RES1   0.0000
    73 H31       8.4783    3.2730    3.5140   H         1 RES1   0.0000
    74 H32       7.3786    5.6722    2.0375   H         1 RES1   0.0000
    75 H33       8.3350    4.4926    1.1516   H         1 RES1   0.0000
    76 H34       9.0198    5.3289    2.5484   H         1 RES1   0.0000
    77 H35      -2.3176    1.8401    2.7604   H         1 RES1   0.0000
    78 H36      -1.9497    0.7733    4.1342   H         1 RES1   0.0000
    79 H37      -3.2073   -1.2672    2.6865   H         1 RES1   0.0000
    80 H38      -1.8933   -1.2537    3.9015   H         1 RES1   0.0000
    81 H39      -3.1206   -3.2571    4.0116   H         1 RES1   0.0000
    82 H40      -2.2107   -4.7295    4.3623   H         1 RES1   0.0000
    83 H41      -4.2004   -5.4470    3.3081   H         1 RES1   0.0000
    84 H42      -2.9145   -5.7059    2.1642   H         1 RES1   0.0000
    85 H43      -5.0116   -3.5119    2.1248   H         1 RES1   0.0000
    86 H44      -4.9493   -4.9549    1.1310   H         1 RES1   0.0000
    87 H45      -3.2417   -2.4613    0.8607   H         1 RES1   0.0000
    88 H46      -4.4888   -3.0833   -0.1748   H         1 RES1   0.0000
    89 H47      -3.0850   -4.8926   -0.9322   H         1 RES1   0.0000
    90 H48      -1.8375   -4.5087    0.2416   H         1 RES1   0.0000
    91 H49      -0.9522   -2.8453   -1.0261   H         1 RES1   0.0000
    92 H50      -2.5698   -2.1393   -1.3380   H         1 RES1   0.0000
    93 H51      -2.8618   -3.8807   -3.1795   H         1 RES1   0.0000
    94 H52      -1.1958   -4.3431   -2.9180   H         1 RES1   0.0000
    95 H53      -2.2634   -1.6198   -3.7822   H         1 RES1   0.0000
    96 H54      -1.1323   -2.6420   -4.6582   H         1 RES1   0.0000
    97 H55      -0.6151   -1.8130   -3.1801   H         1 RES1   0.0000
    98 H56       0.1704   -4.1814    1.6387   H         1 RES1   0.0000
    99 H57      -0.9336   -5.4928    2.0625   H         1 RES1   0.0000
   100 H58      -0.1111   -5.2531    4.4931   H         1 RES1   0.0000
   101 H59       1.1421   -4.1803    3.8567   H         1 RES1   0.0000
   102 H60       2.0153   -6.3753    4.1299   H         1 RES1   0.0000
   103 H61       1.9493   -6.0359    2.4073   H         1 RES1   0.0000
   104 H62      -0.3346   -7.5215    3.7366   H         1 RES1   0.0000
   105 H63       1.1690   -8.3801    3.4897   H         1 RES1   0.0000
   106 H64      -0.4002   -7.1338    1.1932   H         1 RES1   0.0000
   107 H65      -0.5258   -8.7897    1.7589   H         1 RES1   0.0000
   108 H66       1.8068   -9.2197    1.1947   H         1 RES1   0.0000
   109 H67       2.0703   -7.5277    0.7996   H         1 RES1   0.0000
   110 H68       1.8167   -8.6694   -1.2661   H         1 RES1   0.0000
   111 H69       0.3470   -7.7311   -1.0335   H         1 RES1   0.0000
   112 H70       0.6275  -10.7171   -0.4681   H         1 RES1   0.0000
   113 H71      -0.1107  -10.0160   -1.9042   H         1 RES1   0.0000
   114 H72      -0.8644   -9.7906   -0.3333   H         1 RES1   0.0000
   115 C37      -4.4090   -7.6916   -0.9660   C.3       1 RES1   0.0000
   116 C38      -4.6505   -6.8573   -2.2148   C.3       1 RES1   0.0000
   117 C39      -5.6865   -5.7598   -1.9697   C.3       1 RES1   0.0000
   118 C40      -5.7648   -4.7756   -3.1373   C.3       1 RES1   0.0000
   119 C41      -6.8644   -3.7153   -3.0223   C.3       1 RES1   0.0000
   120 C42      -6.6186   -2.6352   -1.9611   C.3       1 RES1   0.0000
   121 C43      -5.5192   -1.6307   -2.3393   C.3       1 RES1   0.0000
   122 C44      -5.4114   -0.5041   -1.2995   C.3       1 RES1   0.0000
   123 N3       -4.6190    0.6709   -1.6948   N.am      1 RES1   0.0000
   124 C45      -5.3513    1.7218   -2.3997   C.3       1 RES1   0.0000
   125 C46      -5.7932    1.3776   -3.8321   C.3       1 RES1   0.0000
   126 C47      -4.6298    1.1279   -4.7858   C.3       1 RES1   0.0000
   127 C48      -5.1258    0.7109   -6.1711   C.3       1 RES1   0.0000
   128 C49      -4.0240    0.6344   -7.2273   C.3       1 RES1   0.0000
   129 C50      -2.9759   -0.4375   -6.9307   C.3       1 RES1   0.0000
   130 C51      -2.0119   -0.6077   -8.1016   C.3       1 RES1   0.0000
   131 C52      -0.9381   -1.6477   -7.8081   C.3       1 RES1   0.0000
   132 C53      -3.3755    0.8013   -1.2470   C.2       1 RES1   0.0000
   133 O4       -2.7585   -0.1091   -0.6555   O.2       1 RES1   0.0000
   134 C54      -2.6144    2.1253   -1.4355   C.3       1 RES1   0.0000
   135 O5       -1.4955    2.1129   -0.5372   O.3       1 RES1   0.0000
   136 C55      -0.4708    2.9871   -0.9901   C.3       1 RES1   0.0000
   137 C56       0.3160    2.2624   -2.0818   C.2       1 RES1   0.0000
   138 O6        0.2106    1.0147   -2.0881   O.2       1 RES1   0.0000
   139 N4        1.0023    2.9435   -2.9880   N.am      1 RES1   0.0000
   140 C57       1.3282    4.3584   -2.8995   C.3       1 RES1   0.0000
   141 C58       2.4400    4.6208   -1.8837   C.3       1 RES1   0.0000
   142 C59       2.8784    6.0910   -1.8683   C.3       1 RES1   0.0000
   143 C60       2.3438    6.9273   -0.7071   C.3       1 RES1   0.0000
   144 C61       0.8277    6.9041   -0.5003   C.3       1 RES1   0.0000
   145 C62       0.0231    7.6678   -1.5534   C.3       1 RES1   0.0000
   146 C63      -0.0847    9.1689   -1.2753   C.3       1 RES1   0.0000
   147 C64       1.2224    9.9414   -1.3994   C.3       1 RES1   0.0000
   148 C65       1.7447    2.2157   -4.0172   C.3       1 RES1   0.0000
   149 C66       1.4300    2.5872   -5.4729   C.3       1 RES1   0.0000
   150 C67       0.0554    2.0949   -5.9216   C.3       1 RES1   0.0000
   151 C68      -1.0946    2.9821   -5.4548   C.3       1 RES1   0.0000
   152 C69      -1.2324    4.2392   -6.3082   C.3       1 RES1   0.0000
   153 C70      -2.3324    5.1830   -5.8339   C.3       1 RES1   0.0000
   154 C71      -2.0136    5.8781   -4.5124   C.3       1 RES1   0.0000
   155 C72      -3.0410    6.9601   -4.1962   C.3       1 RES1   0.0000
   156 H73      -3.7195   -8.5012   -1.1716   H         1 RES1   0.0000
   157 H74      -5.3390   -8.1235   -0.6120   H         1 RES1   0.0000
   158 H75      -3.9932   -7.0832   -0.1664   H         1 RES1   0.0000
   159 H76      -5.0069   -7.5100   -3.0095   H         1 RES1   0.0000
   160 H77      -3.7101   -6.4174   -2.5602   H         1 RES1   0.0000
   161 H78      -5.4477   -5.2262   -1.0472   H         1 RES1   0.0000
   162 H79      -6.6600   -6.2294   -1.8333   H         1 RES1   0.0000
   163 H80      -5.9478   -5.3409   -4.0521   H         1 RES1   0.0000
   164 H81      -4.8016   -4.2751   -3.2559   H         1 RES1   0.0000
   165 H82      -7.8066   -4.2113   -2.7863   H         1 RES1   0.0000
   166 H83      -6.9864   -3.2391   -3.9986   H         1 RES1   0.0000
   167 H84      -6.3543   -3.1263   -1.0244   H         1 RES1   0.0000
   168 H85      -7.5653   -2.1135   -1.8056   H         1 RES1   0.0000
   169 H86      -5.7496   -1.2173   -3.3168   H         1 RES1   0.0000
   170 H87      -4.5613   -2.1428   -2.4301   H         1 RES1   0.0000
   171 H88      -4.9666   -0.8928   -0.3792   H         1 RES1   0.0000
   172 H89      -6.4154   -0.1404   -1.0662   H         1 RES1   0.0000
   173 H90      -4.7483    2.6255   -2.4526   H         1 RES1   0.0000
   174 H91      -6.2517    1.9547   -1.8239   H         1 RES1   0.0000
   175 H92      -6.3635    2.2321   -4.2037   H         1 RES1   0.0000
   176 H93      -6.4703    0.5238   -3.8316   H         1 RES1   0.0000
   177 H94      -3.9778    0.3528   -4.3784   H         1 RES1   0.0000
   178 H95      -4.0532    2.0510   -4.8678   H         1 RES1   0.0000
   179 H96      -5.8855    1.4188   -6.5071   H         1 RES1   0.0000
   180 H97      -5.6001   -0.2686   -6.1015   H         1 RES1   0.0000
   181 H98      -3.5364    1.6077   -7.3268   H         1 RES1   0.0000
   182 H99      -4.4903    0.3997   -8.1870   H         1 RES1   0.0000
   183 H100     -3.4761   -1.3900   -6.7399   H         1 RES1   0.0000
   184 H101     -2.4076   -0.1744   -6.0336   H         1 RES1   0.0000
   185 H102     -1.5443    0.3530   -8.3266   H         1 RES1   0.0000
   186 H103     -2.5770   -0.9111   -8.9831   H         1 RES1   0.0000
   187 H104     -0.3376   -1.3428   -6.9503   H         1 RES1   0.0000
   188 H105     -0.2808   -1.7694   -8.6653   H         1 RES1   0.0000
   189 H106     -1.3985   -2.6090   -7.5885   H         1 RES1   0.0000
   190 H107     -3.2338    3.0022   -1.2067   H         1 RES1   0.0000
   191 H108     -2.2530    2.1757   -2.4717   H         1 RES1   0.0000
   192 H109      0.1719    3.1909   -0.1256   H         1 RES1   0.0000
   193 H110     -0.9086    3.9278   -1.3378   H         1 RES1   0.0000
   194 H111      0.4491    4.9492   -2.6465   H         1 RES1   0.0000
   195 H112      1.6662    4.6576   -3.8890   H         1 RES1   0.0000
   196 H113      3.3090    4.0001   -2.1062   H         1 RES1   0.0000
   197 H114      2.0683    4.3193   -0.9074   H         1 RES1   0.0000
   198 H115      2.6098    6.5503   -2.8169   H         1 RES1   0.0000
   199 H116      3.9639    6.1324   -1.7992   H         1 RES1   0.0000
   200 H117      2.6659    7.9491   -0.8764   H         1 RES1   0.0000
   201 H118      2.8379    6.5969    0.2065   H         1 RES1   0.0000
   202 H119      0.5998    7.3487    0.4712   H         1 RES1   0.0000
   203 H120      0.4843    5.8649   -0.4544   H         1 RES1   0.0000
   204 H121     -0.9927    7.2621   -1.5718   H         1 RES1   0.0000
   205 H122      0.4536    7.5108   -2.5426   H         1 RES1   0.0000
   206 H123     -0.4921    9.3151   -0.2733   H         1 RES1   0.0000
   207 H124     -0.8017    9.5856   -1.9832   H         1 RES1   0.0000
   208 H125      1.8727    9.7685   -0.5474   H         1 RES1   0.0000
   209 H126      1.0202   11.0064   -1.4399   H         1 RES1   0.0000
   210 H127      1.7449    9.6655   -2.3106   H         1 RES1   0.0000
   211 H128      1.5017    1.1597   -3.8868   H         1 RES1   0.0000
   212 H129      2.8102    2.3965   -3.8347   H         1 RES1   0.0000
   213 H130      2.2050    2.1061   -6.0782   H         1 RES1   0.0000
   214 H131      1.5275    3.6622   -5.6412   H         1 RES1   0.0000
   215 H132     -0.0798    1.0749   -5.5561   H         1 RES1   0.0000
   216 H133      0.0423    2.0575   -7.0086   H         1 RES1   0.0000
   217 H134     -0.9534    3.2535   -4.4087   H         1 RES1   0.0000
   218 H135     -2.0149    2.4063   -5.5275   H         1 RES1   0.0000
   219 H136     -1.4529    3.9351   -7.3299   H         1 RES1   0.0000
   220 H137     -0.2890    4.7842   -6.3277   H         1 RES1   0.0000
   221 H138     -3.2735    4.6382   -5.7414   H         1 RES1   0.0000
   222 H139     -2.4777    5.9549   -6.5887   H         1 RES1   0.0000
   223 H140     -1.0215    6.3317   -4.5699   H         1 RES1   0.0000
   224 H141     -1.9970    5.1500   -3.6939   H         1 RES1   0.0000
   225 H142     -3.0260    7.7263   -4.9674   H         1 RES1   0.0000
   226 H143     -2.8371    7.4374   -3.2382   H         1 RES1   0.0000
   227 H144     -4.0411    6.5315   -4.1636   H         1 RES1   0.0000
   228 C73       5.2186   -3.6986    2.2493   C.3       1 RES1   0.0000
   229 C74       4.9784   -4.6525    1.0844   C.3       1 RES1   0.0000
   230 C75       5.1218   -3.9503   -0.2635   C.3       1 RES1   0.0000
   231 C76       4.8908   -4.8582   -1.4733   C.3       1 RES1   0.0000
   232 C77       3.5584   -5.6154   -1.4855   C.3       1 RES1   0.0000
   233 C78       2.3077   -4.7536   -1.2837   C.3       1 RES1   0.0000
   234 C79       1.5529   -4.3293   -2.5434   C.3       1 RES1   0.0000
   235 C80       2.2923   -3.4870   -3.5785   C.3       1 RES1   0.0000
   236 N5        2.8197   -2.1755   -3.1858   N.am      1 RES1   0.0000
   237 C81       3.7108   -1.6129   -4.2043   C.3       1 RES1   0.0000
   238 C82       5.1370   -2.1806   -4.2835   C.3       1 RES1   0.0000
   239 C83       6.1439   -1.5586   -3.3129   C.3       1 RES1   0.0000
   240 C84       6.5084   -0.1161   -3.6690   C.3       1 RES1   0.0000
   241 C85       7.5172    0.4782   -2.6820   C.3       1 RES1   0.0000
   242 C86       8.1946    1.7628   -3.1816   C.3       1 RES1   0.0000
   243 C87       7.5152    3.0790   -2.7982   C.3       1 RES1   0.0000
   244 C88       6.1282    3.2844   -3.3976   C.3       1 RES1   0.0000
   245 C89       2.3309   -1.4337   -2.2025   C.2       1 RES1   0.0000
   246 O7        1.3263   -1.6996   -1.5139   O.2       1 RES1   0.0000
   247 C90       3.0946   -0.1571   -1.8120   C.3       1 RES1   0.0000
   248 O8        2.5723    0.2893   -0.5664   O.3       1 RES1   0.0000
   249 C91       3.2679   -0.3548    0.4889   C.3       1 RES1   0.0000
   250 C92       2.3937   -0.5115    1.7159   C.2       1 RES1   0.0000
   251 O9        1.2636   -0.9845    1.5337   O.2       1 RES1   0.0000
   252 N6        2.8957   -0.3162    2.9367   N.am      1 RES1   0.0000
   253 C93       4.1838    0.3719    3.0601   C.3       1 RES1   0.0000
   254 C94       4.2308    1.8736    2.6337   C.3       1 RES1   0.0000
   255 C95       3.3114    2.5066    1.5765   C.3       1 RES1   0.0000
   256 C96       3.5868    4.0193    1.4397   C.3       1 RES1   0.0000
   257 C97       3.3609    4.9456    2.6446   C.3       1 RES1   0.0000
   258 C98       2.0051    5.6620    2.7275   C.3       1 RES1   0.0000
   259 C99       2.0103    6.8226    3.7393   C.3       1 RES1   0.0000
   260 C100      1.8089    6.4739    5.2105   C.3       1 RES1   0.0000
   261 C101      2.4134   -1.2624    3.9743   C.3       1 RES1   0.0000
   262 C102      1.4755   -0.8105    5.1176   C.3       1 RES1   0.0000
   263 C103      0.7314   -1.9908    5.7720   C.3       1 RES1   0.0000
   264 C104      0.1928   -1.7211    7.1886   C.3       1 RES1   0.0000
   265 C105     -0.8669   -0.6244    7.3522   C.3       1 RES1   0.0000
   266 C106     -2.1986   -0.9099    6.6619   C.3       1 RES1   0.0000
   267 C107     -3.3080    0.0978    6.9845   C.3       1 RES1   0.0000
   268 C108     -4.4435    0.0115    5.9652   C.3       1 RES1   0.0000
   269 H145      5.1857   -4.2331    3.1957   H         1 RES1   0.0000
   270 H146      4.4570   -2.9166    2.2696   H         1 RES1   0.0000
   271 H147      6.1953   -3.2296    2.1627   H         1 RES1   0.0000
   272 H148      3.9787   -5.0763    1.1872   H         1 RES1   0.0000
   273 H149      5.6955   -5.4703    1.1392   H         1 RES1   0.0000
   274 H150      6.1289   -3.5350   -0.3401   H         1 RES1   0.0000
   275 H151      4.4285   -3.1018   -0.2981   H         1 RES1   0.0000
   276 H152      5.6896   -5.5996   -1.5053   H         1 RES1   0.0000
   277 H153      4.9857   -4.2470   -2.3704   H         1 RES1   0.0000
   278 H154      3.5881   -6.3568   -0.6870   H         1 RES1   0.0000
   279 H155      3.4805   -6.1690   -2.4240   H         1 RES1   0.0000
   280 H156      2.5454   -3.8671   -0.6987   H         1 RES1   0.0000
   281 H157      1.5934   -5.3282   -0.6921   H         1 RES1   0.0000
   282 H158      0.6661   -3.7938   -2.2163   H         1 RES1   0.0000
   283 H159      1.2315   -5.2261   -3.0803   H         1 RES1   0.0000
   284 H160      1.6092   -3.3171   -4.4177   H         1 RES1   0.0000
   285 H161      3.1407   -4.0650   -3.9493   H         1 RES1   0.0000
   286 H162      3.7699   -0.5359   -4.0721   H         1 RES1   0.0000
   287 H163      3.2235   -1.7957   -5.1677   H         1 RES1   0.0000
   288 H164      5.5046   -2.0049   -5.2970   H         1 RES1   0.0000
   289 H165      5.1141   -3.2625   -4.1507   H         1 RES1   0.0000
   290 H166      7.0576   -2.1531   -3.3550   H         1 RES1   0.0000
   291 H167      5.7672   -1.6204   -2.2890   H         1 RES1   0.0000
   292 H168      6.9428   -0.1036   -4.6700   H         1 RES1   0.0000
   293 H169      5.6161    0.5092   -3.6983   H         1 RES1   0.0000
   294 H170      8.2931   -0.2708   -2.5110   H         1 RES1   0.0000
   295 H171      7.0326    0.6709   -1.7196   H         1 RES1   0.0000
   296 H172      8.2946    1.7098   -4.2661   H         1 RES1   0.0000
   297 H173      9.2030    1.7967   -2.7683   H         1 RES1   0.0000
   298 H174      8.1588    3.8896   -3.1447   H         1 RES1   0.0000
   299 H175      7.4568    3.1478   -1.7090   H         1 RES1   0.0000
   300 H176      6.1579    3.1271   -4.4723   H         1 RES1   0.0000
   301 H177      5.7924    4.3027   -3.2144   H         1 RES1   0.0000
   302 H178      5.4018    2.6001   -2.9592   H         1 RES1   0.0000
   303 H179      2.9399    0.6487   -2.5250   H         1 RES1   0.0000
   304 H180      4.1665   -0.3593   -1.7316   H         1 RES1   0.0000
   305 H181      4.2078    0.1587    0.6746   H         1 RES1   0.0000
   306 H182      3.4836   -1.3998    0.2027   H         1 RES1   0.0000
   307 H183      4.9411   -0.1972    2.5104   H         1 RES1   0.0000
   308 H184      4.4851    0.3173    4.1058   H         1 RES1   0.0000
   309 H185      5.2528    2.0609    2.3003   H         1 RES1   0.0000
   310 H186      4.1006    2.4781    3.5254   H         1 RES1   0.0000
   311 H187      2.2622    2.3371    1.7960   H         1 RES1   0.0000
   312 H188      3.4791    2.1064    0.5807   H         1 RES1   0.0000
   313 H189      2.9756    4.3795    0.6201   H         1 RES1   0.0000
   314 H190      4.6276    4.1158    1.1236   H         1 RES1   0.0000
   315 H191      4.1281    5.7210    2.5993   H         1 RES1   0.0000
   316 H192      3.5400    4.3805    3.5497   H         1 RES1   0.0000
   317 H193      1.1954    4.9626    2.9479   H         1 RES1   0.0000
   318 H194      1.7843    6.1004    1.7562   H         1 RES1   0.0000
   319 H195      1.2102    7.5089    3.4562   H         1 RES1   0.0000
   320 H196      2.9506    7.3679    3.6243   H         1 RES1   0.0000
   321 H197      0.8008    6.1052    5.3845   H         1 RES1   0.0000
   322 H198      1.9339    7.3792    5.7954   H         1 RES1   0.0000
   323 H199      2.5259    5.7465    5.5773   H         1 RES1   0.0000
   324 H200      3.3143   -1.7019    4.4116   H         1 RES1   0.0000
   325 H201      1.8801   -2.0333    3.4087   H         1 RES1   0.0000
   326 H202      0.7426   -0.1015    4.7340   H         1 RES1   0.0000
   327 H203      2.0625   -0.3350    5.8984   H         1 RES1   0.0000
   328 H204      1.4163   -2.8360    5.8565   H         1 RES1   0.0000
   329 H205     -0.0970   -2.3003    5.1349   H         1 RES1   0.0000
   330 H206      1.0300   -1.4634    7.8369   H         1 RES1   0.0000
   331 H207     -0.2168   -2.6605    7.5630   H         1 RES1   0.0000
   332 H208     -0.4624    0.3181    6.9809   H         1 RES1   0.0000
   333 H209     -1.0478   -0.4995    8.4203   H         1 RES1   0.0000
   334 H210     -2.5478   -1.9085    6.9277   H         1 RES1   0.0000
   335 H211     -2.0290   -0.9085    5.5834   H         1 RES1   0.0000
   336 H212     -2.9131    1.1181    7.0084   H         1 RES1   0.0000
   337 H213     -3.7065   -0.1182    7.9752   H         1 RES1   0.0000
   338 H214     -4.1200    0.3407    4.9764   H         1 RES1   0.0000
   339 H215     -5.2773    0.6403    6.2628   H         1 RES1   0.0000
   340 H216     -4.8047   -1.0116    5.8819   H         1 RES1   0.0000
@<TRIPOS>BOND
     1     1    20    1
     2     1    22    1
     3     1    25    1
     4     1   133    1
     5     1   135    1
     6     1   138    1
     7     1   246    1
     8     1   248    1
     9     1   251    1
    10     2     3    1
    11     2    43    1
    12     2    44    1
    13     2    45    1
    14     3     4    1
    15     3    46    1
    16     3    47    1
    17     4     5    1
    18     4    48    1
    19     4    49    1
    20     5     6    1
    21     5    50    1
    22     5    51    1
    23     6     7    1
    24     6    52    1
    25     6    53    1
    26     7     8    1
    27     7    54    1
    28     7    55    1
    29     8     9    1
    30     8    56    1
    31     8    57    1
    32     9    10    1
    33     9    58    1
    34     9    59    1
    35    10    11    1
    36    10    19    1
    37    11    12    1
    38    11    60    1
    39    11    61    1
    40    12    13    1
    41    12    62    1
    42    12    63    1
    43    13    14    1
    44    13    64    1
    45    13    65    1
    46    14    15    1
    47    14    66    1
    48    14    67    1
    49    15    16    1
    50    15    68    1
    51    15    69    1
    52    16    17    1
    53    16    70    1
    54    16    71    1
    55    17    18    1
    56    17    72    1
    57    17    73    1
    58    18    74    1
    59    18    75    1
    60    18    76    1
    61    19    20    2
    62    19    21    1
    63    21    22    1
    64    21    77    1
    65    21    78    1
    66    22    23    1
    67    23    24    1
    68    23    79    1
    69    23    80    1
    70    24    25    2
    71    24    26    1
    72    26    27    1
    73    26    35    1
    74    27    28    1
    75    27    81    1
    76    27    82    1
    77    28    29    1
    78    28    83    1
    79    28    84    1
    80    29    30    1
    81    29    85    1
    82    29    86    1
    83    30    31    1
    84    30    87    1
    85    30    88    1
    86    31    32    1
    87    31    89    1
    88    31    90    1
    89    32    33    1
    90    32    91    1
    91    32    92    1
    92    33    34    1
    93    33    93    1
    94    33    94    1
    95    34    95    1
    96    34    96    1
    97    34    97    1
    98    35    36    1
    99    35    98    1
   100    35    99    1
   101    36    37    1
   102    36   100    1
   103    36   101    1
   104    37    38    1
   105    37   102    1
   106    37   103    1
   107    38    39    1
   108    38   104    1
   109    38   105    1
   110    39    40    1
   111    39   106    1
   112    39   107    1
   113    40    41    1
   114    40   108    1
   115    40   109    1
   116    41    42    1
   117    41   110    1
   118    41   111    1
   119    42   112    1
   120    42   113    1
   121    42   114    1
   122   115   116    1
   123   115   156    1
   124   115   157    1
   125   115   158    1
   126   116   117    1
   127   116   159    1
   128   116   160    1
   129   117   118    1
   130   117   161    1
   131   117   162    1
   132   118   119    1
   133   118   163    1
   134   118   164    1
   135   119   120    1
   136   119   165    1
   137   119   166    1
   138   120   121    1
   139   120   167    1
   140   120   168    1
   141   121   122    1
   142   121   169    1
   143   121   170    1
   144   122   123    1
   145   122   171    1
   146   122   172    1
   147   123   124    1
   148   123   132    1
   149   124   125    1
   150   124   173    1
   151   124   174    1
   152   125   126    1
   153   125   175    1
   154   125   176    1
   155   126   127    1
   156   126   177    1
   157   126   178    1
   158   127   128    1
   159   127   179    1
   160   127   180    1
   161   128   129    1
   162   128   181    1
   163   128   182    1
   164   129   130    1
   165   129   183    1
   166   129   184    1
   167   130   131    1
   168   130   185    1
   169   130   186    1
   170   131   187    1
   171   131   188    1
   172   131   189    1
   173   132   133    2
   174   132   134    1
   175   134   135    1
   176   134   190    1
   177   134   191    1
   178   135   136    1
   179   136   137    1
   180   136   192    1
   181   136   193    1
   182   137   138    2
   183   137   139    1
   184   139   140    1
   185   139   148    1
   186   140   141    1
   187   140   194    1
   188   140   195    1
   189   141   142    1
   190   141   196    1
   191   141   197    1
   192   142   143    1
   193   142   198    1
   194   142   199    1
   195   143   144    1
   196   143   200    1
   197   143   201    1
   198   144   145    1
   199   144   202    1
   200   144   203    1
   201   145   146    1
   202   145   204    1
   203   145   205    1
   204   146   147    1
   205   146   206    1
   206   146   207    1
   207   147   208    1
   208   147   209    1
   209   147   210    1
   210   148   149    1
   211   148   211    1
   212   148   212    1
   213   149   150    1
   214   149   213    1
   215   149   214    1
   216   150   151    1
   217   150   215    1
   218   150   216    1
   219   151   152    1
   220   151   217    1
   221   151   218    1
   222   152   153    1
   223   152   219    1
   224   152   220    1
   225   153   154    1
   226   153   221    1
   227   153   222    1
   228   154   155    1
   229   154   223    1
   230   154   224    1
   231   155   225    1
   232   155   226    1
   233   155   227    1
   234   228   229    1
   235   228   269    1
   236   228   270    1
   237   228   271    1
   238   229   230    1
   239   229   272    1
   240   229   273    1
   241   230   231    1
   242   230   274    1
   243   230   275    1
   244   231   232    1
   245   231   276    1
   246   231   277    1
   247   232   233    1
   248   232   278    1
   249   232   279    1
   250   233   234    1
   251   233   280    1
   252   233   281    1
   253   234   235    1
   254   234   282    1
   255   234   283    1
   256   235   236    1
   257   235   284    1
   258   235   285    1
   259   236   237    1
   260   236   245    1
   261   237   238    1
   262   237   286    1
   263   237   287    1
   264   238   239    1
   265   238   288    1
   266   238   289    1
   267   239   240    1
   268   239   290    1
   269   239   291    1
   270   240   241    1
   271   240   292    1
   272   240   293    1
   273   241   242    1
   274   241   294    1
   275   241   295    1
   276   242   243    1
   277   242   296    1
   278   242   297    1
   279   243   244    1
   280   243   298    1
   281   243   299    1
   282   244   300    1
   283   244   301    1
   284   244   302    1
   285   245   246    2
   286   245   247    1
   287   247   248    1
   288   247   303    1
   289   247   304    1
   290   248   249    1
   291   249   250    1
   292   249   305    1
   293   249   306    1
   294   250   251    2
   295   250   252    1
   296   252   253    1
   297   252   261    1
   298   253   254    1
   299   253   307    1
   300   253   308    1
   301   254   255    1
   302   254   309    1
   303   254   310    1
   304   255   256    1
   305   255   311    1
   306   255   312    1
   307   256   257    1
   308   256   313    1
   309   256   314    1
   310   257   258    1
   311   257   315    1
   312   257   316    1
   313   258   259    1
   314   258   317    1
   315   258   318    1
   316   259   260    1
   317   259   319    1
   318   259   320    1
   319   260   321    1
   320   260   322    1
   321   260   323    1
   322   261   262    1
   323   261   324    1
   324   261   325    1
   325   262   263    1
   326   262   326    1
   327   262   327    1
   328   263   264    1
   329   263   328    1
   330   263   329    1
   331   264   265    1
   332   264   330    1
   333   264   331    1
   334   265   266    1
   335   265   332    1
   336   265   333    1
   337   266   267    1
   338   266   334    1
   339   266   335    1
   340   267   268    1
   341   267   336    1
   342   267   337    1
   343   268   338    1
   344   268   339    1
   345   268   340    1
@<TRIPOS>SUBSTRUCTURE
     1 RES1      340 GROUP             0 ****  ****    0  
