@<TRIPOS>MOLECULE
cn9_YICLED_0_nunpairedes_0_charge_3 Charge: 3 Unpaired_Electrons: 3 XTB_Unpaired_Electrons: 0 XTB_Charge: 3
   214   219     1     0     0
SMALL
NoCharges
****
Generated from Architector

@<TRIPOS>ATOM
     1 Nd1      -0.1119    0.0642    0.0008   Nd        1 RES1   0.0000
     2 C1       -5.3393   -3.6561   -2.3712   C.3       1 RES1   0.0000
     3 C2       -4.8290   -4.5526   -1.2479   C.3       1 RES1   0.0000
     4 C3       -4.5790   -3.7986    0.0614   C.3       1 RES1   0.0000
     5 C4       -5.8583   -3.2251    0.6700   C.3       1 RES1   0.0000
     6 C5       -5.6368   -2.5715    2.0351   C.3       1 RES1   0.0000
     7 C6       -4.6760   -1.3833    1.9722   C.3       1 RES1   0.0000
     8 C7       -4.7612   -0.5032    3.2164   C.3       1 RES1   0.0000
     9 C8       -3.8622    0.7366    3.1431   C.3       1 RES1   0.0000
    10 N1       -2.5053    0.6053    3.7003   N.am      1 RES1   0.0000
    11 C9       -2.2337    1.1749    5.0215   C.3       1 RES1   0.0000
    12 C10      -1.7554    0.2090    6.1156   C.3       1 RES1   0.0000
    13 C11      -2.6562   -1.0059    6.3328   C.3       1 RES1   0.0000
    14 C12      -2.3350   -2.2013    5.4377   C.3       1 RES1   0.0000
    15 C13      -3.3652   -3.3279    5.5541   C.3       1 RES1   0.0000
    16 C14      -3.5134   -3.9407    6.9503   C.3       1 RES1   0.0000
    17 C15      -4.4731   -3.2274    7.9116   C.3       1 RES1   0.0000
    18 C16      -5.8938   -3.0720    7.3798   C.3       1 RES1   0.0000
    19 C17      -1.5256    0.2047    2.8959   C.2       1 RES1   0.0000
    20 O1       -1.7172   -0.2533    1.7568   O.2       1 RES1   0.0000
    21 C18      -0.0685    0.3895    3.3593   C.3       1 RES1   0.0000
    22 O2        0.8541   -0.1683    2.4255   O.3       1 RES1   0.0000
    23 C19       1.3005   -1.4845    2.7262   C.3       1 RES1   0.0000
    24 C20       0.7660   -2.5054    1.7081   C.2       1 RES1   0.0000
    25 O3        0.0431   -2.1356    0.7660   O.2       1 RES1   0.0000
    26 N2        1.1661   -3.7621    1.8816   N.am      1 RES1   0.0000
    27 C21       0.7322   -4.8133    0.9785   C.3       1 RES1   0.0000
    28 C22       2.1132   -4.1674    2.9036   C.3       1 RES1   0.0000
    29 H1       -5.3987   -4.2175   -3.2993   H         1 RES1   0.0000
    30 H2       -6.3320   -3.2770   -2.1480   H         1 RES1   0.0000
    31 H3       -4.6688   -2.8092   -2.5207   H         1 RES1   0.0000
    32 H4       -5.5539   -5.3478   -1.0695   H         1 RES1   0.0000
    33 H5       -3.8951   -5.0268   -1.5663   H         1 RES1   0.0000
    34 H6       -4.1335   -4.4906    0.7808   H         1 RES1   0.0000
    35 H7       -3.8569   -2.9948   -0.1186   H         1 RES1   0.0000
    36 H8       -6.2921   -2.4883   -0.0086   H         1 RES1   0.0000
    37 H9       -6.5798   -4.0373    0.7796   H         1 RES1   0.0000
    38 H10      -6.6068   -2.2356    2.4053   H         1 RES1   0.0000
    39 H11      -5.2596   -3.3167    2.7342   H         1 RES1   0.0000
    40 H12      -3.6532   -1.7301    1.8265   H         1 RES1   0.0000
    41 H13      -4.9462   -0.7802    1.1015   H         1 RES1   0.0000
    42 H14      -5.7978   -0.1822    3.3182   H         1 RES1   0.0000
    43 H15      -4.5173   -1.0749    4.1051   H         1 RES1   0.0000
    44 H16      -3.7327    1.0025    2.0928   H         1 RES1   0.0000
    45 H17      -4.3501    1.5738    3.6453   H         1 RES1   0.0000
    46 H18      -1.4997    1.9824    4.9199   H         1 RES1   0.0000
    47 H19      -3.1571    1.6247    5.3878   H         1 RES1   0.0000
    48 H20      -0.7335   -0.1406    5.9631   H         1 RES1   0.0000
    49 H21      -1.7354    0.7922    7.0375   H         1 RES1   0.0000
    50 H22      -2.5260   -1.3410    7.3585   H         1 RES1   0.0000
    51 H23      -3.6997   -0.7148    6.2163   H         1 RES1   0.0000
    52 H24      -2.2813   -1.8954    4.3899   H         1 RES1   0.0000
    53 H25      -1.3503   -2.5908    5.7121   H         1 RES1   0.0000
    54 H26      -4.3374   -2.9660    5.2234   H         1 RES1   0.0000
    55 H27      -3.0674   -4.1190    4.8615   H         1 RES1   0.0000
    56 H28      -3.8833   -4.9600    6.8286   H         1 RES1   0.0000
    57 H29      -2.5286   -4.0073    7.4188   H         1 RES1   0.0000
    58 H30      -4.5122   -3.8213    8.8273   H         1 RES1   0.0000
    59 H31      -4.0961   -2.2431    8.1890   H         1 RES1   0.0000
    60 H32      -6.3136   -4.0346    7.1010   H         1 RES1   0.0000
    61 H33      -6.5224   -2.6389    8.1526   H         1 RES1   0.0000
    62 H34      -5.9354   -2.4126    6.5146   H         1 RES1   0.0000
    63 H35       0.1166    1.4708    3.3819   H         1 RES1   0.0000
    64 H36       0.1182   -0.0135    4.3578   H         1 RES1   0.0000
    65 H37       2.4010   -1.4946    2.6856   H         1 RES1   0.0000
    66 H38       1.0058   -1.7850    3.7389   H         1 RES1   0.0000
    67 H39       0.1421   -4.3793    0.1741   H         1 RES1   0.0000
    68 H40       1.6050   -5.3258    0.5704   H         1 RES1   0.0000
    69 H41       0.1253   -5.5471    1.5115   H         1 RES1   0.0000
    70 H42       3.0716   -3.6613    2.7706   H         1 RES1   0.0000
    71 H43       1.7421   -3.9683    3.9075   H         1 RES1   0.0000
    72 H44       2.2780   -5.2383    2.8157   H         1 RES1   0.0000
    73 C23       4.4825    5.6880   -0.9111   C.3       1 RES1   0.0000
    74 C24       3.6491    5.8663   -2.1761   C.3       1 RES1   0.0000
    75 C25       2.1630    5.5412   -1.9863   C.3       1 RES1   0.0000
    76 C26       1.4529    6.5422   -1.0754   C.3       1 RES1   0.0000
    77 C27      -0.0700    6.4056   -1.0562   C.3       1 RES1   0.0000
    78 C28      -0.6100    5.1296   -0.4024   C.3       1 RES1   0.0000
    79 C29      -2.1028    5.2819   -0.0969   C.3       1 RES1   0.0000
    80 C30      -2.6947    4.1445    0.7445   C.3       1 RES1   0.0000
    81 N3       -3.3058    3.0541   -0.0229   N.am      1 RES1   0.0000
    82 C31      -4.7363    3.1135   -0.3119   C.3       1 RES1   0.0000
    83 C32      -5.2034    2.9787   -1.7682   C.3       1 RES1   0.0000
    84 C33      -4.5495    3.9508   -2.7495   C.3       1 RES1   0.0000
    85 C34      -3.1906    3.5213   -3.2997   C.3       1 RES1   0.0000
    86 C35      -2.4760    4.6409   -4.0615   C.3       1 RES1   0.0000
    87 C36      -3.2015    5.1752   -5.3000   C.3       1 RES1   0.0000
    88 C37      -4.2836    6.2361   -5.0603   C.3       1 RES1   0.0000
    89 C38      -3.8154    7.4435   -4.2553   C.3       1 RES1   0.0000
    90 C39      -2.5796    1.9614   -0.2052   C.2       1 RES1   0.0000
    91 O4       -1.4106    1.8666    0.2163   O.2       1 RES1   0.0000
    92 C40      -3.2270    0.7785   -0.9320   C.3       1 RES1   0.0000
    93 O5       -2.3882   -0.3734   -0.8803   O.3       1 RES1   0.0000
    94 C41      -2.1043   -0.8892   -2.1667   C.3       1 RES1   0.0000
    95 C42      -1.0374   -0.0106   -2.8436   C.2       1 RES1   0.0000
    96 O6       -0.3884    0.7848   -2.1414   O.2       1 RES1   0.0000
    97 N4       -0.8169   -0.1766   -4.1360   N.am      1 RES1   0.0000
    98 C43       0.3279    0.4976   -4.7216   C.3       1 RES1   0.0000
    99 C44      -1.7198   -0.9488   -4.9667   C.3       1 RES1   0.0000
   100 H45       5.5289    5.8880   -1.1253   H         1 RES1   0.0000
   101 H46       4.1636    6.3743   -0.1314   H         1 RES1   0.0000
   102 H47       4.3973    4.6667   -0.5422   H         1 RES1   0.0000
   103 H48       3.7424    6.8963   -2.5235   H         1 RES1   0.0000
   104 H49       4.0573    5.2208   -2.9588   H         1 RES1   0.0000
   105 H50       1.6827    5.5719   -2.9670   H         1 RES1   0.0000
   106 H51       2.0553    4.5228   -1.5974   H         1 RES1   0.0000
   107 H52       1.8339    6.4709   -0.0550   H         1 RES1   0.0000
   108 H53       1.6918    7.5431   -1.4388   H         1 RES1   0.0000
   109 H54      -0.4635    7.2616   -0.5052   H         1 RES1   0.0000
   110 H55      -0.4392    6.4763   -2.0788   H         1 RES1   0.0000
   111 H56      -0.4327    4.2571   -1.0345   H         1 RES1   0.0000
   112 H57      -0.0843    4.9640    0.5406   H         1 RES1   0.0000
   113 H58      -2.2228    6.2118    0.4596   H         1 RES1   0.0000
   114 H59      -2.6726    5.3785   -1.0176   H         1 RES1   0.0000
   115 H60      -1.8917    3.6981    1.3337   H         1 RES1   0.0000
   116 H61      -3.4496    4.5349    1.4271   H         1 RES1   0.0000
   117 H62      -5.2439    2.3467    0.2876   H         1 RES1   0.0000
   118 H63      -5.0762    4.0864    0.0388   H         1 RES1   0.0000
   119 H64      -5.1322    1.9613   -2.1506   H         1 RES1   0.0000
   120 H65      -6.2697    3.2062   -1.7438   H         1 RES1   0.0000
   121 H66      -5.2149    4.0603   -3.6028   H         1 RES1   0.0000
   122 H67      -4.4675    4.9298   -2.2782   H         1 RES1   0.0000
   123 H68      -2.5275    3.2013   -2.4927   H         1 RES1   0.0000
   124 H69      -3.3301    2.6663   -3.9690   H         1 RES1   0.0000
   125 H70      -2.2813    5.4662   -3.3792   H         1 RES1   0.0000
   126 H71      -1.5038    4.2531   -4.3763   H         1 RES1   0.0000
   127 H72      -2.4519    5.6259   -5.9530   H         1 RES1   0.0000
   128 H73      -3.6444    4.3376   -5.8443   H         1 RES1   0.0000
   129 H74      -4.6143    6.5849   -6.0411   H         1 RES1   0.0000
   130 H75      -5.1552    5.8045   -4.5687   H         1 RES1   0.0000
   131 H76      -2.9503    7.9112   -4.7180   H         1 RES1   0.0000
   132 H77      -4.6144    8.1778   -4.2105   H         1 RES1   0.0000
   133 H78      -3.5591    7.1760   -3.2317   H         1 RES1   0.0000
   134 H79      -4.1865    0.5294   -0.4589   H         1 RES1   0.0000
   135 H80      -3.4045    1.0600   -1.9730   H         1 RES1   0.0000
   136 H81      -1.6567   -1.8793   -2.0037   H         1 RES1   0.0000
   137 H82      -3.0270   -0.9985   -2.7517   H         1 RES1   0.0000
   138 H83       0.0658    1.4896   -5.0889   H         1 RES1   0.0000
   139 H84       1.0951    0.6054   -3.9565   H         1 RES1   0.0000
   140 H85       0.7345   -0.0912   -5.5394   H         1 RES1   0.0000
   141 H86      -1.7920   -1.9856   -4.6331   H         1 RES1   0.0000
   142 H87      -2.7081   -0.4929   -4.9461   H         1 RES1   0.0000
   143 H88      -1.3730   -0.9197   -5.9944   H         1 RES1   0.0000
   144 C45      -2.5521   -0.2417   -8.2626   C.3       1 RES1   0.0000
   145 C46      -1.2298   -0.1389   -9.0199   C.3       1 RES1   0.0000
   146 C47      -0.0072   -0.6779   -8.2681   C.3       1 RES1   0.0000
   147 C48       0.0633   -2.2049   -8.1789   C.3       1 RES1   0.0000
   148 C49       1.2388   -2.7096   -7.3245   C.3       1 RES1   0.0000
   149 C50       0.8124   -3.0376   -5.8942   C.3       1 RES1   0.0000
   150 C51       1.9755   -3.2977   -4.9325   C.3       1 RES1   0.0000
   151 C52       1.4233   -3.4913   -3.5094   C.3       1 RES1   0.0000
   152 N5        2.3506   -3.0861   -2.4495   N.am      1 RES1   0.0000
   153 C53       3.3930   -4.0617   -2.1433   C.3       1 RES1   0.0000
   154 C54       4.8646   -3.6531   -2.0997   C.3       1 RES1   0.0000
   155 C55       5.3954   -3.0489   -3.3957   C.3       1 RES1   0.0000
   156 C56       5.0672   -1.5723   -3.5964   C.3       1 RES1   0.0000
   157 C57       5.3222   -1.0781   -5.0214   C.3       1 RES1   0.0000
   158 C58       6.7773   -1.1413   -5.4889   C.3       1 RES1   0.0000
   159 C59       7.2782   -2.5014   -5.9901   C.3       1 RES1   0.0000
   160 C60       6.4048   -3.1373   -7.0663   C.3       1 RES1   0.0000
   161 C61       2.0417   -2.0547   -1.6718   C.2       1 RES1   0.0000
   162 O7        0.9626   -1.4347   -1.7547   O.2       1 RES1   0.0000
   163 C62       3.0773   -1.5471   -0.6635   C.3       1 RES1   0.0000
   164 O8        2.4988   -0.4383    0.0038   O.3       1 RES1   0.0000
   165 C63       3.4472    0.5203    0.4394   C.3       1 RES1   0.0000
   166 C64       2.6391    1.7663    0.8161   C.2       1 RES1   0.0000
   167 O9        1.4206    1.7979    0.5572   O.2       1 RES1   0.0000
   168 N6        3.2705    2.7734    1.4007   N.am      1 RES1   0.0000
   169 C65       2.4882    3.9599    1.7195   C.3       1 RES1   0.0000
   170 C66       4.6828    2.7428    1.7215   C.3       1 RES1   0.0000
   171 H89      -3.3550    0.1207   -8.8978   H         1 RES1   0.0000
   172 H90      -2.7887   -1.2676   -7.9884   H         1 RES1   0.0000
   173 H91      -2.5417    0.3772   -7.3660   H         1 RES1   0.0000
   174 H92      -1.3204   -0.6683   -9.9684   H         1 RES1   0.0000
   175 H93      -1.0534    0.9175   -9.2399   H         1 RES1   0.0000
   176 H94       0.8881   -0.3316   -8.7882   H         1 RES1   0.0000
   177 H95       0.0176   -0.2226   -7.2783   H         1 RES1   0.0000
   178 H96      -0.8727   -2.6161   -7.7960   H         1 RES1   0.0000
   179 H97       0.1796   -2.5711   -9.1957   H         1 RES1   0.0000
   180 H98       1.6642   -3.6048   -7.7710   H         1 RES1   0.0000
   181 H99       2.0268   -1.9539   -7.3101   H         1 RES1   0.0000
   182 H100      0.2633   -2.1915   -5.4967   H         1 RES1   0.0000
   183 H101      0.1364   -3.8953   -5.9037   H         1 RES1   0.0000
   184 H102      2.5441   -4.1755   -5.2426   H         1 RES1   0.0000
   185 H103      2.6346   -2.4287   -4.9531   H         1 RES1   0.0000
   186 H104      0.5306   -2.8774   -3.3919   H         1 RES1   0.0000
   187 H105      1.1404   -4.5380   -3.3623   H         1 RES1   0.0000
   188 H106      3.1325   -4.5287   -1.1883   H         1 RES1   0.0000
   189 H107      3.3166   -4.8233   -2.9173   H         1 RES1   0.0000
   190 H108      5.1103   -3.0115   -1.2565   H         1 RES1   0.0000
   191 H109      5.3971   -4.5893   -1.9289   H         1 RES1   0.0000
   192 H110      6.4779   -3.1464   -3.3851   H         1 RES1   0.0000
   193 H111      5.0187   -3.6303   -4.2357   H         1 RES1   0.0000
   194 H112      4.0139   -1.3875   -3.3726   H         1 RES1   0.0000
   195 H113      5.6662   -0.9755   -2.9032   H         1 RES1   0.0000
   196 H114      4.6992   -1.6417   -5.7140   H         1 RES1   0.0000
   197 H115      4.9960   -0.0362   -5.0691   H         1 RES1   0.0000
   198 H116      6.8891   -0.4320   -6.3103   H         1 RES1   0.0000
   199 H117      7.4263   -0.8039   -4.6776   H         1 RES1   0.0000
   200 H118      8.2750   -2.3421   -6.4062   H         1 RES1   0.0000
   201 H119      7.3888   -3.2063   -5.1661   H         1 RES1   0.0000
   202 H120      6.2733   -2.4653   -7.9101   H         1 RES1   0.0000
   203 H121      6.8801   -4.0447   -7.4275   H         1 RES1   0.0000
   204 H122      5.4229   -3.4113   -6.6839   H         1 RES1   0.0000
   205 H123      3.3524   -2.3327    0.0516   H         1 RES1   0.0000
   206 H124      3.9827   -1.2475   -1.2041   H         1 RES1   0.0000
   207 H125      4.0354    0.1429    1.2903   H         1 RES1   0.0000
   208 H126      4.1548    0.7797   -0.3636   H         1 RES1   0.0000
   209 H127      1.6559    3.6956    2.3777   H         1 RES1   0.0000
   210 H128      3.1223    4.7015    2.2006   H         1 RES1   0.0000
   211 H129      2.0713    4.3775    0.8004   H         1 RES1   0.0000
   212 H130      4.9040    1.9713    2.4602   H         1 RES1   0.0000
   213 H131      5.2858    2.5552    0.8338   H         1 RES1   0.0000
   214 H132      4.9788    3.7031    2.1351   H         1 RES1   0.0000
@<TRIPOS>BOND
     1     1    20    1
     2     1    22    1
     3     1    25    1
     4     1    91    1
     5     1    93    1
     6     1    96    1
     7     1   162    1
     8     1   164    1
     9     1   167    1
    10     2     3    1
    11     2    29    1
    12     2    30    1
    13     2    31    1
    14     3     4    1
    15     3    32    1
    16     3    33    1
    17     4     5    1
    18     4    34    1
    19     4    35    1
    20     5     6    1
    21     5    36    1
    22     5    37    1
    23     6     7    1
    24     6    38    1
    25     6    39    1
    26     7     8    1
    27     7    40    1
    28     7    41    1
    29     8     9    1
    30     8    42    1
    31     8    43    1
    32     9    10    1
    33     9    44    1
    34     9    45    1
    35    10    11    1
    36    10    19    1
    37    11    12    1
    38    11    46    1
    39    11    47    1
    40    12    13    1
    41    12    48    1
    42    12    49    1
    43    13    14    1
    44    13    50    1
    45    13    51    1
    46    14    15    1
    47    14    52    1
    48    14    53    1
    49    15    16    1
    50    15    54    1
    51    15    55    1
    52    16    17    1
    53    16    56    1
    54    16    57    1
    55    17    18    1
    56    17    58    1
    57    17    59    1
    58    18    60    1
    59    18    61    1
    60    18    62    1
    61    19    20    2
    62    19    21    1
    63    21    22    1
    64    21    63    1
    65    21    64    1
    66    22    23    1
    67    23    24    1
    68    23    65    1
    69    23    66    1
    70    24    25    2
    71    24    26    1
    72    26    27    1
    73    26    28    1
    74    27    67    1
    75    27    68    1
    76    27    69    1
    77    28    70    1
    78    28    71    1
    79    28    72    1
    80    73    74    1
    81    73   100    1
    82    73   101    1
    83    73   102    1
    84    74    75    1
    85    74   103    1
    86    74   104    1
    87    75    76    1
    88    75   105    1
    89    75   106    1
    90    76    77    1
    91    76   107    1
    92    76   108    1
    93    77    78    1
    94    77   109    1
    95    77   110    1
    96    78    79    1
    97    78   111    1
    98    78   112    1
    99    79    80    1
   100    79   113    1
   101    79   114    1
   102    80    81    1
   103    80   115    1
   104    80   116    1
   105    81    82    1
   106    81    90    1
   107    82    83    1
   108    82   117    1
   109    82   118    1
   110    83    84    1
   111    83   119    1
   112    83   120    1
   113    84    85    1
   114    84   121    1
   115    84   122    1
   116    85    86    1
   117    85   123    1
   118    85   124    1
   119    86    87    1
   120    86   125    1
   121    86   126    1
   122    87    88    1
   123    87   127    1
   124    87   128    1
   125    88    89    1
   126    88   129    1
   127    88   130    1
   128    89   131    1
   129    89   132    1
   130    89   133    1
   131    90    91    2
   132    90    92    1
   133    92    93    1
   134    92   134    1
   135    92   135    1
   136    93    94    1
   137    94    95    1
   138    94   136    1
   139    94   137    1
   140    95    96    2
   141    95    97    1
   142    97    98    1
   143    97    99    1
   144    98   138    1
   145    98   139    1
   146    98   140    1
   147    99   141    1
   148    99   142    1
   149    99   143    1
   150   144   145    1
   151   144   171    1
   152   144   172    1
   153   144   173    1
   154   145   146    1
   155   145   174    1
   156   145   175    1
   157   146   147    1
   158   146   176    1
   159   146   177    1
   160   147   148    1
   161   147   178    1
   162   147   179    1
   163   148   149    1
   164   148   180    1
   165   148   181    1
   166   149   150    1
   167   149   182    1
   168   149   183    1
   169   150   151    1
   170   150   184    1
   171   150   185    1
   172   151   152    1
   173   151   186    1
   174   151   187    1
   175   152   153    1
   176   152   161    1
   177   153   154    1
   178   153   188    1
   179   153   189    1
   180   154   155    1
   181   154   190    1
   182   154   191    1
   183   155   156    1
   184   155   192    1
   185   155   193    1
   186   156   157    1
   187   156   194    1
   188   156   195    1
   189   157   158    1
   190   157   196    1
   191   157   197    1
   192   158   159    1
   193   158   198    1
   194   158   199    1
   195   159   160    1
   196   159   200    1
   197   159   201    1
   198   160   202    1
   199   160   203    1
   200   160   204    1
   201   161   162    2
   202   161   163    1
   203   163   164    1
   204   163   205    1
   205   163   206    1
   206   164   165    1
   207   165   166    1
   208   165   207    1
   209   165   208    1
   210   166   167    2
   211   166   168    1
   212   168   169    1
   213   168   170    1
   214   169   209    1
   215   169   210    1
   216   169   211    1
   217   170   212    1
   218   170   213    1
   219   170   214    1
@<TRIPOS>SUBSTRUCTURE
     1 RES1      214 GROUP             0 ****  ****    0  
