@<TRIPOS>MOLECULE
cn9_YICLED_0_nunpairedes_0_charge_3 Charge: 3 Unpaired_Electrons: 3 XTB_Unpaired_Electrons: 0 XTB_Charge: 3
   361   369     1     0     0
SMALL
NoCharges
****
Generated from Architector

@<TRIPOS>ATOM
     1 Nd1      -0.0773    0.1780    0.1631   Nd        1 RES1   0.0000
     2 C1       -9.1177   -2.7697   -2.3141   C.3       1 RES1   0.0000
     3 C2       -7.9742   -3.3632   -3.1281   C.3       1 RES1   0.0000
     4 C3       -6.6292   -3.1975   -2.4224   C.3       1 RES1   0.0000
     5 C4       -5.4814   -3.8001   -3.2308   C.3       1 RES1   0.0000
     6 C5       -4.1098   -3.4373   -2.6709   C.3       1 RES1   0.0000
     7 C6       -3.8386   -4.1187   -1.3319   C.3       1 RES1   0.0000
     8 C7       -2.6753   -3.4630   -0.5956   C.3       1 RES1   0.0000
     9 C8       -2.4238   -4.1339    0.7507   C.3       1 RES1   0.0000
    10 P1       -1.6472   -2.9183    1.8746   P.3       1 RES1   0.0000
    11 O1       -0.7000   -1.9733    1.2204   O.2       1 RES1   0.0000
    12 C9       -0.9662   -3.8761    3.2852   C.3       1 RES1   0.0000
    13 C10      -0.1894   -3.0533    4.3068   C.3       1 RES1   0.0000
    14 C11       0.2812   -3.9042    5.4927   C.3       1 RES1   0.0000
    15 C12      -0.8696   -4.3043    6.4259   C.3       1 RES1   0.0000
    16 C13      -1.4214   -5.7113    6.1975   C.3       1 RES1   0.0000
    17 C14      -2.6722   -5.9920    7.0350   C.3       1 RES1   0.0000
    18 C15      -3.9127   -5.1686    6.6754   C.3       1 RES1   0.0000
    19 C16      -4.4218   -5.4003    5.2581   C.3       1 RES1   0.0000
    20 C17      -3.1880   -2.0564    2.4100   C.3       1 RES1   0.0000
    21 C18      -3.1032   -1.1067    3.5289   C.ar      1 RES1   0.0000
    22 C19      -3.6560   -1.3792    4.7675   C.ar      1 RES1   0.0000
    23 C20      -3.6570   -0.4150    5.7558   C.ar      1 RES1   0.0000
    24 C21      -3.1064    0.8242    5.4678   C.ar      1 RES1   0.0000
    25 C22      -2.5454    1.0680    4.2299   C.ar      1 RES1   0.0000
    26 C23      -1.8625    2.3269    3.8500   C.3       1 RES1   0.0000
    27 P2       -0.0396    1.9734    3.5931   P.3       1 RES1   0.0000
    28 O2        0.3260    1.6596    2.1739   O.2       1 RES1   0.0000
    29 C24       0.3452    0.6414    4.8068   C.3       1 RES1   0.0000
    30 C25       0.2188    1.1322    6.2505   C.3       1 RES1   0.0000
    31 C26      -0.1195    0.0347    7.2583   C.3       1 RES1   0.0000
    32 C27      -0.3309    0.6375    8.6532   C.3       1 RES1   0.0000
    33 C28      -1.6574    1.3860    8.7731   C.3       1 RES1   0.0000
    34 C29      -1.7972    2.1526   10.0868   C.3       1 RES1   0.0000
    35 C30      -3.1897    2.7611   10.2720   C.3       1 RES1   0.0000
    36 C31      -3.5754    3.7502    9.1779   C.3       1 RES1   0.0000
    37 C32       0.7473    3.5168    4.2137   C.3       1 RES1   0.0000
    38 C33       2.2362    3.3648    4.5288   C.3       1 RES1   0.0000
    39 C34       2.7464    4.4752    5.4392   C.3       1 RES1   0.0000
    40 C35       2.4028    4.2102    6.8980   C.3       1 RES1   0.0000
    41 C36       3.0379    5.2427    7.8236   C.3       1 RES1   0.0000
    42 C37       2.6620    6.6847    7.4787   C.3       1 RES1   0.0000
    43 C38       1.1592    6.9582    7.4639   C.3       1 RES1   0.0000
    44 C39       0.8665    8.4165    7.1352   C.3       1 RES1   0.0000
    45 N1       -2.5329    0.0962    3.2820   N.ar      1 RES1   0.0000
    46 O3       -1.9955    0.3474    2.1255   O.co2     1 RES1   0.0000
    47 H1      -10.0555   -2.8777   -2.8501   H         1 RES1   0.0000
    48 H2       -8.9471   -1.7109   -2.1285   H         1 RES1   0.0000
    49 H3       -9.2089   -3.2753   -1.3559   H         1 RES1   0.0000
    50 H4       -7.9294   -2.8739   -4.1041   H         1 RES1   0.0000
    51 H5       -8.1589   -4.4264   -3.2954   H         1 RES1   0.0000
    52 H6       -6.6958   -3.6705   -1.4388   H         1 RES1   0.0000
    53 H7       -6.4368   -2.1302   -2.2632   H         1 RES1   0.0000
    54 H8       -5.5522   -3.4439   -4.2581   H         1 RES1   0.0000
    55 H9       -5.5850   -4.8845   -3.2535   H         1 RES1   0.0000
    56 H10      -4.0382   -2.3538   -2.5349   H         1 RES1   0.0000
    57 H11      -3.3339   -3.7263   -3.3796   H         1 RES1   0.0000
    58 H12      -3.6408   -5.1820   -1.4900   H         1 RES1   0.0000
    59 H13      -4.7291   -4.0432   -0.7036   H         1 RES1   0.0000
    60 H14      -2.9130   -2.4065   -0.4445   H         1 RES1   0.0000
    61 H15      -1.7679   -3.4832   -1.2022   H         1 RES1   0.0000
    62 H16      -1.7986   -5.0151    0.6471   H         1 RES1   0.0000
    63 H17      -3.3649   -4.4640    1.1929   H         1 RES1   0.0000
    64 H18      -0.3270   -4.6692    2.8833   H         1 RES1   0.0000
    65 H19      -1.8187   -4.3534    3.7681   H         1 RES1   0.0000
    66 H20      -0.8405   -2.2634    4.6949   H         1 RES1   0.0000
    67 H21       0.6583   -2.5682    3.8128   H         1 RES1   0.0000
    68 H22       1.0085   -3.3149    6.0517   H         1 RES1   0.0000
    69 H23       0.7961   -4.7967    5.1334   H         1 RES1   0.0000
    70 H24      -1.6711   -3.5715    6.3234   H         1 RES1   0.0000
    71 H25      -0.5203   -4.2541    7.4556   H         1 RES1   0.0000
    72 H26      -0.6600   -6.4377    6.4859   H         1 RES1   0.0000
    73 H27      -1.6456   -5.8861    5.1458   H         1 RES1   0.0000
    74 H28      -2.4303   -5.8099    8.0847   H         1 RES1   0.0000
    75 H29      -2.9222   -7.0510    6.9391   H         1 RES1   0.0000
    76 H30      -3.7099   -4.1053    6.8279   H         1 RES1   0.0000
    77 H31      -4.6997   -5.4478    7.3779   H         1 RES1   0.0000
    78 H32      -3.7101   -5.0536    4.5114   H         1 RES1   0.0000
    79 H33      -5.3580   -4.8702    5.1083   H         1 RES1   0.0000
    80 H34      -4.6027   -6.4568    5.0912   H         1 RES1   0.0000
    81 H35      -3.9469   -2.8078    2.6165   H         1 RES1   0.0000
    82 H36      -3.4194   -1.4986    1.4989   H         1 RES1   0.0000
    83 H37      -4.1019   -2.3470    4.9313   H         1 RES1   0.0000
    84 H38      -4.0876   -0.6200    6.7209   H         1 RES1   0.0000
    85 H39      -3.1122    1.6125    6.2029   H         1 RES1   0.0000
    86 H40      -2.0017    3.0934    4.6105   H         1 RES1   0.0000
    87 H41      -2.2393    2.6956    2.8931   H         1 RES1   0.0000
    88 H42       1.3486    0.2664    4.5990   H         1 RES1   0.0000
    89 H43      -0.3342   -0.1894    4.6071   H         1 RES1   0.0000
    90 H44      -0.5559    1.8961    6.3124   H         1 RES1   0.0000
    91 H45       1.1498    1.5984    6.5705   H         1 RES1   0.0000
    92 H46       0.6966   -0.6898    7.2971   H         1 RES1   0.0000
    93 H47      -1.0269   -0.4911    6.9470   H         1 RES1   0.0000
    94 H48       0.4926    1.3188    8.8750   H         1 RES1   0.0000
    95 H49      -0.3022   -0.1573    9.3982   H         1 RES1   0.0000
    96 H50      -2.4782    0.6706    8.6829   H         1 RES1   0.0000
    97 H51      -1.7390    2.1055    7.9578   H         1 RES1   0.0000
    98 H52      -1.0505    2.9500   10.1183   H         1 RES1   0.0000
    99 H53      -1.5970    1.4761   10.9194   H         1 RES1   0.0000
   100 H54      -3.2071    3.2763   11.2327   H         1 RES1   0.0000
   101 H55      -3.9317    1.9613   10.3185   H         1 RES1   0.0000
   102 H56      -2.7979    4.4993    9.0523   H         1 RES1   0.0000
   103 H57      -4.4978    4.2567    9.4440   H         1 RES1   0.0000
   104 H58      -3.7358    3.2460    8.2272   H         1 RES1   0.0000
   105 H59       0.2219    3.8281    5.1153   H         1 RES1   0.0000
   106 H60       0.5699    4.2898    3.4618   H         1 RES1   0.0000
   107 H61       2.8181    3.3883    3.6135   H         1 RES1   0.0000
   108 H62       2.4246    2.4060    5.0149   H         1 RES1   0.0000
   109 H63       2.3318    5.4274    5.1123   H         1 RES1   0.0000
   110 H64       3.8301    4.5342    5.3414   H         1 RES1   0.0000
   111 H65       2.7771    3.2208    7.1731   H         1 RES1   0.0000
   112 H66       1.3215    4.2061    7.0389   H         1 RES1   0.0000
   113 H67       4.1245    5.1465    7.7598   H         1 RES1   0.0000
   114 H68       2.7482    5.0207    8.8517   H         1 RES1   0.0000
   115 H69       3.0804    6.9405    6.5032   H         1 RES1   0.0000
   116 H70       3.1300    7.3456    8.2099   H         1 RES1   0.0000
   117 H71       0.7347    6.7127    8.4375   H         1 RES1   0.0000
   118 H72       0.6649    6.3322    6.7182   H         1 RES1   0.0000
   119 H73       1.3622    9.0703    7.8472   H         1 RES1   0.0000
   120 H74      -0.2029    8.6127    7.1743   H         1 RES1   0.0000
   121 H75       1.2262    8.6660    6.1378   H         1 RES1   0.0000
   122 C40       5.0892    6.4443    2.9301   C.3       1 RES1   0.0000
   123 C41       6.4514    6.0119    2.3945   C.3       1 RES1   0.0000
   124 C42       6.3674    5.0574    1.1986   C.3       1 RES1   0.0000
   125 C43       5.7428    5.5863   -0.0990   C.3       1 RES1   0.0000
   126 C44       5.5339    4.4012   -1.0512   C.3       1 RES1   0.0000
   127 C45       4.6448    4.6260   -2.2846   C.3       1 RES1   0.0000
   128 C46       3.9352    3.3150   -2.6817   C.3       1 RES1   0.0000
   129 C47       2.7853    3.4770   -3.6748   C.3       1 RES1   0.0000
   130 P3        1.2133    2.5079   -3.3317   P.3       1 RES1   0.0000
   131 O4        1.1892    1.4253   -2.3186   O.2       1 RES1   0.0000
   132 C48       0.7281    1.9231   -4.9974   C.3       1 RES1   0.0000
   133 C49      -0.5626    1.1115   -4.9568   C.3       1 RES1   0.0000
   134 C50      -1.1716    0.9907   -6.3514   C.3       1 RES1   0.0000
   135 C51      -1.8974    2.2739   -6.7861   C.3       1 RES1   0.0000
   136 C52      -1.2378    2.9562   -7.9822   C.3       1 RES1   0.0000
   137 C53      -1.9661    4.2240   -8.4289   C.3       1 RES1   0.0000
   138 C54      -2.0154    5.3603   -7.4080   C.3       1 RES1   0.0000
   139 C55      -0.6543    5.7936   -6.8778   C.3       1 RES1   0.0000
   140 C56       0.0897    3.9511   -2.9455   C.3       1 RES1   0.0000
   141 C57      -1.3536    3.7446   -2.7181   C.ar      1 RES1   0.0000
   142 C58      -2.2690    4.3664   -3.5529   C.ar      1 RES1   0.0000
   143 C59      -3.6155    4.3668   -3.2513   C.ar      1 RES1   0.0000
   144 C60      -4.0062    3.7762   -2.0623   C.ar      1 RES1   0.0000
   145 C61      -3.0811    3.1311   -1.2643   C.ar      1 RES1   0.0000
   146 C62      -3.4707    2.4441   -0.0097   C.3       1 RES1   0.0000
   147 P4       -3.8780    0.6899   -0.4573   P.3       1 RES1   0.0000
   148 O5       -2.5929   -0.0779   -0.5968   O.2       1 RES1   0.0000
   149 C63      -4.8939    0.6938   -1.9907   C.3       1 RES1   0.0000
   150 C64      -6.2938    1.2876   -1.8153   C.3       1 RES1   0.0000
   151 C65      -6.9375    1.6483   -3.1540   C.3       1 RES1   0.0000
   152 C66      -8.3961    2.0774   -2.9794   C.3       1 RES1   0.0000
   153 C67      -8.5518    3.3789   -2.1931   C.3       1 RES1   0.0000
   154 C68     -10.0258    3.7119   -1.9731   C.3       1 RES1   0.0000
   155 C69     -10.2623    5.0315   -1.2342   C.3       1 RES1   0.0000
   156 C70      -9.7838    5.0131    0.2130   C.3       1 RES1   0.0000
   157 C71      -5.0937    0.2786    0.8717   C.3       1 RES1   0.0000
   158 C72      -5.8482   -1.0439    0.7594   C.3       1 RES1   0.0000
   159 C73      -6.6266   -1.3269    2.0436   C.3       1 RES1   0.0000
   160 C74      -7.5248   -2.5545    1.8936   C.3       1 RES1   0.0000
   161 C75      -7.9400   -3.1789    3.2291   C.3       1 RES1   0.0000
   162 C76      -8.5629   -2.2203    4.2481   C.3       1 RES1   0.0000
   163 C77      -9.8831   -1.5938    3.8051   C.3       1 RES1   0.0000
   164 C78     -10.4629   -0.7254    4.9166   C.3       1 RES1   0.0000
   165 N2       -1.7764    3.0594   -1.6228   N.ar      1 RES1   0.0000
   166 O6       -0.9383    2.4107   -0.8673   O.co2     1 RES1   0.0000
   167 H76       5.1861    6.8946    3.9166   H         1 RES1   0.0000
   168 H77       4.4182    5.5865    3.0114   H         1 RES1   0.0000
   169 H78       4.6393    7.1835    2.2741   H         1 RES1   0.0000
   170 H79       6.9785    5.4887    3.1956   H         1 RES1   0.0000
   171 H80       7.0409    6.8866    2.1280   H         1 RES1   0.0000
   172 H81       5.7929    4.1847    1.5227   H         1 RES1   0.0000
   173 H82       7.3693    4.6990    0.9674   H         1 RES1   0.0000
   174 H83       6.3770    6.3437   -0.5623   H         1 RES1   0.0000
   175 H84       4.7794    6.0486    0.1114   H         1 RES1   0.0000
   176 H85       5.0612    3.6116   -0.4669   H         1 RES1   0.0000
   177 H86       6.5130    4.0354   -1.3672   H         1 RES1   0.0000
   178 H87       5.2461    4.9952   -3.1189   H         1 RES1   0.0000
   179 H88       3.9069    5.4022   -2.0662   H         1 RES1   0.0000
   180 H89       3.5275    2.8375   -1.7876   H         1 RES1   0.0000
   181 H90       4.6751    2.6277   -3.0905   H         1 RES1   0.0000
   182 H91       3.1104    3.2291   -4.6840   H         1 RES1   0.0000
   183 H92       2.4732    4.5191   -3.7185   H         1 RES1   0.0000
   184 H93       1.5567    1.2974   -5.3409   H         1 RES1   0.0000
   185 H94       0.6414    2.7692   -5.6800   H         1 RES1   0.0000
   186 H95      -1.2820    1.5947   -4.2882   H         1 RES1   0.0000
   187 H96      -0.3481    0.1246   -4.5424   H         1 RES1   0.0000
   188 H97      -1.8666    0.1558   -6.3603   H         1 RES1   0.0000
   189 H98      -0.3764    0.7507   -7.0575   H         1 RES1   0.0000
   190 H99      -1.9301    2.9706   -5.9472   H         1 RES1   0.0000
   191 H100     -2.9296    2.0430   -7.0505   H         1 RES1   0.0000
   192 H101     -1.2354    2.2582   -8.8224   H         1 RES1   0.0000
   193 H102     -0.1965    3.1883   -7.7498   H         1 RES1   0.0000
   194 H103     -2.9929    3.9585   -8.6815   H         1 RES1   0.0000
   195 H104     -1.4889    4.5840   -9.3400   H         1 RES1   0.0000
   196 H105     -2.6617    5.0764   -6.5750   H         1 RES1   0.0000
   197 H106     -2.4799    6.2169   -7.8962   H         1 RES1   0.0000
   198 H107     -0.1547    4.9901   -6.3373   H         1 RES1   0.0000
   199 H108     -0.7695    6.6393   -6.2010   H         1 RES1   0.0000
   200 H109     -0.0116    6.1005   -7.6979   H         1 RES1   0.0000
   201 H110      0.2118    4.6689   -3.7622   H         1 RES1   0.0000
   202 H111      0.5108    4.3924   -2.0361   H         1 RES1   0.0000
   203 H112     -1.9061    4.8722   -4.4328   H         1 RES1   0.0000
   204 H113     -4.3336    4.8535   -3.8903   H         1 RES1   0.0000
   205 H114     -5.0310    3.8110   -1.7394   H         1 RES1   0.0000
   206 H115     -4.2948    2.9612    0.4797   H         1 RES1   0.0000
   207 H116     -2.6079    2.3609    0.6637   H         1 RES1   0.0000
   208 H117     -4.9694   -0.3489   -2.3083   H         1 RES1   0.0000
   209 H118     -4.3474    1.2228   -2.7762   H         1 RES1   0.0000
   210 H119     -6.2595    2.1797   -1.1902   H         1 RES1   0.0000
   211 H120     -6.9475    0.5718   -1.3160   H         1 RES1   0.0000
   212 H121     -6.8988    0.7758   -3.8091   H         1 RES1   0.0000
   213 H122     -6.3802    2.4588   -3.6311   H         1 RES1   0.0000
   214 H123     -8.9502    1.2855   -2.4694   H         1 RES1   0.0000
   215 H124     -8.8448    2.2013   -3.9670   H         1 RES1   0.0000
   216 H125     -8.0673    4.1922   -2.7385   H         1 RES1   0.0000
   217 H126     -8.0689    3.2887   -1.2187   H         1 RES1   0.0000
   218 H127    -10.4931    2.8981   -1.4105   H         1 RES1   0.0000
   219 H128    -10.5179    3.7647   -2.9459   H         1 RES1   0.0000
   220 H129    -11.3357    5.2272   -1.2429   H         1 RES1   0.0000
   221 H130     -9.7794    5.8507   -1.7741   H         1 RES1   0.0000
   222 H131    -10.2274    4.1760    0.7463   H         1 RES1   0.0000
   223 H132    -10.0819    5.9301    0.7128   H         1 RES1   0.0000
   224 H133     -8.7009    4.9287    0.2672   H         1 RES1   0.0000
   225 H134     -5.8134    1.0975    0.8300   H         1 RES1   0.0000
   226 H135     -4.5958    0.3621    1.8363   H         1 RES1   0.0000
   227 H136     -5.1707   -1.8687    0.5428   H         1 RES1   0.0000
   228 H137     -6.5570   -1.0067   -0.0658   H         1 RES1   0.0000
   229 H138     -7.2369   -0.4552    2.2817   H         1 RES1   0.0000
   230 H139     -5.9366   -1.4748    2.8775   H         1 RES1   0.0000
   231 H140     -6.9968   -3.3212    1.3211   H         1 RES1   0.0000
   232 H141     -8.4115   -2.2825    1.3239   H         1 RES1   0.0000
   233 H142     -7.0584   -3.6398    3.6888   H         1 RES1   0.0000
   234 H143     -8.6515   -3.9815    3.0241   H         1 RES1   0.0000
   235 H144     -7.8510   -1.4265    4.4944   H         1 RES1   0.0000
   236 H145     -8.7486   -2.7823    5.1678   H         1 RES1   0.0000
   237 H146    -10.5948   -2.3814    3.5548   H         1 RES1   0.0000
   238 H147     -9.7297   -0.9833    2.9133   H         1 RES1   0.0000
   239 H148    -10.6906   -1.3290    5.7932   H         1 RES1   0.0000
   240 H149    -11.3806   -0.2413    4.5918   H         1 RES1   0.0000
   241 H150     -9.7498    0.0461    5.2074   H         1 RES1   0.0000
   242 C79       2.1166   -7.8944    5.1355   C.3       1 RES1   0.0000
   243 C80       1.1909   -8.5403    4.1119   C.3       1 RES1   0.0000
   244 C81       0.9456   -7.6329    2.9052   C.3       1 RES1   0.0000
   245 C82       0.3977   -8.4324    1.7236   C.3       1 RES1   0.0000
   246 C83      -0.2617   -7.5723    0.6447   C.3       1 RES1   0.0000
   247 C84       0.6189   -6.4183    0.1602   C.3       1 RES1   0.0000
   248 C85       0.1114   -5.8335   -1.1562   C.3       1 RES1   0.0000
   249 C86       1.0059   -4.7587   -1.7726   C.3       1 RES1   0.0000
   250 P5        1.6305   -3.1601   -1.0301   P.3       1 RES1   0.0000
   251 O7        0.7781   -1.9306   -1.1159   O.2       1 RES1   0.0000
   252 C87       3.1153   -3.0894   -2.1143   C.3       1 RES1   0.0000
   253 C88       3.9407   -1.8191   -2.0799   C.3       1 RES1   0.0000
   254 C89       4.9150   -1.7577   -3.2586   C.3       1 RES1   0.0000
   255 C90       5.9980   -2.8452   -3.2103   C.3       1 RES1   0.0000
   256 C91       5.6880   -4.0837   -4.0556   C.3       1 RES1   0.0000
   257 C92       6.7066   -5.2085   -3.8611   C.3       1 RES1   0.0000
   258 C93       6.6687   -5.9086   -2.5015   C.3       1 RES1   0.0000
   259 C94       5.3911   -6.7023   -2.2476   C.3       1 RES1   0.0000
   260 C95       2.1351   -3.5011    0.7483   C.3       1 RES1   0.0000
   261 C96       3.2217   -2.6608    1.3021   C.ar      1 RES1   0.0000
   262 C97       4.5053   -3.1502    1.4787   C.ar      1 RES1   0.0000
   263 C98       5.4746   -2.3678    2.0759   C.ar      1 RES1   0.0000
   264 C99       5.1557   -1.0639    2.4062   C.ar      1 RES1   0.0000
   265 C100      3.8794   -0.5774    2.1817   C.ar      1 RES1   0.0000
   266 C101      3.5362    0.8558    2.3828   C.3       1 RES1   0.0000
   267 P6        3.2343    1.6344    0.6793   P.3       1 RES1   0.0000
   268 O8        2.0284    1.0287    0.0502   O.2       1 RES1   0.0000
   269 C102      4.6742    0.9520   -0.2726   C.3       1 RES1   0.0000
   270 C103      6.1328    1.2879    0.0055   C.3       1 RES1   0.0000
   271 C104      7.0342    0.0918   -0.3101   C.3       1 RES1   0.0000
   272 C105      8.5113    0.4660   -0.1755   C.3       1 RES1   0.0000
   273 C106      8.9721    0.6117    1.2781   C.3       1 RES1   0.0000
   274 C107     10.3182    1.3356    1.3819   C.3       1 RES1   0.0000
   275 C108     10.9592    1.2346    2.7680   C.3       1 RES1   0.0000
   276 C109     10.0991    1.8406    3.8707   C.3       1 RES1   0.0000
   277 C110      2.8814    3.4390    0.9880   C.3       1 RES1   0.0000
   278 C111      1.9683    4.1736    0.0013   C.3       1 RES1   0.0000
   279 C112      1.7950    5.6415    0.4348   C.3       1 RES1   0.0000
   280 C113      1.4233    6.6253   -0.6855   C.3       1 RES1   0.0000
   281 C114      1.4769    8.0949   -0.2400   C.3       1 RES1   0.0000
   282 C115      2.8949    8.6081    0.0201   C.3       1 RES1   0.0000
   283 C116      3.7147    8.8130   -1.2533   C.3       1 RES1   0.0000
   284 C117      5.0355    9.5123   -0.9699   C.3       1 RES1   0.0000
   285 N3        2.9081   -1.4009    1.6991   N.ar      1 RES1   0.0000
   286 O9        1.6809   -0.9933    1.6746   O.co2     1 RES1   0.0000
   287 H151      2.1730   -8.4978    6.0379   H         1 RES1   0.0000
   288 H152      1.7601   -6.9034    5.4159   H         1 RES1   0.0000
   289 H153      3.1194   -7.7943    4.7228   H         1 RES1   0.0000
   290 H154      0.2328   -8.7772    4.5769   H         1 RES1   0.0000
   291 H155      1.6331   -9.4798    3.7768   H         1 RES1   0.0000
   292 H156      1.8839   -7.1459    2.6257   H         1 RES1   0.0000
   293 H157      0.2297   -6.8528    3.1844   H         1 RES1   0.0000
   294 H158     -0.3491   -9.1366    2.0938   H         1 RES1   0.0000
   295 H159      1.2049   -9.0196    1.2833   H         1 RES1   0.0000
   296 H160     -1.1949   -7.1674    1.0432   H         1 RES1   0.0000
   297 H161     -0.5124   -8.2117   -0.2024   H         1 RES1   0.0000
   298 H162      1.6340   -6.7897    0.0131   H         1 RES1   0.0000
   299 H163      0.6349   -5.6461    0.9289   H         1 RES1   0.0000
   300 H164     -0.9126   -5.4878   -1.0489   H         1 RES1   0.0000
   301 H165      0.0893   -6.6488   -1.8865   H         1 RES1   0.0000
   302 H166      0.5521   -4.4221   -2.7097   H         1 RES1   0.0000
   303 H167      1.9383   -5.2629   -2.0357   H         1 RES1   0.0000
   304 H168      2.7195   -3.2115   -3.1302   H         1 RES1   0.0000
   305 H169      3.7446   -3.9532   -1.8918   H         1 RES1   0.0000
   306 H170      4.5175   -1.7945   -1.1537   H         1 RES1   0.0000
   307 H171      3.2675   -0.9566   -2.1049   H         1 RES1   0.0000
   308 H172      5.3966   -0.7790   -3.2434   H         1 RES1   0.0000
   309 H173      4.3623   -1.8377   -4.1955   H         1 RES1   0.0000
   310 H174      6.1702   -3.1342   -2.1711   H         1 RES1   0.0000
   311 H175      6.9281   -2.4199   -3.5878   H         1 RES1   0.0000
   312 H176      5.7091   -3.7946   -5.1089   H         1 RES1   0.0000
   313 H177      4.6889   -4.4622   -3.8453   H         1 RES1   0.0000
   314 H178      7.7047   -4.7957   -4.0080   H         1 RES1   0.0000
   315 H179      6.5452   -5.9595   -4.6361   H         1 RES1   0.0000
   316 H180      6.8108   -5.1850   -1.6957   H         1 RES1   0.0000
   317 H181      7.5101   -6.6028   -2.4643   H         1 RES1   0.0000
   318 H182      4.5305   -6.0494   -2.1010   H         1 RES1   0.0000
   319 H183      5.5057   -7.3144   -1.3547   H         1 RES1   0.0000
   320 H184      5.1816   -7.3585   -3.0884   H         1 RES1   0.0000
   321 H185      2.4255   -4.5452    0.8132   H         1 RES1   0.0000
   322 H186      1.2143   -3.3047    1.3035   H         1 RES1   0.0000
   323 H187      4.7372   -4.1587    1.1784   H         1 RES1   0.0000
   324 H188      6.4613   -2.7527    2.2727   H         1 RES1   0.0000
   325 H189      5.9032   -0.4026    2.8206   H         1 RES1   0.0000
   326 H190      4.3499    1.3519    2.9148   H         1 RES1   0.0000
   327 H191      2.5991    0.9558    2.9337   H         1 RES1   0.0000
   328 H192      4.4412    1.0914   -1.3263   H         1 RES1   0.0000
   329 H193      4.5213   -0.1111   -0.0744   H         1 RES1   0.0000
   330 H194      6.2788    1.5933    1.0417   H         1 RES1   0.0000
   331 H195      6.4537    2.1054   -0.6344   H         1 RES1   0.0000
   332 H196      6.8509   -0.2283   -1.3384   H         1 RES1   0.0000
   333 H197      6.7947   -0.7398    0.3570   H         1 RES1   0.0000
   334 H198      8.6756    1.4050   -0.7099   H         1 RES1   0.0000
   335 H199      9.1206   -0.2978   -0.6595   H         1 RES1   0.0000
   336 H200      9.0594   -0.3796    1.7326   H         1 RES1   0.0000
   337 H201      8.2271    1.1751    1.8451   H         1 RES1   0.0000
   338 H202     10.1699    2.3908    1.1360   H         1 RES1   0.0000
   339 H203     11.0078    0.9149    0.6465   H         1 RES1   0.0000
   340 H204     11.9155    1.7594    2.7364   H         1 RES1   0.0000
   341 H205     11.1690    0.1885    3.0012   H         1 RES1   0.0000
   342 H206      9.8094    2.8558    3.6100   H         1 RES1   0.0000
   343 H207     10.6544    1.8746    4.8032   H         1 RES1   0.0000
   344 H208      9.1985    1.2537    4.0351   H         1 RES1   0.0000
   345 H209      3.7859    4.0137    1.1491   H         1 RES1   0.0000
   346 H210      2.3081    3.3930    1.9135   H         1 RES1   0.0000
   347 H211      1.0148    3.6430   -0.0202   H         1 RES1   0.0000
   348 H212      2.3987    4.1717   -0.9952   H         1 RES1   0.0000
   349 H213      2.7476    5.9691    0.8392   H         1 RES1   0.0000
   350 H214      1.0611    5.7260    1.2387   H         1 RES1   0.0000
   351 H215      0.4209    6.4258   -1.0796   H         1 RES1   0.0000
   352 H216      2.1258    6.5093   -1.5129   H         1 RES1   0.0000
   353 H217      0.8645    8.2286    0.6551   H         1 RES1   0.0000
   354 H218      1.0323    8.7058   -1.0286   H         1 RES1   0.0000
   355 H219      3.4259    7.9214    0.6838   H         1 RES1   0.0000
   356 H220      2.8343    9.5607    0.5490   H         1 RES1   0.0000
   357 H221      3.1390    9.4164   -1.9570   H         1 RES1   0.0000
   358 H222      3.9210    7.8495   -1.7251   H         1 RES1   0.0000
   359 H223      4.8507   10.4985   -0.5562   H         1 RES1   0.0000
   360 H224      5.6059    9.6250   -1.8864   H         1 RES1   0.0000
   361 H225      5.6252    8.9402   -0.2592   H         1 RES1   0.0000
@<TRIPOS>BOND
     1     1    11    1
     2     1    28    1
     3     1    46    1
     4     1   131    1
     5     1   148    1
     6     1   166    1
     7     1   251    1
     8     1   268    1
     9     1   286    1
    10     2     3    1
    11     2    47    1
    12     2    48    1
    13     2    49    1
    14     3     4    1
    15     3    50    1
    16     3    51    1
    17     4     5    1
    18     4    52    1
    19     4    53    1
    20     5     6    1
    21     5    54    1
    22     5    55    1
    23     6     7    1
    24     6    56    1
    25     6    57    1
    26     7     8    1
    27     7    58    1
    28     7    59    1
    29     8     9    1
    30     8    60    1
    31     8    61    1
    32     9    10    1
    33     9    62    1
    34     9    63    1
    35    10    11    2
    36    10    12    1
    37    10    20    1
    38    12    13    1
    39    12    64    1
    40    12    65    1
    41    13    14    1
    42    13    66    1
    43    13    67    1
    44    14    15    1
    45    14    68    1
    46    14    69    1
    47    15    16    1
    48    15    70    1
    49    15    71    1
    50    16    17    1
    51    16    72    1
    52    16    73    1
    53    17    18    1
    54    17    74    1
    55    17    75    1
    56    18    19    1
    57    18    76    1
    58    18    77    1
    59    19    78    1
    60    19    79    1
    61    19    80    1
    62    20    21    1
    63    20    81    1
    64    20    82    1
    65    21    22    1
    66    21    45    2
    67    22    23    2
    68    22    83    1
    69    23    24    1
    70    23    84    1
    71    24    25    2
    72    24    85    1
    73    25    26    1
    74    25    45    1
    75    26    27    1
    76    26    86    1
    77    26    87    1
    78    27    28    2
    79    27    29    1
    80    27    37    1
    81    29    30    1
    82    29    88    1
    83    29    89    1
    84    30    31    1
    85    30    90    1
    86    30    91    1
    87    31    32    1
    88    31    92    1
    89    31    93    1
    90    32    33    1
    91    32    94    1
    92    32    95    1
    93    33    34    1
    94    33    96    1
    95    33    97    1
    96    34    35    1
    97    34    98    1
    98    34    99    1
    99    35    36    1
   100    35   100    1
   101    35   101    1
   102    36   102    1
   103    36   103    1
   104    36   104    1
   105    37    38    1
   106    37   105    1
   107    37   106    1
   108    38    39    1
   109    38   107    1
   110    38   108    1
   111    39    40    1
   112    39   109    1
   113    39   110    1
   114    40    41    1
   115    40   111    1
   116    40   112    1
   117    41    42    1
   118    41   113    1
   119    41   114    1
   120    42    43    1
   121    42   115    1
   122    42   116    1
   123    43    44    1
   124    43   117    1
   125    43   118    1
   126    44   119    1
   127    44   120    1
   128    44   121    1
   129    45    46    1
   130   122   123    1
   131   122   167    1
   132   122   168    1
   133   122   169    1
   134   123   124    1
   135   123   170    1
   136   123   171    1
   137   124   125    1
   138   124   172    1
   139   124   173    1
   140   125   126    1
   141   125   174    1
   142   125   175    1
   143   126   127    1
   144   126   176    1
   145   126   177    1
   146   127   128    1
   147   127   178    1
   148   127   179    1
   149   128   129    1
   150   128   180    1
   151   128   181    1
   152   129   130    1
   153   129   182    1
   154   129   183    1
   155   130   131    2
   156   130   132    1
   157   130   140    1
   158   132   133    1
   159   132   184    1
   160   132   185    1
   161   133   134    1
   162   133   186    1
   163   133   187    1
   164   134   135    1
   165   134   188    1
   166   134   189    1
   167   135   136    1
   168   135   190    1
   169   135   191    1
   170   136   137    1
   171   136   192    1
   172   136   193    1
   173   137   138    1
   174   137   194    1
   175   137   195    1
   176   138   139    1
   177   138   196    1
   178   138   197    1
   179   139   198    1
   180   139   199    1
   181   139   200    1
   182   140   141    1
   183   140   201    1
   184   140   202    1
   185   141   142    1
   186   141   165    2
   187   142   143    2
   188   142   203    1
   189   143   144    1
   190   143   204    1
   191   144   145    2
   192   144   205    1
   193   145   146    1
   194   145   165    1
   195   146   147    1
   196   146   206    1
   197   146   207    1
   198   147   148    2
   199   147   149    1
   200   147   157    1
   201   149   150    1
   202   149   208    1
   203   149   209    1
   204   150   151    1
   205   150   210    1
   206   150   211    1
   207   151   152    1
   208   151   212    1
   209   151   213    1
   210   152   153    1
   211   152   214    1
   212   152   215    1
   213   153   154    1
   214   153   216    1
   215   153   217    1
   216   154   155    1
   217   154   218    1
   218   154   219    1
   219   155   156    1
   220   155   220    1
   221   155   221    1
   222   156   222    1
   223   156   223    1
   224   156   224    1
   225   157   158    1
   226   157   225    1
   227   157   226    1
   228   158   159    1
   229   158   227    1
   230   158   228    1
   231   159   160    1
   232   159   229    1
   233   159   230    1
   234   160   161    1
   235   160   231    1
   236   160   232    1
   237   161   162    1
   238   161   233    1
   239   161   234    1
   240   162   163    1
   241   162   235    1
   242   162   236    1
   243   163   164    1
   244   163   237    1
   245   163   238    1
   246   164   239    1
   247   164   240    1
   248   164   241    1
   249   165   166    1
   250   242   243    1
   251   242   287    1
   252   242   288    1
   253   242   289    1
   254   243   244    1
   255   243   290    1
   256   243   291    1
   257   244   245    1
   258   244   292    1
   259   244   293    1
   260   245   246    1
   261   245   294    1
   262   245   295    1
   263   246   247    1
   264   246   296    1
   265   246   297    1
   266   247   248    1
   267   247   298    1
   268   247   299    1
   269   248   249    1
   270   248   300    1
   271   248   301    1
   272   249   250    1
   273   249   302    1
   274   249   303    1
   275   250   251    2
   276   250   252    1
   277   250   260    1
   278   252   253    1
   279   252   304    1
   280   252   305    1
   281   253   254    1
   282   253   306    1
   283   253   307    1
   284   254   255    1
   285   254   308    1
   286   254   309    1
   287   255   256    1
   288   255   310    1
   289   255   311    1
   290   256   257    1
   291   256   312    1
   292   256   313    1
   293   257   258    1
   294   257   314    1
   295   257   315    1
   296   258   259    1
   297   258   316    1
   298   258   317    1
   299   259   318    1
   300   259   319    1
   301   259   320    1
   302   260   261    1
   303   260   321    1
   304   260   322    1
   305   261   262    1
   306   261   285    2
   307   262   263    2
   308   262   323    1
   309   263   264    1
   310   263   324    1
   311   264   265    2
   312   264   325    1
   313   265   266    1
   314   265   285    1
   315   266   267    1
   316   266   326    1
   317   266   327    1
   318   267   268    2
   319   267   269    1
   320   267   277    1
   321   269   270    1
   322   269   328    1
   323   269   329    1
   324   270   271    1
   325   270   330    1
   326   270   331    1
   327   271   272    1
   328   271   332    1
   329   271   333    1
   330   272   273    1
   331   272   334    1
   332   272   335    1
   333   273   274    1
   334   273   336    1
   335   273   337    1
   336   274   275    1
   337   274   338    1
   338   274   339    1
   339   275   276    1
   340   275   340    1
   341   275   341    1
   342   276   342    1
   343   276   343    1
   344   276   344    1
   345   277   278    1
   346   277   345    1
   347   277   346    1
   348   278   279    1
   349   278   347    1
   350   278   348    1
   351   279   280    1
   352   279   349    1
   353   279   350    1
   354   280   281    1
   355   280   351    1
   356   280   352    1
   357   281   282    1
   358   281   353    1
   359   281   354    1
   360   282   283    1
   361   282   355    1
   362   282   356    1
   363   283   284    1
   364   283   357    1
   365   283   358    1
   366   284   359    1
   367   284   360    1
   368   284   361    1
   369   285   286    1
@<TRIPOS>SUBSTRUCTURE
     1 RES1      361 GROUP             0 ****  ****    0  
