@<TRIPOS>MOLECULE
am_c3_9H2O_c0_0_nunpairedes_0_charge_3 Charge: 3 Unpaired_Electrons: 3 XTB_Unpaired_Electrons: 0 XTB_Charge: 3
   340   345     1     0     0
SMALL
NoCharges
****
Generated from Architector

@<TRIPOS>ATOM
     1 Nd1      -0.1598   -0.0724   -0.1246   Nd        1 RES1   0.0000
     2 C1        1.1778   -3.7560   -4.8710   C.3       1 RES1   0.0000
     3 C2        2.0956   -2.5419   -4.8410   C.3       1 RES1   0.0000
     4 C3        1.3545   -1.2341   -4.5606   C.3       1 RES1   0.0000
     5 C4        0.4761   -0.8195   -5.7394   C.3       1 RES1   0.0000
     6 C5       -0.1792    0.5430   -5.5359   C.3       1 RES1   0.0000
     7 C6       -1.2937    0.5571   -4.4880   C.3       1 RES1   0.0000
     8 C7       -2.4737   -0.3559   -4.8577   C.3       1 RES1   0.0000
     9 C8       -2.5527   -1.6607   -4.0554   C.3       1 RES1   0.0000
    10 N1       -3.2749   -1.4680   -2.7982   N.am      1 RES1   0.0000
    11 C9       -4.7174   -1.6563   -2.8449   C.3       1 RES1   0.0000
    12 C10      -5.1163   -3.0602   -2.3654   C.3       1 RES1   0.0000
    13 C11      -4.8535   -4.1248   -3.4325   C.3       1 RES1   0.0000
    14 C12      -5.2680   -5.5290   -2.9972   C.3       1 RES1   0.0000
    15 C13      -4.3942   -6.1581   -1.9091   C.3       1 RES1   0.0000
    16 C14      -2.9558   -6.4828   -2.3443   C.3       1 RES1   0.0000
    17 C15      -1.8779   -5.4830   -1.9105   C.3       1 RES1   0.0000
    18 C16      -0.4998   -6.0482   -2.2455   C.3       1 RES1   0.0000
    19 C17      -2.6181   -1.2197   -1.6749   C.2       1 RES1   0.0000
    20 O1       -1.3757   -1.2841   -1.5842   O.2       1 RES1   0.0000
    21 C18      -3.4496   -0.7849   -0.4643   C.3       1 RES1   0.0000
    22 O2       -2.6120   -0.1129    0.4610   O.3       1 RES1   0.0000
    23 C19      -3.3631    0.6277    1.4172   C.3       1 RES1   0.0000
    24 C20      -2.5874    1.9212    1.7021   C.2       1 RES1   0.0000
    25 O3       -1.4376    2.0103    1.2590   O.2       1 RES1   0.0000
    26 N2       -3.2002    2.9068    2.3587   N.am      1 RES1   0.0000
    27 C21      -2.4409    4.1317    2.6124   C.3       1 RES1   0.0000
    28 C22      -2.2952    5.0277    1.3623   C.3       1 RES1   0.0000
    29 C23      -2.7311    6.4843    1.5831   C.3       1 RES1   0.0000
    30 C24      -2.1235    7.4886    0.5832   C.3       1 RES1   0.0000
    31 C25      -2.8856    7.7083   -0.7335   C.3       1 RES1   0.0000
    32 C26      -4.0734    8.6667   -0.6096   C.3       1 RES1   0.0000
    33 C27      -4.5576    9.2192   -1.9532   C.3       1 RES1   0.0000
    34 C28      -5.2276    8.1922   -2.8628   C.3       1 RES1   0.0000
    35 C29      -4.3902    2.6438    3.1567   C.3       1 RES1   0.0000
    36 C30      -3.9991    1.9447    4.4671   C.3       1 RES1   0.0000
    37 C31      -5.1334    1.1567    5.1145   C.3       1 RES1   0.0000
    38 C32      -6.2742    2.0360    5.6489   C.3       1 RES1   0.0000
    39 C33      -7.6425    1.6177    5.1037   C.3       1 RES1   0.0000
    40 C34      -7.8919    2.0996    3.6748   C.3       1 RES1   0.0000
    41 C35      -9.2847    1.7304    3.1643   C.3       1 RES1   0.0000
    42 C36      -9.5495    2.2702    1.7622   C.3       1 RES1   0.0000
    43 H1        1.7629   -4.6632   -4.9884   H         1 RES1   0.0000
    44 H2        0.4857   -3.7001   -5.7050   H         1 RES1   0.0000
    45 H3        0.6047   -3.8259   -3.9486   H         1 RES1   0.0000
    46 H4        2.6087   -2.4554   -5.8000   H         1 RES1   0.0000
    47 H5        2.8629   -2.6964   -4.0756   H         1 RES1   0.0000
    48 H6        2.0859   -0.4386   -4.3870   H         1 RES1   0.0000
    49 H7        0.7596   -1.3288   -3.6421   H         1 RES1   0.0000
    50 H8       -0.2839   -1.5770   -5.9299   H         1 RES1   0.0000
    51 H9        1.1041   -0.7626   -6.6301   H         1 RES1   0.0000
    52 H10      -0.5886    0.8899   -6.4890   H         1 RES1   0.0000
    53 H11       0.5906    1.2534   -5.2279   H         1 RES1   0.0000
    54 H12      -1.6399    1.5893   -4.4131   H         1 RES1   0.0000
    55 H13      -0.8961    0.2729   -3.5070   H         1 RES1   0.0000
    56 H14      -2.4061   -0.6168   -5.9145   H         1 RES1   0.0000
    57 H15      -3.4124    0.1804   -4.7272   H         1 RES1   0.0000
    58 H16      -1.5551   -2.0401   -3.8344   H         1 RES1   0.0000
    59 H17      -3.0992   -2.4011   -4.6395   H         1 RES1   0.0000
    60 H18      -5.0367   -1.5219   -3.8773   H         1 RES1   0.0000
    61 H19      -5.2196   -0.8900   -2.2514   H         1 RES1   0.0000
    62 H20      -6.1796   -3.0540   -2.1276   H         1 RES1   0.0000
    63 H21      -4.5742   -3.3060   -1.4519   H         1 RES1   0.0000
    64 H22      -3.7937   -4.1456   -3.6918   H         1 RES1   0.0000
    65 H23      -5.4227   -3.8559   -4.3261   H         1 RES1   0.0000
    66 H24      -5.2508   -6.1758   -3.8764   H         1 RES1   0.0000
    67 H25      -6.2971   -5.4910   -2.6376   H         1 RES1   0.0000
    68 H26      -4.8806   -7.0934   -1.6272   H         1 RES1   0.0000
    69 H27      -4.3806   -5.5220   -1.0210   H         1 RES1   0.0000
    70 H28      -2.9246   -6.5829   -3.4313   H         1 RES1   0.0000
    71 H29      -2.6829   -7.4553   -1.9257   H         1 RES1   0.0000
    72 H30      -1.9529   -5.3014   -0.8328   H         1 RES1   0.0000
    73 H31      -2.0085   -4.5212   -2.4154   H         1 RES1   0.0000
    74 H32      -0.2818   -6.9248   -1.6403   H         1 RES1   0.0000
    75 H33       0.2871   -5.3113   -2.0912   H         1 RES1   0.0000
    76 H34      -0.4625   -6.3508   -3.2884   H         1 RES1   0.0000
    77 H35      -3.9112   -1.6619    0.0112   H         1 RES1   0.0000
    78 H36      -4.2381   -0.0997   -0.8023   H         1 RES1   0.0000
    79 H37      -3.4939    0.0331    2.3313   H         1 RES1   0.0000
    80 H38      -4.3477    0.8734    1.0043   H         1 RES1   0.0000
    81 H39      -1.4467    3.8372    2.9784   H         1 RES1   0.0000
    82 H40      -2.9469    4.6841    3.4083   H         1 RES1   0.0000
    83 H41      -2.8624    4.5880    0.5433   H         1 RES1   0.0000
    84 H42      -1.2475    5.0209    1.0606   H         1 RES1   0.0000
    85 H43      -2.4033    6.7884    2.5821   H         1 RES1   0.0000
    86 H44      -3.8162    6.5555    1.5522   H         1 RES1   0.0000
    87 H45      -1.0960    7.1841    0.3591   H         1 RES1   0.0000
    88 H46      -2.0591    8.4597    1.0766   H         1 RES1   0.0000
    89 H47      -3.2182    6.7501   -1.1378   H         1 RES1   0.0000
    90 H48      -2.1853    8.1480   -1.4480   H         1 RES1   0.0000
    91 H49      -3.7593    9.5208   -0.0111   H         1 RES1   0.0000
    92 H50      -4.9086    8.1868   -0.0945   H         1 RES1   0.0000
    93 H51      -3.7149    9.6704   -2.4790   H         1 RES1   0.0000
    94 H52      -5.2818   10.0116   -1.7532   H         1 RES1   0.0000
    95 H53      -4.5242    7.4295   -3.2001   H         1 RES1   0.0000
    96 H54      -5.6245    8.6928   -3.7459   H         1 RES1   0.0000
    97 H55      -6.0576    7.7078   -2.3470   H         1 RES1   0.0000
    98 H56      -5.0800    2.0252    2.5824   H         1 RES1   0.0000
    99 H57      -4.8920    3.5899    3.3600   H         1 RES1   0.0000
   100 H58      -3.6171    2.6829    5.1720   H         1 RES1   0.0000
   101 H59      -3.1822    1.2517    4.2459   H         1 RES1   0.0000
   102 H60      -4.7036    0.5765    5.9343   H         1 RES1   0.0000
   103 H61      -5.5314    0.4399    4.3922   H         1 RES1   0.0000
   104 H62      -6.1050    3.0869    5.4071   H         1 RES1   0.0000
   105 H63      -6.2971    1.9639    6.7361   H         1 RES1   0.0000
   106 H64      -8.4188    2.0254    5.7530   H         1 RES1   0.0000
   107 H65      -7.7293    0.5294    5.1370   H         1 RES1   0.0000
   108 H66      -7.1542    1.6575    2.9951   H         1 RES1   0.0000
   109 H67      -7.7708    3.1869    3.6411   H         1 RES1   0.0000
   110 H68     -10.0418    2.1197    3.8455   H         1 RES1   0.0000
   111 H69      -9.3785    0.6426    3.1519   H         1 RES1   0.0000
   112 H70      -9.6168    3.3555    1.7637   H         1 RES1   0.0000
   113 H71     -10.4894    1.8791    1.3796   H         1 RES1   0.0000
   114 H72      -8.7550    1.9762    1.0746   H         1 RES1   0.0000
   115 C37       1.2277   -4.4165    6.7388   C.3       1 RES1   0.0000
   116 C38       0.0601   -3.9728    7.6100   C.3       1 RES1   0.0000
   117 C39      -0.5093   -2.6152    7.1949   C.3       1 RES1   0.0000
   118 C40       0.5085   -1.4753    7.2972   C.3       1 RES1   0.0000
   119 C41      -0.1575   -0.1070    7.4609   C.3       1 RES1   0.0000
   120 C42      -0.9966    0.3677    6.2639   C.3       1 RES1   0.0000
   121 C43      -0.2838    1.2739    5.2550   C.3       1 RES1   0.0000
   122 C44       0.8797    0.6198    4.5071   C.3       1 RES1   0.0000
   123 N3        1.4391    1.5828    3.5526   N.am      1 RES1   0.0000
   124 C45       2.3268    2.5976    4.0964   C.3       1 RES1   0.0000
   125 C46       3.8007    2.1884    3.9414   C.3       1 RES1   0.0000
   126 C47       4.1409    0.9325    4.7504   C.3       1 RES1   0.0000
   127 C48       5.6415    0.6737    4.9079   C.3       1 RES1   0.0000
   128 C49       6.3712    0.2727    3.6208   C.3       1 RES1   0.0000
   129 C50       6.4221   -1.2311    3.3369   C.3       1 RES1   0.0000
   130 C51       5.0940   -1.8892    2.9611   C.3       1 RES1   0.0000
   131 C52       5.3351   -3.3152    2.4756   C.3       1 RES1   0.0000
   132 C53       1.1585    1.4583    2.2601   C.2       1 RES1   0.0000
   133 O4        0.7327    0.3837    1.7947   O.2       1 RES1   0.0000
   134 C54       1.2975    2.6759    1.3197   C.3       1 RES1   0.0000
   135 O5        0.8390    2.2752    0.0276   O.3       1 RES1   0.0000
   136 C55       0.2443    3.2627   -0.8124   C.3       1 RES1   0.0000
   137 C56      -1.0303    2.6794   -1.4659   C.2       1 RES1   0.0000
   138 O6       -1.2247    1.4523   -1.3760   O.2       1 RES1   0.0000
   139 N4       -1.9087    3.4739   -2.0688   N.am      1 RES1   0.0000
   140 C57      -3.1899    2.8968   -2.4743   C.3       1 RES1   0.0000
   141 C58      -4.2911    2.9771   -1.4011   C.3       1 RES1   0.0000
   142 C59      -5.0052    4.3360   -1.3116   C.3       1 RES1   0.0000
   143 C60      -6.4259    4.2663   -0.7173   C.3       1 RES1   0.0000
   144 C61      -6.5667    4.6222    0.7747   C.3       1 RES1   0.0000
   145 C62      -7.2802    5.9653    0.9796   C.3       1 RES1   0.0000
   146 C63      -7.6460    6.2889    2.4322   C.3       1 RES1   0.0000
   147 C64      -6.4652    6.5826    3.3494   C.3       1 RES1   0.0000
   148 C65      -1.6147    4.7965   -2.6032   C.3       1 RES1   0.0000
   149 C66      -1.4485    4.7860   -4.1305   C.3       1 RES1   0.0000
   150 C67      -0.0962    4.2759   -4.6336   C.3       1 RES1   0.0000
   151 C68       0.9624    5.3677   -4.8079   C.3       1 RES1   0.0000
   152 C69       1.6356    5.8902   -3.5330   C.3       1 RES1   0.0000
   153 C70       1.0681    7.2146   -3.0227   C.3       1 RES1   0.0000
   154 C71       1.8055    7.7104   -1.7790   C.3       1 RES1   0.0000
   155 C72       1.3270    9.0900   -1.3453   C.3       1 RES1   0.0000
   156 H73       1.5882   -5.3916    7.0527   H         1 RES1   0.0000
   157 H74       2.0534   -3.7141    6.8127   H         1 RES1   0.0000
   158 H75       0.9223   -4.4845    5.6956   H         1 RES1   0.0000
   159 H76       0.3854   -3.9233    8.6497   H         1 RES1   0.0000
   160 H77      -0.7356   -4.7194    7.5563   H         1 RES1   0.0000
   161 H78      -1.3606   -2.3890    7.8398   H         1 RES1   0.0000
   162 H79      -0.8840   -2.6876    6.1700   H         1 RES1   0.0000
   163 H80       1.1623   -1.4836    6.4250   H         1 RES1   0.0000
   164 H81       1.1273   -1.6461    8.1785   H         1 RES1   0.0000
   165 H82       0.5978    0.6429    7.7052   H         1 RES1   0.0000
   166 H83      -0.8180   -0.1771    8.3274   H         1 RES1   0.0000
   167 H84      -1.8352    0.9495    6.6559   H         1 RES1   0.0000
   168 H85      -1.4164   -0.4983    5.7501   H         1 RES1   0.0000
   169 H86       0.0746    2.1550    5.7906   H         1 RES1   0.0000
   170 H87      -1.0163    1.6167    4.5171   H         1 RES1   0.0000
   171 H88       0.5339   -0.2561    3.9505   H         1 RES1   0.0000
   172 H89       1.6529    0.3221    5.2141   H         1 RES1   0.0000
   173 H90       2.0946    2.7122    5.1553   H         1 RES1   0.0000
   174 H91       2.1434    3.5570    3.6077   H         1 RES1   0.0000
   175 H92       4.4188    3.0179    4.2906   H         1 RES1   0.0000
   176 H93       4.0190    2.0297    2.8820   H         1 RES1   0.0000
   177 H94       3.6677    0.0660    4.2880   H         1 RES1   0.0000
   178 H95       3.7285    1.0613    5.7531   H         1 RES1   0.0000
   179 H96       5.7754   -0.1164    5.6497   H         1 RES1   0.0000
   180 H97       6.1002    1.5781    5.3146   H         1 RES1   0.0000
   181 H98       7.4043    0.6138    3.7075   H         1 RES1   0.0000
   182 H99       5.9295    0.7926    2.7684   H         1 RES1   0.0000
   183 H100      6.8321   -1.7407    4.2105   H         1 RES1   0.0000
   184 H101      7.1246   -1.3856    2.5133   H         1 RES1   0.0000
   185 H102      4.5970   -1.3009    2.1800   H         1 RES1   0.0000
   186 H103      4.4329   -1.9266    3.8285   H         1 RES1   0.0000
   187 H104      5.9488   -3.3255    1.5765   H         1 RES1   0.0000
   188 H105      4.3977   -3.8288    2.2699   H         1 RES1   0.0000
   189 H106      5.8619   -3.8781    3.2413   H         1 RES1   0.0000
   190 H107      2.3392    3.0300    1.2569   H         1 RES1   0.0000
   191 H108      0.6847    3.4898    1.7221   H         1 RES1   0.0000
   192 H109      0.9719    3.5190   -1.6012   H         1 RES1   0.0000
   193 H110     -0.0118    4.1652   -0.2453   H         1 RES1   0.0000
   194 H111     -3.0138    1.8466   -2.7216   H         1 RES1   0.0000
   195 H112     -3.5423    3.4139   -3.3640   H         1 RES1   0.0000
   196 H113     -3.8609    2.6998   -0.4362   H         1 RES1   0.0000
   197 H114     -5.0402    2.2278   -1.6660   H         1 RES1   0.0000
   198 H115     -5.0926    4.7390   -2.3211   H         1 RES1   0.0000
   199 H116     -4.4016    5.0364   -0.7347   H         1 RES1   0.0000
   200 H117     -6.8313    3.2689   -0.8994   H         1 RES1   0.0000
   201 H118     -7.0531    4.9584   -1.2799   H         1 RES1   0.0000
   202 H119     -5.5831    4.6532    1.2522   H         1 RES1   0.0000
   203 H120     -7.1538    3.8531    1.2784   H         1 RES1   0.0000
   204 H121     -8.2079    5.9575    0.4065   H         1 RES1   0.0000
   205 H122     -6.6570    6.7624    0.5630   H         1 RES1   0.0000
   206 H123     -8.2340    5.4667    2.8482   H         1 RES1   0.0000
   207 H124     -8.2865    7.1730    2.4148   H         1 RES1   0.0000
   208 H125     -5.8159    5.7153    3.4805   H         1 RES1   0.0000
   209 H126     -6.8384    6.8742    4.3290   H         1 RES1   0.0000
   210 H127     -5.8730    7.4061    2.9588   H         1 RES1   0.0000
   211 H128     -0.7129    5.1824   -2.1404   H         1 RES1   0.0000
   212 H129     -2.4474    5.4517   -2.3425   H         1 RES1   0.0000
   213 H130     -1.5971    5.8076   -4.4824   H         1 RES1   0.0000
   214 H131     -2.2365    4.1776   -4.5808   H         1 RES1   0.0000
   215 H132     -0.2536    3.8286   -5.6167   H         1 RES1   0.0000
   216 H133      0.2738    3.4789   -3.9803   H         1 RES1   0.0000
   217 H134      0.5038    6.2051   -5.3344   H         1 RES1   0.0000
   218 H135      1.7347    4.9666   -5.4627   H         1 RES1   0.0000
   219 H136      2.6946    6.0504   -3.7396   H         1 RES1   0.0000
   220 H137      1.5867    5.1335   -2.7433   H         1 RES1   0.0000
   221 H138      0.0015    7.1234   -2.8029   H         1 RES1   0.0000
   222 H139      1.1721    7.9661   -3.8060   H         1 RES1   0.0000
   223 H140      2.8757    7.7583   -1.9890   H         1 RES1   0.0000
   224 H141      1.6629    7.0006   -0.9591   H         1 RES1   0.0000
   225 H142      1.4322    9.8000   -2.1608   H         1 RES1   0.0000
   226 H143      1.9151    9.4569   -0.5070   H         1 RES1   0.0000
   227 H144      0.2804    9.0631   -1.0491   H         1 RES1   0.0000
   228 C73       0.4204   -9.6920    0.0954   C.3       1 RES1   0.0000
   229 C74       1.8706   -9.3956   -0.2695   C.3       1 RES1   0.0000
   230 C75       2.5278   -8.2558    0.5182   C.3       1 RES1   0.0000
   231 C76       2.7554   -8.5437    2.0083   C.3       1 RES1   0.0000
   232 C77       1.5648   -8.2295    2.9263   C.3       1 RES1   0.0000
   233 C78       1.6248   -6.8672    3.6282   C.3       1 RES1   0.0000
   234 C79       1.5588   -5.6409    2.7038   C.3       1 RES1   0.0000
   235 C80       0.2424   -5.5364    1.9065   C.3       1 RES1   0.0000
   236 N5       -0.3919   -4.2135    1.9285   N.am      1 RES1   0.0000
   237 C81      -1.4135   -4.0887    2.9758   C.3       1 RES1   0.0000
   238 C82      -2.3385   -2.8774    2.9092   C.3       1 RES1   0.0000
   239 C83      -3.4242   -2.9472    3.9904   C.3       1 RES1   0.0000
   240 C84      -4.4719   -4.0565    3.8082   C.3       1 RES1   0.0000
   241 C85      -5.7886   -3.5796    3.1930   C.3       1 RES1   0.0000
   242 C86      -5.6506   -3.1138    1.7455   C.3       1 RES1   0.0000
   243 C87      -7.0037   -2.8068    1.1013   C.3       1 RES1   0.0000
   244 C88      -7.6160   -1.4981    1.5835   C.3       1 RES1   0.0000
   245 C89      -0.0204   -3.2171    1.1335   C.2       1 RES1   0.0000
   246 O7       -0.5535   -2.0927    1.0914   O.2       1 RES1   0.0000
   247 C90       1.1745   -3.4582    0.2116   C.3       1 RES1   0.0000
   248 O8        1.4607   -2.2041   -0.3851   O.3       1 RES1   0.0000
   249 C91       2.7885   -2.1113   -0.8674   C.3       1 RES1   0.0000
   250 C92       3.0373   -0.6297   -1.1396   C.2       1 RES1   0.0000
   251 O9        2.0596    0.1474   -1.1022   O.2       1 RES1   0.0000
   252 N6        4.2688   -0.2171   -1.3878   N.am      1 RES1   0.0000
   253 C93       4.4768    1.1998   -1.6700   C.3       1 RES1   0.0000
   254 C94       4.3456    2.1044   -0.4352   C.3       1 RES1   0.0000
   255 C95       5.5695    3.0112   -0.2617   C.3       1 RES1   0.0000
   256 C96       5.3245    4.1579    0.7205   C.3       1 RES1   0.0000
   257 C97       4.5920    5.3201    0.0495   C.3       1 RES1   0.0000
   258 C98       4.1320    6.3962    1.0346   C.3       1 RES1   0.0000
   259 C99       2.8548    6.0187    1.7851   C.3       1 RES1   0.0000
   260 C100      2.2751    7.1988    2.5559   C.3       1 RES1   0.0000
   261 C101      5.4357   -1.0817   -1.5030   C.3       1 RES1   0.0000
   262 C102      5.7064   -1.5275   -2.9524   C.3       1 RES1   0.0000
   263 C103      6.5490   -0.5297   -3.7589   C.3       1 RES1   0.0000
   264 C104      6.4976   -0.8221   -5.2601   C.3       1 RES1   0.0000
   265 C105      5.1820   -0.3940   -5.9316   C.3       1 RES1   0.0000
   266 C106      5.2363    0.9557   -6.6592   C.3       1 RES1   0.0000
   267 C107      5.1707    2.2035   -5.7731   C.3       1 RES1   0.0000
   268 C108      3.7726    2.4842   -5.2291   C.3       1 RES1   0.0000
   269 H145     -0.0105  -10.3679   -0.6387   H         1 RES1   0.0000
   270 H146     -0.1746   -8.7787    0.1048   H         1 RES1   0.0000
   271 H147      0.3485  -10.1706    1.0675   H         1 RES1   0.0000
   272 H148      1.9151   -9.1331   -1.3306   H         1 RES1   0.0000
   273 H149      2.4580  -10.3054   -0.1383   H         1 RES1   0.0000
   274 H150      1.9344   -7.3451    0.3941   H         1 RES1   0.0000
   275 H151      3.5011   -8.0742    0.0549   H         1 RES1   0.0000
   276 H152      3.6263   -7.9809    2.3539   H         1 RES1   0.0000
   277 H153      3.0068   -9.6001    2.1046   H         1 RES1   0.0000
   278 H154      1.5290   -8.9853    3.7134   H         1 RES1   0.0000
   279 H155      0.6354   -8.3107    2.3655   H         1 RES1   0.0000
   280 H156      2.5588   -6.8021    4.1914   H         1 RES1   0.0000
   281 H157      0.8114   -6.8204    4.3572   H         1 RES1   0.0000
   282 H158      2.4084   -5.6964    2.0241   H         1 RES1   0.0000
   283 H159      1.6726   -4.7446    3.3199   H         1 RES1   0.0000
   284 H160     -0.4760   -6.2272    2.3506   H         1 RES1   0.0000
   285 H161      0.3871   -5.8458    0.8683   H         1 RES1   0.0000
   286 H162     -0.8911   -4.1031    3.9395   H         1 RES1   0.0000
   287 H163     -2.0248   -4.9934    2.9210   H         1 RES1   0.0000
   288 H164     -2.7926   -2.8309    1.9176   H         1 RES1   0.0000
   289 H165     -1.7561   -1.9642    3.0578   H         1 RES1   0.0000
   290 H166     -3.9401   -1.9855    4.0146   H         1 RES1   0.0000
   291 H167     -2.9358   -3.0681    4.9594   H         1 RES1   0.0000
   292 H168     -4.7011   -4.4836    4.7845   H         1 RES1   0.0000
   293 H169     -4.0726   -4.8627    3.1922   H         1 RES1   0.0000
   294 H170     -6.2007   -2.7742    3.8028   H         1 RES1   0.0000
   295 H171     -6.4998   -4.4072    3.2243   H         1 RES1   0.0000
   296 H172     -5.1574   -3.9044    1.1726   H         1 RES1   0.0000
   297 H173     -5.0194   -2.2197    1.7096   H         1 RES1   0.0000
   298 H174     -7.6889   -3.6264    1.3186   H         1 RES1   0.0000
   299 H175     -6.8878   -2.7622    0.0158   H         1 RES1   0.0000
   300 H176     -7.7369   -1.5020    2.6625   H         1 RES1   0.0000
   301 H177     -8.5955   -1.3595    1.1359   H         1 RES1   0.0000
   302 H178     -6.9935   -0.6471    1.3061   H         1 RES1   0.0000
   303 H179      0.9349   -4.2109   -0.5556   H         1 RES1   0.0000
   304 H180      2.0246   -3.8128    0.8090   H         1 RES1   0.0000
   305 H181      2.9045   -2.6986   -1.7899   H         1 RES1   0.0000
   306 H182      3.4948   -2.4798   -0.1107   H         1 RES1   0.0000
   307 H183      3.7576    1.5034   -2.4327   H         1 RES1   0.0000
   308 H184      5.4821    1.2982   -2.0759   H         1 RES1   0.0000
   309 H185      4.2211    1.4814    0.4570   H         1 RES1   0.0000
   310 H186      3.4507    2.7184   -0.5502   H         1 RES1   0.0000
   311 H187      5.8432    3.4457   -1.2246   H         1 RES1   0.0000
   312 H188      6.4127    2.4073    0.0754   H         1 RES1   0.0000
   313 H189      6.2794    4.5280    1.0886   H         1 RES1   0.0000
   314 H190      4.7649    3.7966    1.5833   H         1 RES1   0.0000
   315 H191      3.7248    4.9554   -0.5094   H         1 RES1   0.0000
   316 H192      5.2735    5.7690   -0.6753   H         1 RES1   0.0000
   317 H193      3.9520    7.3219    0.4865   H         1 RES1   0.0000
   318 H194      4.9304    6.5869    1.7508   H         1 RES1   0.0000
   319 H195      3.0635    5.2044    2.4829   H         1 RES1   0.0000
   320 H196      2.1076    5.6609    1.0683   H         1 RES1   0.0000
   321 H197      2.9953    7.5690    3.2810   H         1 RES1   0.0000
   322 H198      1.3666    6.9127    3.0856   H         1 RES1   0.0000
   323 H199      2.0326    8.0128    1.8767   H         1 RES1   0.0000
   324 H200      5.3165   -1.9538   -0.8600   H         1 RES1   0.0000
   325 H201      6.2927   -0.5178   -1.1296   H         1 RES1   0.0000
   326 H202      4.7535   -1.7131   -3.4561   H         1 RES1   0.0000
   327 H203      6.2435   -2.4779   -2.9264   H         1 RES1   0.0000
   328 H204      7.5817   -0.5897   -3.4087   H         1 RES1   0.0000
   329 H205      6.2089    0.4910   -3.6065   H         1 RES1   0.0000
   330 H206      6.6584   -1.8922   -5.4033   H         1 RES1   0.0000
   331 H207      7.3259   -0.3082   -5.7479   H         1 RES1   0.0000
   332 H208      4.3758   -0.3825   -5.1943   H         1 RES1   0.0000
   333 H209      4.9289   -1.1480   -6.6783   H         1 RES1   0.0000
   334 H210      4.3998    0.9993   -7.3624   H         1 RES1   0.0000
   335 H211      6.1529    0.9894   -7.2506   H         1 RES1   0.0000
   336 H212      5.4728    3.0603   -6.3787   H         1 RES1   0.0000
   337 H213      5.8841    2.1235   -4.9511   H         1 RES1   0.0000
   338 H214      3.0912    2.6961   -6.0502   H         1 RES1   0.0000
   339 H215      3.7901    3.3482   -4.5672   H         1 RES1   0.0000
   340 H216      3.3762    1.6346   -4.6753   H         1 RES1   0.0000
@<TRIPOS>BOND
     1     1    20    1
     2     1    22    1
     3     1    25    1
     4     1   133    1
     5     1   135    1
     6     1   138    1
     7     1   246    1
     8     1   248    1
     9     1   251    1
    10     2     3    1
    11     2    43    1
    12     2    44    1
    13     2    45    1
    14     3     4    1
    15     3    46    1
    16     3    47    1
    17     4     5    1
    18     4    48    1
    19     4    49    1
    20     5     6    1
    21     5    50    1
    22     5    51    1
    23     6     7    1
    24     6    52    1
    25     6    53    1
    26     7     8    1
    27     7    54    1
    28     7    55    1
    29     8     9    1
    30     8    56    1
    31     8    57    1
    32     9    10    1
    33     9    58    1
    34     9    59    1
    35    10    11    1
    36    10    19    1
    37    11    12    1
    38    11    60    1
    39    11    61    1
    40    12    13    1
    41    12    62    1
    42    12    63    1
    43    13    14    1
    44    13    64    1
    45    13    65    1
    46    14    15    1
    47    14    66    1
    48    14    67    1
    49    15    16    1
    50    15    68    1
    51    15    69    1
    52    16    17    1
    53    16    70    1
    54    16    71    1
    55    17    18    1
    56    17    72    1
    57    17    73    1
    58    18    74    1
    59    18    75    1
    60    18    76    1
    61    19    20    2
    62    19    21    1
    63    21    22    1
    64    21    77    1
    65    21    78    1
    66    22    23    1
    67    23    24    1
    68    23    79    1
    69    23    80    1
    70    24    25    2
    71    24    26    1
    72    26    27    1
    73    26    35    1
    74    27    28    1
    75    27    81    1
    76    27    82    1
    77    28    29    1
    78    28    83    1
    79    28    84    1
    80    29    30    1
    81    29    85    1
    82    29    86    1
    83    30    31    1
    84    30    87    1
    85    30    88    1
    86    31    32    1
    87    31    89    1
    88    31    90    1
    89    32    33    1
    90    32    91    1
    91    32    92    1
    92    33    34    1
    93    33    93    1
    94    33    94    1
    95    34    95    1
    96    34    96    1
    97    34    97    1
    98    35    36    1
    99    35    98    1
   100    35    99    1
   101    36    37    1
   102    36   100    1
   103    36   101    1
   104    37    38    1
   105    37   102    1
   106    37   103    1
   107    38    39    1
   108    38   104    1
   109    38   105    1
   110    39    40    1
   111    39   106    1
   112    39   107    1
   113    40    41    1
   114    40   108    1
   115    40   109    1
   116    41    42    1
   117    41   110    1
   118    41   111    1
   119    42   112    1
   120    42   113    1
   121    42   114    1
   122   115   116    1
   123   115   156    1
   124   115   157    1
   125   115   158    1
   126   116   117    1
   127   116   159    1
   128   116   160    1
   129   117   118    1
   130   117   161    1
   131   117   162    1
   132   118   119    1
   133   118   163    1
   134   118   164    1
   135   119   120    1
   136   119   165    1
   137   119   166    1
   138   120   121    1
   139   120   167    1
   140   120   168    1
   141   121   122    1
   142   121   169    1
   143   121   170    1
   144   122   123    1
   145   122   171    1
   146   122   172    1
   147   123   124    1
   148   123   132    1
   149   124   125    1
   150   124   173    1
   151   124   174    1
   152   125   126    1
   153   125   175    1
   154   125   176    1
   155   126   127    1
   156   126   177    1
   157   126   178    1
   158   127   128    1
   159   127   179    1
   160   127   180    1
   161   128   129    1
   162   128   181    1
   163   128   182    1
   164   129   130    1
   165   129   183    1
   166   129   184    1
   167   130   131    1
   168   130   185    1
   169   130   186    1
   170   131   187    1
   171   131   188    1
   172   131   189    1
   173   132   133    2
   174   132   134    1
   175   134   135    1
   176   134   190    1
   177   134   191    1
   178   135   136    1
   179   136   137    1
   180   136   192    1
   181   136   193    1
   182   137   138    2
   183   137   139    1
   184   139   140    1
   185   139   148    1
   186   140   141    1
   187   140   194    1
   188   140   195    1
   189   141   142    1
   190   141   196    1
   191   141   197    1
   192   142   143    1
   193   142   198    1
   194   142   199    1
   195   143   144    1
   196   143   200    1
   197   143   201    1
   198   144   145    1
   199   144   202    1
   200   144   203    1
   201   145   146    1
   202   145   204    1
   203   145   205    1
   204   146   147    1
   205   146   206    1
   206   146   207    1
   207   147   208    1
   208   147   209    1
   209   147   210    1
   210   148   149    1
   211   148   211    1
   212   148   212    1
   213   149   150    1
   214   149   213    1
   215   149   214    1
   216   150   151    1
   217   150   215    1
   218   150   216    1
   219   151   152    1
   220   151   217    1
   221   151   218    1
   222   152   153    1
   223   152   219    1
   224   152   220    1
   225   153   154    1
   226   153   221    1
   227   153   222    1
   228   154   155    1
   229   154   223    1
   230   154   224    1
   231   155   225    1
   232   155   226    1
   233   155   227    1
   234   228   229    1
   235   228   269    1
   236   228   270    1
   237   228   271    1
   238   229   230    1
   239   229   272    1
   240   229   273    1
   241   230   231    1
   242   230   274    1
   243   230   275    1
   244   231   232    1
   245   231   276    1
   246   231   277    1
   247   232   233    1
   248   232   278    1
   249   232   279    1
   250   233   234    1
   251   233   280    1
   252   233   281    1
   253   234   235    1
   254   234   282    1
   255   234   283    1
   256   235   236    1
   257   235   284    1
   258   235   285    1
   259   236   237    1
   260   236   245    1
   261   237   238    1
   262   237   286    1
   263   237   287    1
   264   238   239    1
   265   238   288    1
   266   238   289    1
   267   239   240    1
   268   239   290    1
   269   239   291    1
   270   240   241    1
   271   240   292    1
   272   240   293    1
   273   241   242    1
   274   241   294    1
   275   241   295    1
   276   242   243    1
   277   242   296    1
   278   242   297    1
   279   243   244    1
   280   243   298    1
   281   243   299    1
   282   244   300    1
   283   244   301    1
   284   244   302    1
   285   245   246    2
   286   245   247    1
   287   247   248    1
   288   247   303    1
   289   247   304    1
   290   248   249    1
   291   249   250    1
   292   249   305    1
   293   249   306    1
   294   250   251    2
   295   250   252    1
   296   252   253    1
   297   252   261    1
   298   253   254    1
   299   253   307    1
   300   253   308    1
   301   254   255    1
   302   254   309    1
   303   254   310    1
   304   255   256    1
   305   255   311    1
   306   255   312    1
   307   256   257    1
   308   256   313    1
   309   256   314    1
   310   257   258    1
   311   257   315    1
   312   257   316    1
   313   258   259    1
   314   258   317    1
   315   258   318    1
   316   259   260    1
   317   259   319    1
   318   259   320    1
   319   260   321    1
   320   260   322    1
   321   260   323    1
   322   261   262    1
   323   261   324    1
   324   261   325    1
   325   262   263    1
   326   262   326    1
   327   262   327    1
   328   263   264    1
   329   263   328    1
   330   263   329    1
   331   264   265    1
   332   264   330    1
   333   264   331    1
   334   265   266    1
   335   265   332    1
   336   265   333    1
   337   266   267    1
   338   266   334    1
   339   266   335    1
   340   267   268    1
   341   267   336    1
   342   267   337    1
   343   268   338    1
   344   268   339    1
   345   268   340    1
@<TRIPOS>SUBSTRUCTURE
     1 RES1      340 GROUP             0 ****  ****    0  
