@<TRIPOS>MOLECULE
am_c3_9H2O_c0_0_nunpairedes_0_charge_3 Charge: 3 Unpaired_Electrons: 3 XTB_Unpaired_Electrons: 0 XTB_Charge: 3
   250   255     1     0     0
SMALL
NoCharges
****
Generated from Architector

@<TRIPOS>ATOM
     1 Nd1       0.1704   -0.0662   -0.1584   Nd        1 RES1   0.0000
     2 C1       -3.9325    0.2898    7.9111   C.3       1 RES1   0.0000
     3 C2       -4.6675    1.5867    7.5933   C.3       1 RES1   0.0000
     4 C3       -5.9651    1.3244    6.8284   C.3       1 RES1   0.0000
     5 C4       -6.7328    2.5955    6.4582   C.3       1 RES1   0.0000
     6 C5       -6.0582    3.4298    5.3650   C.3       1 RES1   0.0000
     7 C6       -6.1431    2.7973    3.9652   C.3       1 RES1   0.0000
     8 C7       -4.8503    2.9476    3.1525   C.3       1 RES1   0.0000
     9 C8       -3.8184    1.8931    3.5605   C.3       1 RES1   0.0000
    10 N1       -2.5155    2.0364    2.9253   N.am      1 RES1   0.0000
    11 C9       -1.5733    2.8902    3.6342   C.3       1 RES1   0.0000
    12 C10      -0.7203    2.1283    4.6483   C.3       1 RES1   0.0000
    13 C11       0.0049    3.0925    5.5796   C.3       1 RES1   0.0000
    14 C12      -2.1215    1.3955    1.8373   C.2       1 RES1   0.0000
    15 O1       -0.9369    1.3710    1.4450   O.2       1 RES1   0.0000
    16 C13      -3.1789    0.6741    0.9966   C.3       1 RES1   0.0000
    17 O2       -2.5622    0.1033   -0.1492   O.3       1 RES1   0.0000
    18 C14      -3.0117    0.5762   -1.4134   C.3       1 RES1   0.0000
    19 C15      -1.9610    1.4580   -2.0932   C.2       1 RES1   0.0000
    20 O3       -0.8247    1.5290   -1.5870   O.2       1 RES1   0.0000
    21 N2       -2.3349    2.1811   -3.1460   N.am      1 RES1   0.0000
    22 C16      -3.4631    1.8571   -4.0163   C.3       1 RES1   0.0000
    23 C17      -4.4167    3.0158   -4.3327   C.3       1 RES1   0.0000
    24 C18      -5.6151    2.5182   -5.1290   C.3       1 RES1   0.0000
    25 C19      -1.4298    3.2132   -3.6455   C.3       1 RES1   0.0000
    26 C20      -0.3078    2.6773   -4.5393   C.3       1 RES1   0.0000
    27 C21       0.0917    3.6329   -5.6687   C.3       1 RES1   0.0000
    28 C22       1.0842    4.7452   -5.3221   C.3       1 RES1   0.0000
    29 C23       0.6301    5.7566   -4.2593   C.3       1 RES1   0.0000
    30 C24       1.1487    5.4695   -2.8505   C.3       1 RES1   0.0000
    31 C25       0.8508    6.5898   -1.8537   C.3       1 RES1   0.0000
    32 C26      -0.6385    6.7650   -1.5781   C.3       1 RES1   0.0000
    33 H1       -3.0096    0.4900    8.4501   H         1 RES1   0.0000
    34 H2       -4.5557   -0.3488    8.5304   H         1 RES1   0.0000
    35 H3       -3.6910   -0.2514    6.9966   H         1 RES1   0.0000
    36 H4       -4.8980    2.1046    8.5256   H         1 RES1   0.0000
    37 H5       -4.0090    2.2407    7.0134   H         1 RES1   0.0000
    38 H6       -5.7419    0.7490    5.9249   H         1 RES1   0.0000
    39 H7       -6.6065    0.7000    7.4518   H         1 RES1   0.0000
    40 H8       -7.7342    2.3175    6.1275   H         1 RES1   0.0000
    41 H9       -6.8470    3.2160    7.3492   H         1 RES1   0.0000
    42 H10      -6.5264    4.4145    5.3460   H         1 RES1   0.0000
    43 H11      -5.0163    3.5899    5.6435   H         1 RES1   0.0000
    44 H12      -6.3855    1.7377    4.0551   H         1 RES1   0.0000
    45 H13      -6.9568    3.2635    3.4083   H         1 RES1   0.0000
    46 H14      -5.0752    2.8468    2.0906   H         1 RES1   0.0000
    47 H15      -4.4542    3.9512    3.3037   H         1 RES1   0.0000
    48 H16      -3.6383    1.9670    4.6343   H         1 RES1   0.0000
    49 H17      -4.2188    0.9002    3.3532   H         1 RES1   0.0000
    50 H18      -0.9322    3.3859    2.9038   H         1 RES1   0.0000
    51 H19      -2.1580    3.6561    4.1418   H         1 RES1   0.0000
    52 H20      -1.3613    1.4808    5.2477   H         1 RES1   0.0000
    53 H21      -0.0099    1.4917    4.1145   H         1 RES1   0.0000
    54 H22      -0.7128    3.6500    6.1773   H         1 RES1   0.0000
    55 H23       0.6516    2.5505    6.2642   H         1 RES1   0.0000
    56 H24       0.6023    3.8046    5.0151   H         1 RES1   0.0000
    57 H25      -3.6027   -0.1515    1.5809   H         1 RES1   0.0000
    58 H26      -3.9800    1.3736    0.7274   H         1 RES1   0.0000
    59 H27      -3.2052   -0.3108   -2.0243   H         1 RES1   0.0000
    60 H28      -3.9332    1.1545   -1.3030   H         1 RES1   0.0000
    61 H29      -3.0373    1.4834   -4.9543   H         1 RES1   0.0000
    62 H30      -4.0362    1.0482   -3.5711   H         1 RES1   0.0000
    63 H31      -4.7523    3.4926   -3.4116   H         1 RES1   0.0000
    64 H32      -3.9162    3.7724   -4.9330   H         1 RES1   0.0000
    65 H33      -6.1622    1.7547   -4.5868   H         1 RES1   0.0000
    66 H34      -6.2841    3.3470   -5.3251   H         1 RES1   0.0000
    67 H35      -5.3101    2.1111   -6.0865   H         1 RES1   0.0000
    68 H36      -2.0457    3.9157   -4.2045   H         1 RES1   0.0000
    69 H37      -1.0248    3.7293   -2.7775   H         1 RES1   0.0000
    70 H38       0.5589    2.4100   -3.9335   H         1 RES1   0.0000
    71 H39      -0.6644    1.7572   -5.0002   H         1 RES1   0.0000
    72 H40       0.5447    3.0388   -6.4654   H         1 RES1   0.0000
    73 H41      -0.8057    4.0928   -6.0859   H         1 RES1   0.0000
    74 H42       1.2682    5.2865   -6.2515   H         1 RES1   0.0000
    75 H43       2.0397    4.3086   -5.0290   H         1 RES1   0.0000
    76 H44       0.9945    6.7453   -4.5411   H         1 RES1   0.0000
    77 H45      -0.4571    5.8005   -4.2544   H         1 RES1   0.0000
    78 H46       0.7145    4.5450   -2.4640   H         1 RES1   0.0000
    79 H47       2.2323    5.3390   -2.8986   H         1 RES1   0.0000
    80 H48       1.3639    6.3697   -0.9120   H         1 RES1   0.0000
    81 H49       1.2574    7.5260   -2.2362   H         1 RES1   0.0000
    82 H50      -1.0871    5.8230   -1.2583   H         1 RES1   0.0000
    83 H51      -0.7880    7.4991   -0.7898   H         1 RES1   0.0000
    84 H52      -1.1615    7.1181   -2.4633   H         1 RES1   0.0000
    85 C27       1.9378    3.9293    8.6268   C.3       1 RES1   0.0000
    86 C28       3.2477    3.7170    7.8768   C.3       1 RES1   0.0000
    87 C29       3.6941    4.9963    7.1654   C.3       1 RES1   0.0000
    88 C30       5.1554    4.9771    6.7110   C.3       1 RES1   0.0000
    89 C31       5.4507    3.9811    5.5858   C.3       1 RES1   0.0000
    90 C32       4.9774    4.4852    4.2148   C.3       1 RES1   0.0000
    91 C33       4.5282    3.3575    3.2818   C.3       1 RES1   0.0000
    92 C34       3.1254    2.8900    3.6799   C.3       1 RES1   0.0000
    93 N3        2.7526    1.5859    3.1586   N.am      1 RES1   0.0000
    94 C35       3.2425    0.4381    3.9133   C.3       1 RES1   0.0000
    95 C36       2.5193    0.0897    5.2103   C.3       1 RES1   0.0000
    96 C37       3.3226   -1.0089    5.9045   C.3       1 RES1   0.0000
    97 C38       2.1166    1.4099    2.0125   C.2       1 RES1   0.0000
    98 O4        1.7059    0.2977    1.6239   O.2       1 RES1   0.0000
    99 C39       1.8897    2.6218    1.0966   C.3       1 RES1   0.0000
   100 O5        1.4498    2.1599   -0.1701   O.3       1 RES1   0.0000
   101 C40       2.3674    2.3322   -1.2459   C.3       1 RES1   0.0000
   102 C41       2.3710    1.0585   -2.1013   C.2       1 RES1   0.0000
   103 O6        1.8374    0.0370   -1.6274   O.2       1 RES1   0.0000
   104 N4        2.9436    1.0563   -3.2989   N.am      1 RES1   0.0000
   105 C42       3.5227    2.2262   -3.9412   C.3       1 RES1   0.0000
   106 C43       4.9191    2.6024   -3.4349   C.3       1 RES1   0.0000
   107 C44       5.3561    3.9515   -3.9911   C.3       1 RES1   0.0000
   108 C45       2.9865   -0.2117   -4.0322   C.3       1 RES1   0.0000
   109 C46       1.6573   -0.5573   -4.7148   C.3       1 RES1   0.0000
   110 C47       1.8149   -1.6000   -5.8301   C.3       1 RES1   0.0000
   111 C48       1.6793   -3.0529   -5.3776   C.3       1 RES1   0.0000
   112 C49       2.8571   -3.5747   -4.5458   C.3       1 RES1   0.0000
   113 C50       2.5273   -3.7399   -3.0635   C.3       1 RES1   0.0000
   114 C51       3.6895   -4.3520   -2.2823   C.3       1 RES1   0.0000
   115 C52       4.9274   -3.4594   -2.2642   C.3       1 RES1   0.0000
   116 H53       1.5544    2.9906    9.0188   H         1 RES1   0.0000
   117 H54       2.0944    4.6030    9.4635   H         1 RES1   0.0000
   118 H55       1.1892    4.3676    7.9715   H         1 RES1   0.0000
   119 H56       4.0190    3.4087    8.5845   H         1 RES1   0.0000
   120 H57       3.1274    2.9028    7.1533   H         1 RES1   0.0000
   121 H58       3.0333    5.1886    6.3145   H         1 RES1   0.0000
   122 H59       3.5649    5.8277    7.8595   H         1 RES1   0.0000
   123 H60       5.4267    5.9779    6.3735   H         1 RES1   0.0000
   124 H61       5.7840    4.7394    7.5711   H         1 RES1   0.0000
   125 H62       6.5258    3.7991    5.5549   H         1 RES1   0.0000
   126 H63       4.9808    3.0269    5.8285   H         1 RES1   0.0000
   127 H64       4.1441    5.1757    4.3461   H         1 RES1   0.0000
   128 H65       5.7840    5.0438    3.7403   H         1 RES1   0.0000
   129 H66       4.5399    3.7116    2.2494   H         1 RES1   0.0000
   130 H67       5.2412    2.5375    3.3545   H         1 RES1   0.0000
   131 H68       3.0744    2.8135    4.7654   H         1 RES1   0.0000
   132 H69       2.3877    3.6293    3.3682   H         1 RES1   0.0000
   133 H70       3.1898   -0.4281    3.2586   H         1 RES1   0.0000
   134 H71       4.2903    0.6299    4.1540   H         1 RES1   0.0000
   135 H72       2.4500    0.9541    5.8682   H         1 RES1   0.0000
   136 H73       1.5008   -0.2477    5.0030   H         1 RES1   0.0000
   137 H74       4.2685   -0.6153    6.2726   H         1 RES1   0.0000
   138 H75       2.7714   -1.4223    6.7432   H         1 RES1   0.0000
   139 H76       3.5406   -1.8140    5.2063   H         1 RES1   0.0000
   140 H77       1.0975    3.2451    1.5271   H         1 RES1   0.0000
   141 H78       2.8011    3.2219    1.0091   H         1 RES1   0.0000
   142 H79       2.0474    3.1908   -1.8480   H         1 RES1   0.0000
   143 H80       3.3878    2.5104   -0.8851   H         1 RES1   0.0000
   144 H81       3.5628    2.0223   -5.0131   H         1 RES1   0.0000
   145 H82       2.8554    3.0764   -3.7936   H         1 RES1   0.0000
   146 H83       4.9096    2.6527   -2.3451   H         1 RES1   0.0000
   147 H84       5.6416    1.8395   -3.7246   H         1 RES1   0.0000
   148 H85       4.6592    4.7372   -3.7145   H         1 RES1   0.0000
   149 H86       6.3278    4.2159   -3.5904   H         1 RES1   0.0000
   150 H87       5.4329    3.9250   -5.0724   H         1 RES1   0.0000
   151 H88       3.7771   -0.1290   -4.7779   H         1 RES1   0.0000
   152 H89       3.2583   -0.9980   -3.3286   H         1 RES1   0.0000
   153 H90       0.9432   -0.9186   -3.9673   H         1 RES1   0.0000
   154 H91       1.2477    0.3548   -5.1502   H         1 RES1   0.0000
   155 H92       1.0484   -1.4129   -6.5830   H         1 RES1   0.0000
   156 H93       2.7802   -1.4718   -6.3210   H         1 RES1   0.0000
   157 H94       0.7572   -3.1631   -4.8087   H         1 RES1   0.0000
   158 H95       1.5794   -3.6675   -6.2720   H         1 RES1   0.0000
   159 H96       3.1702   -4.5492   -4.9232   H         1 RES1   0.0000
   160 H97       3.7033   -2.9020   -4.6722   H         1 RES1   0.0000
   161 H98       2.2434   -2.7839   -2.6106   H         1 RES1   0.0000
   162 H99       1.6662   -4.4053   -2.9715   H         1 RES1   0.0000
   163 H100      3.3577   -4.5508   -1.2593   H         1 RES1   0.0000
   164 H101      3.9539   -5.3131   -2.7250   H         1 RES1   0.0000
   165 H102      4.6607   -2.4370   -1.9931   H         1 RES1   0.0000
   166 H103      5.6564   -3.8312   -1.5481   H         1 RES1   0.0000
   167 H104      5.4078   -3.4386   -3.2386   H         1 RES1   0.0000
   168 C53      -5.8678    3.1420   -0.7594   C.3       1 RES1   0.0000
   169 C54      -7.0288    2.4383   -1.4526   C.3       1 RES1   0.0000
   170 C55      -7.3570    1.0553   -0.8823   C.3       1 RES1   0.0000
   171 C56      -6.3228   -0.0238   -1.2147   C.3       1 RES1   0.0000
   172 C57      -6.9155   -1.4303   -1.2125   C.3       1 RES1   0.0000
   173 C58      -5.8818   -2.5063   -1.5562   C.3       1 RES1   0.0000
   174 C59      -5.0032   -2.9103   -0.3685   C.3       1 RES1   0.0000
   175 C60      -3.8872   -3.8994   -0.7524   C.3       1 RES1   0.0000
   176 N5       -2.7751   -3.1911   -1.3671   N.am      1 RES1   0.0000
   177 C61      -2.7299   -3.1426   -2.8259   C.3       1 RES1   0.0000
   178 C62      -1.6792   -4.0974   -3.3974   C.3       1 RES1   0.0000
   179 C63      -1.8063   -4.1700   -4.9145   C.3       1 RES1   0.0000
   180 C64      -1.8526   -2.5161   -0.6887   C.2       1 RES1   0.0000
   181 O7       -1.0498   -1.7472   -1.2472   O.2       1 RES1   0.0000
   182 C65      -1.7470   -2.7571    0.8295   C.3       1 RES1   0.0000
   183 O8       -0.8784   -1.8049    1.4413   O.3       1 RES1   0.0000
   184 C66       0.1797   -2.3698    2.2091   C.3       1 RES1   0.0000
   185 C67       1.4478   -2.4774    1.3343   C.2       1 RES1   0.0000
   186 O9        1.3674   -2.0476    0.1738   O.2       1 RES1   0.0000
   187 N6        2.5517   -2.9971    1.8526   N.am      1 RES1   0.0000
   188 C68       3.8044   -2.9373    1.1060   C.3       1 RES1   0.0000
   189 C69       4.6754   -1.7632    1.5662   C.3       1 RES1   0.0000
   190 C70       6.0044   -1.7102    0.8242   C.3       1 RES1   0.0000
   191 C71       2.6001   -3.5727    3.1843   C.3       1 RES1   0.0000
   192 C72       2.0252   -4.9945    3.2593   C.3       1 RES1   0.0000
   193 C73       1.6221   -5.3532    4.6899   C.3       1 RES1   0.0000
   194 C74       0.3072   -4.7103    5.1291   C.3       1 RES1   0.0000
   195 C75       0.0621   -4.8874    6.6316   C.3       1 RES1   0.0000
   196 C76       0.7060   -3.7895    7.4804   C.3       1 RES1   0.0000
   197 C77      -0.0052   -2.4382    7.3772   C.3       1 RES1   0.0000
   198 C78       0.4719   -1.4734    8.4559   C.3       1 RES1   0.0000
   199 H105     -5.8424    4.1939   -1.0308   H         1 RES1   0.0000
   200 H106     -4.9040    2.7125   -1.0320   H         1 RES1   0.0000
   201 H107     -5.9909    3.0813    0.3194   H         1 RES1   0.0000
   202 H108     -6.8246    2.3576   -2.5212   H         1 RES1   0.0000
   203 H109     -7.9147    3.0610   -1.3374   H         1 RES1   0.0000
   204 H110     -8.3170    0.7423   -1.2928   H         1 RES1   0.0000
   205 H111     -7.4763    1.1292    0.2010   H         1 RES1   0.0000
   206 H112     -5.5050    0.0086   -0.4927   H         1 RES1   0.0000
   207 H113     -5.9197    0.1728   -2.2128   H         1 RES1   0.0000
   208 H114     -7.7159   -1.4641   -1.9498   H         1 RES1   0.0000
   209 H115     -7.3604   -1.6388   -0.2412   H         1 RES1   0.0000
   210 H116     -5.2575   -2.1428   -2.3741   H         1 RES1   0.0000
   211 H117     -6.4088   -3.3887   -1.9151   H         1 RES1   0.0000
   212 H118     -5.6363   -3.3686    0.3925   H         1 RES1   0.0000
   213 H119     -4.5429   -2.0161    0.0606   H         1 RES1   0.0000
   214 H120     -4.2624   -4.6180   -1.4806   H         1 RES1   0.0000
   215 H121     -3.5540   -4.4644    0.1201   H         1 RES1   0.0000
   216 H122     -2.4899   -2.1261   -3.1511   H         1 RES1   0.0000
   217 H123     -3.7093   -3.4190   -3.2115   H         1 RES1   0.0000
   218 H124     -1.8206   -5.0957   -2.9802   H         1 RES1   0.0000
   219 H125     -0.6845   -3.7470   -3.1113   H         1 RES1   0.0000
   220 H126     -2.7785   -4.5640   -5.1968   H         1 RES1   0.0000
   221 H127     -1.0501   -4.8295   -5.3289   H         1 RES1   0.0000
   222 H128     -1.6925   -3.1860   -5.3630   H         1 RES1   0.0000
   223 H129     -1.3797   -3.7861    0.9482   H         1 RES1   0.0000
   224 H130     -2.7223   -2.6677    1.3214   H         1 RES1   0.0000
   225 H131     -0.1185   -3.3270    2.6516   H         1 RES1   0.0000
   226 H132      0.3818   -1.6509    3.0104   H         1 RES1   0.0000
   227 H133      3.5683   -2.8135    0.0522   H         1 RES1   0.0000
   228 H134      4.3404   -3.8777    1.2441   H         1 RES1   0.0000
   229 H135      4.8727   -1.8490    2.6369   H         1 RES1   0.0000
   230 H136      4.1250   -0.8353    1.3878   H         1 RES1   0.0000
   231 H137      6.5288   -2.6560    0.9254   H         1 RES1   0.0000
   232 H138      6.6335   -0.9236    1.2344   H         1 RES1   0.0000
   233 H139      5.8467   -1.5074   -0.2306   H         1 RES1   0.0000
   234 H140      2.0508   -2.9211    3.8636   H         1 RES1   0.0000
   235 H141      3.6457   -3.5917    3.4951   H         1 RES1   0.0000
   236 H142      2.7653   -5.7094    2.9058   H         1 RES1   0.0000
   237 H143      1.1561   -5.0909    2.6060   H         1 RES1   0.0000
   238 H144      2.4191   -5.0600    5.3712   H         1 RES1   0.0000
   239 H145      1.5154   -6.4345    4.7666   H         1 RES1   0.0000
   240 H146     -0.5138   -5.1664    4.5709   H         1 RES1   0.0000
   241 H147      0.3061   -3.6417    4.9040   H         1 RES1   0.0000
   242 H148      0.4683   -5.8506    6.9409   H         1 RES1   0.0000
   243 H149     -1.0113   -4.9037    6.8303   H         1 RES1   0.0000
   244 H150      1.7563   -3.6754    7.2010   H         1 RES1   0.0000
   245 H151      0.6837   -4.1040    8.5242   H         1 RES1   0.0000
   246 H152     -1.0805   -2.5922    7.4915   H         1 RES1   0.0000
   247 H153      0.1572   -1.9940    6.3880   H         1 RES1   0.0000
   248 H154      0.2191   -1.8610    9.4374   H         1 RES1   0.0000
   249 H155      0.0022   -0.5002    8.3420   H         1 RES1   0.0000
   250 H156      1.5501   -1.3422    8.4175   H         1 RES1   0.0000
@<TRIPOS>BOND
     1     1    15    1
     2     1    17    1
     3     1    20    1
     4     1    98    1
     5     1   100    1
     6     1   103    1
     7     1   181    1
     8     1   183    1
     9     1   186    1
    10     2     3    1
    11     2    33    1
    12     2    34    1
    13     2    35    1
    14     3     4    1
    15     3    36    1
    16     3    37    1
    17     4     5    1
    18     4    38    1
    19     4    39    1
    20     5     6    1
    21     5    40    1
    22     5    41    1
    23     6     7    1
    24     6    42    1
    25     6    43    1
    26     7     8    1
    27     7    44    1
    28     7    45    1
    29     8     9    1
    30     8    46    1
    31     8    47    1
    32     9    10    1
    33     9    48    1
    34     9    49    1
    35    10    11    1
    36    10    14    1
    37    11    12    1
    38    11    50    1
    39    11    51    1
    40    12    13    1
    41    12    52    1
    42    12    53    1
    43    13    54    1
    44    13    55    1
    45    13    56    1
    46    14    15    2
    47    14    16    1
    48    16    17    1
    49    16    57    1
    50    16    58    1
    51    17    18    1
    52    18    19    1
    53    18    59    1
    54    18    60    1
    55    19    20    2
    56    19    21    1
    57    21    22    1
    58    21    25    1
    59    22    23    1
    60    22    61    1
    61    22    62    1
    62    23    24    1
    63    23    63    1
    64    23    64    1
    65    24    65    1
    66    24    66    1
    67    24    67    1
    68    25    26    1
    69    25    68    1
    70    25    69    1
    71    26    27    1
    72    26    70    1
    73    26    71    1
    74    27    28    1
    75    27    72    1
    76    27    73    1
    77    28    29    1
    78    28    74    1
    79    28    75    1
    80    29    30    1
    81    29    76    1
    82    29    77    1
    83    30    31    1
    84    30    78    1
    85    30    79    1
    86    31    32    1
    87    31    80    1
    88    31    81    1
    89    32    82    1
    90    32    83    1
    91    32    84    1
    92    85    86    1
    93    85   116    1
    94    85   117    1
    95    85   118    1
    96    86    87    1
    97    86   119    1
    98    86   120    1
    99    87    88    1
   100    87   121    1
   101    87   122    1
   102    88    89    1
   103    88   123    1
   104    88   124    1
   105    89    90    1
   106    89   125    1
   107    89   126    1
   108    90    91    1
   109    90   127    1
   110    90   128    1
   111    91    92    1
   112    91   129    1
   113    91   130    1
   114    92    93    1
   115    92   131    1
   116    92   132    1
   117    93    94    1
   118    93    97    1
   119    94    95    1
   120    94   133    1
   121    94   134    1
   122    95    96    1
   123    95   135    1
   124    95   136    1
   125    96   137    1
   126    96   138    1
   127    96   139    1
   128    97    98    2
   129    97    99    1
   130    99   100    1
   131    99   140    1
   132    99   141    1
   133   100   101    1
   134   101   102    1
   135   101   142    1
   136   101   143    1
   137   102   103    2
   138   102   104    1
   139   104   105    1
   140   104   108    1
   141   105   106    1
   142   105   144    1
   143   105   145    1
   144   106   107    1
   145   106   146    1
   146   106   147    1
   147   107   148    1
   148   107   149    1
   149   107   150    1
   150   108   109    1
   151   108   151    1
   152   108   152    1
   153   109   110    1
   154   109   153    1
   155   109   154    1
   156   110   111    1
   157   110   155    1
   158   110   156    1
   159   111   112    1
   160   111   157    1
   161   111   158    1
   162   112   113    1
   163   112   159    1
   164   112   160    1
   165   113   114    1
   166   113   161    1
   167   113   162    1
   168   114   115    1
   169   114   163    1
   170   114   164    1
   171   115   165    1
   172   115   166    1
   173   115   167    1
   174   168   169    1
   175   168   199    1
   176   168   200    1
   177   168   201    1
   178   169   170    1
   179   169   202    1
   180   169   203    1
   181   170   171    1
   182   170   204    1
   183   170   205    1
   184   171   172    1
   185   171   206    1
   186   171   207    1
   187   172   173    1
   188   172   208    1
   189   172   209    1
   190   173   174    1
   191   173   210    1
   192   173   211    1
   193   174   175    1
   194   174   212    1
   195   174   213    1
   196   175   176    1
   197   175   214    1
   198   175   215    1
   199   176   177    1
   200   176   180    1
   201   177   178    1
   202   177   216    1
   203   177   217    1
   204   178   179    1
   205   178   218    1
   206   178   219    1
   207   179   220    1
   208   179   221    1
   209   179   222    1
   210   180   181    2
   211   180   182    1
   212   182   183    1
   213   182   223    1
   214   182   224    1
   215   183   184    1
   216   184   185    1
   217   184   225    1
   218   184   226    1
   219   185   186    2
   220   185   187    1
   221   187   188    1
   222   187   191    1
   223   188   189    1
   224   188   227    1
   225   188   228    1
   226   189   190    1
   227   189   229    1
   228   189   230    1
   229   190   231    1
   230   190   232    1
   231   190   233    1
   232   191   192    1
   233   191   234    1
   234   191   235    1
   235   192   193    1
   236   192   236    1
   237   192   237    1
   238   193   194    1
   239   193   238    1
   240   193   239    1
   241   194   195    1
   242   194   240    1
   243   194   241    1
   244   195   196    1
   245   195   242    1
   246   195   243    1
   247   196   197    1
   248   196   244    1
   249   196   245    1
   250   197   198    1
   251   197   246    1
   252   197   247    1
   253   198   248    1
   254   198   249    1
   255   198   250    1
@<TRIPOS>SUBSTRUCTURE
     1 RES1      250 GROUP             0 ****  ****    0  
