@<TRIPOS>MOLECULE
cn9_YICLED_0_nunpairedes_0_charge_3 Charge: 3 Unpaired_Electrons: 3 XTB_Unpaired_Electrons: 0 XTB_Charge: 3
   415   420     1     0     0
SMALL
NoCharges
****
Generated from Architector

@<TRIPOS>ATOM
     1 Nd1       0.5936    0.1368    0.4946   Nd        1 RES1   0.0000
     2 C1       -0.3949   -9.2250    0.0144   C.3       1 RES1   0.0000
     3 C2       -0.2185   -7.7145   -0.1153   C.3       1 RES1   0.0000
     4 C3        0.6727   -7.2112    1.0255   C.3       1 RES1   0.0000
     5 C4        1.0039   -5.7017    1.0700   C.3       1 RES1   0.0000
     6 C5       -0.1319   -4.8005    0.5618   C.3       1 RES1   0.0000
     7 C6       -1.3760   -5.0856    1.4279   C.3       1 RES1   0.0000
     8 C7       -2.7138   -4.8735    0.7370   C.3       1 RES1   0.0000
     9 C8        0.0577   -3.2482    0.5394   C.3       1 RES1   0.0000
    10 N1        1.3439   -2.5328    0.2956   N.4       1 RES1   0.0000
    11 C9        2.3758   -2.9336    1.2563   C.3       1 RES1   0.0000
    12 C10       2.8428   -1.8102    2.1575   C.2       1 RES1   0.0000
    13 O1        2.2220   -0.7144    2.1650   O.2       1 RES1   0.0000
    14 N2        3.8825   -2.0695    2.9451   N.am      1 RES1   0.0000
    15 C11       4.4980   -3.4085    2.9697   C.3       1 RES1   0.0000
    16 C12       5.8928   -3.6241    3.6035   C.3       1 RES1   0.0000
    17 C13       5.9393   -5.0801    4.1257   C.3       1 RES1   0.0000
    18 C14       7.1542   -5.3848    4.9949   C.3       1 RES1   0.0000
    19 C15       7.0554   -3.3837    2.6195   C.3       1 RES1   0.0000
    20 C16       7.5603   -1.9416    2.5227   C.3       1 RES1   0.0000
    21 C17       6.7850   -1.0572    1.5478   C.3       1 RES1   0.0000
    22 C18       7.1344    0.4132    1.7435   C.3       1 RES1   0.0000
    23 C19       4.2789   -1.0280    3.8771   C.3       1 RES1   0.0000
    24 C20       3.4724   -0.9911    5.1867   C.3       1 RES1   0.0000
    25 C21       3.8039    0.3601    5.8326   C.3       1 RES1   0.0000
    26 C22       3.0521    0.6584    7.1191   C.3       1 RES1   0.0000
    27 C23       3.7928   -2.1803    6.1067   C.3       1 RES1   0.0000
    28 C24       2.6388   -2.6673    6.9917   C.3       1 RES1   0.0000
    29 C25       1.5481   -3.4136    6.2229   C.3       1 RES1   0.0000
    30 C26       0.5409   -4.0173    7.1938   C.3       1 RES1   0.0000
    31 C27       1.8400   -2.5811   -1.0887   C.3       1 RES1   0.0000
    32 C28       2.4149   -1.2606   -1.5812   C.2       1 RES1   0.0000
    33 O2        2.3079   -0.2377   -0.8496   O.2       1 RES1   0.0000
    34 N3        2.9688   -1.1835   -2.7881   N.am      1 RES1   0.0000
    35 C29       3.3151    0.1533   -3.2680   C.3       1 RES1   0.0000
    36 C30       4.8031    0.5461   -3.2857   C.3       1 RES1   0.0000
    37 C31       4.8902    1.9601   -3.8839   C.3       1 RES1   0.0000
    38 C32       4.9754    1.9333   -5.4058   C.3       1 RES1   0.0000
    39 C33       5.4937    0.4148   -1.9282   C.3       1 RES1   0.0000
    40 C34       7.0208    0.5212   -2.0539   C.3       1 RES1   0.0000
    41 C35       7.6634   -0.6601   -2.7830   C.3       1 RES1   0.0000
    42 C36       9.1842   -0.5692   -2.7659   C.3       1 RES1   0.0000
    43 C37       2.8558   -2.2416   -3.8018   C.3       1 RES1   0.0000
    44 C38       3.9849   -2.2763   -4.8498   C.3       1 RES1   0.0000
    45 C39       5.1762   -3.0720   -4.3019   C.3       1 RES1   0.0000
    46 C40       6.3476   -3.1570   -5.2724   C.3       1 RES1   0.0000
    47 C41       3.5051   -2.7276   -6.2449   C.3       1 RES1   0.0000
    48 C42       3.0920   -4.1898   -6.4018   C.3       1 RES1   0.0000
    49 C43       3.1566   -4.6897   -7.8502   C.3       1 RES1   0.0000
    50 C44       1.9469   -4.2883   -8.6870   C.3       1 RES1   0.0000
    51 H1       -0.9743   -9.6234   -0.8137   H         1 RES1   0.0000
    52 H2       -0.9056   -9.4798    0.9411   H         1 RES1   0.0000
    53 H3        0.5751   -9.7155    0.0267   H         1 RES1   0.0000
    54 H4       -1.2047   -7.2499   -0.0966   H         1 RES1   0.0000
    55 H5        0.2360   -7.4911   -1.0787   H         1 RES1   0.0000
    56 H6        1.6215   -7.7497    0.9627   H         1 RES1   0.0000
    57 H7        0.2095   -7.5180    1.9663   H         1 RES1   0.0000
    58 H8        1.8982   -5.5312    0.4738   H         1 RES1   0.0000
    59 H9        1.2387   -5.4672    2.1141   H         1 RES1   0.0000
    60 H10      -0.3408   -5.1056   -0.4664   H         1 RES1   0.0000
    61 H11      -1.3343   -4.4686    2.3248   H         1 RES1   0.0000
    62 H12      -1.3464   -6.1166    1.7620   H         1 RES1   0.0000
    63 H13      -2.8809   -3.8225    0.5124   H         1 RES1   0.0000
    64 H14      -3.5139   -5.2280    1.3838   H         1 RES1   0.0000
    65 H15      -2.7661   -5.4580   -0.1813   H         1 RES1   0.0000
    66 H16      -0.2772   -2.8699    1.5155   H         1 RES1   0.0000
    67 H17      -0.6320   -2.8851   -0.2307   H         1 RES1   0.0000
    68 H18       3.2328   -3.3639    0.7316   H         1 RES1   0.0000
    69 H19       1.9873   -3.6973    1.9320   H         1 RES1   0.0000
    70 H20       4.5939   -3.7686    1.9442   H         1 RES1   0.0000
    71 H21       3.7822   -4.0681    3.4754   H         1 RES1   0.0000
    72 H22       6.0315   -2.9790    4.4726   H         1 RES1   0.0000
    73 H23       5.9201   -5.7738    3.2831   H         1 RES1   0.0000
    74 H24       5.0472   -5.2673    4.7293   H         1 RES1   0.0000
    75 H25       8.0856   -5.3100    4.4426   H         1 RES1   0.0000
    76 H26       7.0805   -6.4000    5.3696   H         1 RES1   0.0000
    77 H27       7.2023   -4.7098    5.8444   H         1 RES1   0.0000
    78 H28       6.7965   -3.7564    1.6247   H         1 RES1   0.0000
    79 H29       7.8942   -3.9872    2.9638   H         1 RES1   0.0000
    80 H30       8.6016   -1.9658    2.2017   H         1 RES1   0.0000
    81 H31       7.5576   -1.4964    3.5191   H         1 RES1   0.0000
    82 H32       5.7104   -1.1942    1.6726   H         1 RES1   0.0000
    83 H33       7.0325   -1.3570    0.5279   H         1 RES1   0.0000
    84 H34       6.9912    0.7088    2.7814   H         1 RES1   0.0000
    85 H35       6.5074    1.0441    1.1171   H         1 RES1   0.0000
    86 H36       8.1737    0.5941    1.4857   H         1 RES1   0.0000
    87 H37       4.1229   -0.0778    3.3606   H         1 RES1   0.0000
    88 H38       5.3374   -1.1271    4.0954   H         1 RES1   0.0000
    89 H39       2.4117   -1.0058    4.9182   H         1 RES1   0.0000
    90 H40       3.5836    1.1438    5.1052   H         1 RES1   0.0000
    91 H41       4.8753    0.3988    6.0319   H         1 RES1   0.0000
    92 H42       1.9811    0.5315    6.9812   H         1 RES1   0.0000
    93 H43       3.2496    1.6789    7.4344   H         1 RES1   0.0000
    94 H44       3.3759    0.0029    7.9183   H         1 RES1   0.0000
    95 H45       4.6381   -1.9169    6.7447   H         1 RES1   0.0000
    96 H46       4.0958   -3.0364    5.5091   H         1 RES1   0.0000
    97 H47       2.1863   -1.8470    7.5472   H         1 RES1   0.0000
    98 H48       3.0578   -3.3565    7.7281   H         1 RES1   0.0000
    99 H49       2.0070   -4.2145    5.6350   H         1 RES1   0.0000
   100 H50       1.0416   -2.7375    5.5269   H         1 RES1   0.0000
   101 H51       1.0446   -4.6940    7.8790   H         1 RES1   0.0000
   102 H52      -0.2269   -4.5779    6.6686   H         1 RES1   0.0000
   103 H53       0.0606   -3.2380    7.7811   H         1 RES1   0.0000
   104 H54       0.9895   -2.7848   -1.7612   H         1 RES1   0.0000
   105 H55       2.5741   -3.3819   -1.2207   H         1 RES1   0.0000
   106 H56       2.7704    0.8538   -2.6285   H         1 RES1   0.0000
   107 H57       2.9258    0.2400   -4.2814   H         1 RES1   0.0000
   108 H58       5.3376   -0.1222   -3.9553   H         1 RES1   0.0000
   109 H59       5.7684    2.4697   -3.4948   H         1 RES1   0.0000
   110 H60       4.0206    2.5447   -3.5764   H         1 RES1   0.0000
   111 H61       5.8655    1.4006   -5.7322   H         1 RES1   0.0000
   112 H62       5.0390    2.9463   -5.7912   H         1 RES1   0.0000
   113 H63       4.1002    1.4620   -5.8478   H         1 RES1   0.0000
   114 H64       5.2385   -0.5538   -1.4872   H         1 RES1   0.0000
   115 H65       5.1338    1.1855   -1.2425   H         1 RES1   0.0000
   116 H66       7.4485    0.5832   -1.0531   H         1 RES1   0.0000
   117 H67       7.2943    1.4378   -2.5772   H         1 RES1   0.0000
   118 H68       7.3349   -0.6879   -3.8232   H         1 RES1   0.0000
   119 H69       7.3501   -1.5927   -2.3046   H         1 RES1   0.0000
   120 H70       9.5151    0.3484   -3.2482   H         1 RES1   0.0000
   121 H71       9.6154   -1.4118   -3.2999   H         1 RES1   0.0000
   122 H72       9.5586   -0.5804   -1.7451   H         1 RES1   0.0000
   123 H73       1.8950   -2.0934   -4.3038   H         1 RES1   0.0000
   124 H74       2.8296   -3.2065   -3.2946   H         1 RES1   0.0000
   125 H75       4.3299   -1.2594   -5.0275   H         1 RES1   0.0000
   126 H76       4.8594   -4.0806   -4.0299   H         1 RES1   0.0000
   127 H77       5.5073   -2.5763   -3.3858   H         1 RES1   0.0000
   128 H78       6.1193   -3.8030   -6.1141   H         1 RES1   0.0000
   129 H79       7.2145   -3.5732   -4.7689   H         1 RES1   0.0000
   130 H80       6.6054   -2.1758   -5.6633   H         1 RES1   0.0000
   131 H81       4.3211   -2.5337   -6.9417   H         1 RES1   0.0000
   132 H82       2.6767   -2.0833   -6.5494   H         1 RES1   0.0000
   133 H83       2.0755   -4.3256   -6.0422   H         1 RES1   0.0000
   134 H84       3.7486   -4.8149   -5.7973   H         1 RES1   0.0000
   135 H85       3.2226   -5.7794   -7.8345   H         1 RES1   0.0000
   136 H86       4.0640   -4.3149   -8.3277   H         1 RES1   0.0000
   137 H87       1.0248   -4.6298   -8.2180   H         1 RES1   0.0000
   138 H88       2.0164   -4.7462   -9.6702   H         1 RES1   0.0000
   139 H89       1.8954   -3.2098   -8.8178   H         1 RES1   0.0000
   140 C45      -7.7247   -4.1230   -2.5265   C.3       1 RES1   0.0000
   141 C46      -7.0358   -3.3019   -3.6068   C.3       1 RES1   0.0000
   142 C47      -5.8742   -2.4794   -3.0501   C.3       1 RES1   0.0000
   143 C48      -5.1899   -1.6758   -4.1582   C.3       1 RES1   0.0000
   144 C49      -4.2206   -0.5587   -3.7370   C.3       1 RES1   0.0000
   145 C50      -3.9636    0.3805   -4.9370   C.3       1 RES1   0.0000
   146 C51      -5.2121    0.8721   -5.6632   C.3       1 RES1   0.0000
   147 C52      -2.8049   -0.9797   -3.2369   C.3       1 RES1   0.0000
   148 N4       -2.6351   -1.9788   -2.1903   N.4       1 RES1   0.0000
   149 C53      -2.5273   -3.3512   -2.6851   C.3       1 RES1   0.0000
   150 C54      -1.0976   -3.7082   -3.1699   C.2       1 RES1   0.0000
   151 O3       -0.2033   -2.8725   -3.0218   O.2       1 RES1   0.0000
   152 N5       -0.8404   -4.9329   -3.6990   N.am      1 RES1   0.0000
   153 C55      -1.9018   -5.8249   -4.1556   C.3       1 RES1   0.0000
   154 C56      -2.0502   -5.9286   -5.6998   C.3       1 RES1   0.0000
   155 C57      -3.4023   -6.5583   -6.1151   C.3       1 RES1   0.0000
   156 C58      -4.6272   -6.2627   -5.2491   C.3       1 RES1   0.0000
   157 C59      -1.7482   -4.6310   -6.4831   C.3       1 RES1   0.0000
   158 C60      -2.8183   -3.5471   -6.5388   C.3       1 RES1   0.0000
   159 C61      -2.4052   -2.3913   -7.4576   C.3       1 RES1   0.0000
   160 C62      -1.1269   -1.6691   -7.0319   C.3       1 RES1   0.0000
   161 C63       0.4966   -5.1902   -4.2808   C.3       1 RES1   0.0000
   162 C64       1.5109   -6.2469   -3.7641   C.3       1 RES1   0.0000
   163 C65       2.0334   -5.9372   -2.3554   C.3       1 RES1   0.0000
   164 C66       2.9507   -7.0044   -1.7606   C.3       1 RES1   0.0000
   165 C67       1.0827   -7.7078   -4.0096   C.3       1 RES1   0.0000
   166 C68       1.8386   -8.3614   -5.1750   C.3       1 RES1   0.0000
   167 C69       3.2943   -8.6805   -4.8386   C.3       1 RES1   0.0000
   168 C70       4.0518   -9.2754   -6.0192   C.3       1 RES1   0.0000
   169 C71      -3.4633   -1.7419   -1.0232   C.3       1 RES1   0.0000
   170 C72      -2.7404   -1.0912    0.1544   C.2       1 RES1   0.0000
   171 O4       -1.5028   -0.9080    0.1312   O.2       1 RES1   0.0000
   172 N6       -3.4893   -0.7632    1.2247   N.am      1 RES1   0.0000
   173 C73      -2.8244   -0.2450    2.4207   C.3       1 RES1   0.0000
   174 C74      -3.0868   -1.0804    3.7006   C.3       1 RES1   0.0000
   175 C75      -3.1885   -0.1245    4.8986   C.3       1 RES1   0.0000
   176 C76      -3.7549   -0.7288    6.1770   C.3       1 RES1   0.0000
   177 C77      -1.9855   -2.1453    3.7916   C.3       1 RES1   0.0000
   178 C78      -2.1836   -3.3317    4.7452   C.3       1 RES1   0.0000
   179 C79      -3.3326   -4.2912    4.3861   C.3       1 RES1   0.0000
   180 C80      -4.2826   -4.5510    5.5500   C.3       1 RES1   0.0000
   181 C81      -4.9131   -0.3906    1.1363   C.3       1 RES1   0.0000
   182 C82      -6.0740   -1.4078    1.0965   C.3       1 RES1   0.0000
   183 C83      -6.0240   -2.4117    2.2476   C.3       1 RES1   0.0000
   184 C84      -7.1599   -3.4262    2.2232   C.3       1 RES1   0.0000
   185 C85      -7.3648   -0.5570    1.1432   C.3       1 RES1   0.0000
   186 C86      -8.3308   -0.8023   -0.0140   C.3       1 RES1   0.0000
   187 C87      -9.5803    0.0733    0.1190   C.3       1 RES1   0.0000
   188 C88      -9.3122    1.5548   -0.1368   C.3       1 RES1   0.0000
   189 H90      -8.5603   -4.6733   -2.9479   H         1 RES1   0.0000
   190 H91      -8.1047   -3.4757   -1.7420   H         1 RES1   0.0000
   191 H92      -7.0381   -4.8413   -2.0810   H         1 RES1   0.0000
   192 H93      -7.7582   -2.6318   -4.0718   H         1 RES1   0.0000
   193 H94      -6.6751   -3.9745   -4.3837   H         1 RES1   0.0000
   194 H95      -5.1820   -3.1599   -2.5558   H         1 RES1   0.0000
   195 H96      -6.2692   -1.7913   -2.2984   H         1 RES1   0.0000
   196 H97      -6.0081   -1.2048   -4.7043   H         1 RES1   0.0000
   197 H98      -4.6876   -2.3427   -4.8605   H         1 RES1   0.0000
   198 H99      -4.7159    0.0450   -2.9643   H         1 RES1   0.0000
   199 H100     -3.3228   -0.1317   -5.6557   H         1 RES1   0.0000
   200 H101     -3.4071    1.2449   -4.5650   H         1 RES1   0.0000
   201 H102     -5.6339    0.0970   -6.2987   H         1 RES1   0.0000
   202 H103     -4.9576    1.7087   -6.3077   H         1 RES1   0.0000
   203 H104     -5.9710    1.2090   -4.9619   H         1 RES1   0.0000
   204 H105     -2.2987   -0.0721   -2.8850   H         1 RES1   0.0000
   205 H106     -2.2310   -1.3371   -4.0924   H         1 RES1   0.0000
   206 H107     -3.2238   -3.5131   -3.5141   H         1 RES1   0.0000
   207 H108     -2.7854   -4.0430   -1.8830   H         1 RES1   0.0000
   208 H109     -2.8411   -5.5050   -3.7179   H         1 RES1   0.0000
   209 H110     -1.6904   -6.8274   -3.7683   H         1 RES1   0.0000
   210 H111     -1.2878   -6.6398   -6.0400   H         1 RES1   0.0000
   211 H112     -3.2900   -7.6434   -6.1679   H         1 RES1   0.0000
   212 H113     -3.6147   -6.2271   -7.1329   H         1 RES1   0.0000
   213 H114     -4.6098   -6.8299   -4.3210   H         1 RES1   0.0000
   214 H115     -5.5166   -6.5678   -5.7965   H         1 RES1   0.0000
   215 H116     -4.7251   -5.2046   -5.0121   H         1 RES1   0.0000
   216 H117     -1.5271   -4.9292   -7.5115   H         1 RES1   0.0000
   217 H118     -0.8515   -4.1634   -6.0824   H         1 RES1   0.0000
   218 H119     -2.9761   -3.1504   -5.5368   H         1 RES1   0.0000
   219 H120     -3.7624   -3.9504   -6.9095   H         1 RES1   0.0000
   220 H121     -3.2266   -1.6717   -7.4865   H         1 RES1   0.0000
   221 H122     -2.2673   -2.7656   -8.4728   H         1 RES1   0.0000
   222 H123     -1.1595   -1.3938   -5.9774   H         1 RES1   0.0000
   223 H124     -1.0023   -0.7611   -7.6194   H         1 RES1   0.0000
   224 H125     -0.2500   -2.2933   -7.1907   H         1 RES1   0.0000
   225 H126      0.9921   -4.2177   -4.2553   H         1 RES1   0.0000
   226 H127      0.3384   -5.4904   -5.3168   H         1 RES1   0.0000
   227 H128      2.3619   -6.0800   -4.4313   H         1 RES1   0.0000
   228 H129      1.1961   -5.7444   -1.6856   H         1 RES1   0.0000
   229 H130      2.6091   -5.0100   -2.4319   H         1 RES1   0.0000
   230 H131      3.3840   -6.6734   -0.8206   H         1 RES1   0.0000
   231 H132      3.7702   -7.2376   -2.4331   H         1 RES1   0.0000
   232 H133      2.4135   -7.9267   -1.5669   H         1 RES1   0.0000
   233 H134      0.0178   -7.7583   -4.2136   H         1 RES1   0.0000
   234 H135      1.2671   -8.3138   -3.1270   H         1 RES1   0.0000
   235 H136      1.7949   -7.7191   -6.0583   H         1 RES1   0.0000
   236 H137      1.3314   -9.2941   -5.4243   H         1 RES1   0.0000
   237 H138      3.3174   -9.3901   -4.0076   H         1 RES1   0.0000
   238 H139      3.8107   -7.7705   -4.5257   H         1 RES1   0.0000
   239 H140      3.5663  -10.1823   -6.3687   H         1 RES1   0.0000
   240 H141      5.0698   -9.5244   -5.7261   H         1 RES1   0.0000
   241 H142      4.1066   -8.5685   -6.8470   H         1 RES1   0.0000
   242 H143     -3.9077   -2.6716   -0.6568   H         1 RES1   0.0000
   243 H144     -4.3066   -1.0943   -1.2704   H         1 RES1   0.0000
   244 H145     -3.1648    0.7833    2.5690   H         1 RES1   0.0000
   245 H146     -1.7352   -0.2042    2.2326   H         1 RES1   0.0000
   246 H147     -4.0438   -1.5891    3.6028   H         1 RES1   0.0000
   247 H148     -3.8495    0.6974    4.6130   H         1 RES1   0.0000
   248 H149     -2.2055    0.2943    5.1046   H         1 RES1   0.0000
   249 H150     -4.6784   -1.2614    5.9747   H         1 RES1   0.0000
   250 H151     -3.9782    0.0559    6.8944   H         1 RES1   0.0000
   251 H152     -3.0506   -1.4058    6.6440   H         1 RES1   0.0000
   252 H153     -1.0415   -1.6503    4.0541   H         1 RES1   0.0000
   253 H154     -1.8779   -2.5482    2.7805   H         1 RES1   0.0000
   254 H155     -2.3279   -2.9723    5.7594   H         1 RES1   0.0000
   255 H156     -1.2474   -3.8944    4.7467   H         1 RES1   0.0000
   256 H157     -2.9225   -5.2502    4.0662   H         1 RES1   0.0000
   257 H158     -3.9059   -3.8923    3.5511   H         1 RES1   0.0000
   258 H159     -3.7523   -4.9956    6.3882   H         1 RES1   0.0000
   259 H160     -5.0705   -5.2386    5.2497   H         1 RES1   0.0000
   260 H161     -4.7482   -3.6290    5.8870   H         1 RES1   0.0000
   261 H162     -5.0299    0.2501    0.2547   H         1 RES1   0.0000
   262 H163     -5.0971    0.2227    2.0190   H         1 RES1   0.0000
   263 H164     -6.0563   -1.9694    0.1603   H         1 RES1   0.0000
   264 H165     -6.0588   -1.8774    3.1984   H         1 RES1   0.0000
   265 H166     -5.0778   -2.9517    2.1847   H         1 RES1   0.0000
   266 H167     -8.1256   -2.9374    2.2987   H         1 RES1   0.0000
   267 H168     -7.0687   -4.1087    3.0651   H         1 RES1   0.0000
   268 H169     -7.1369   -4.0058    1.3048   H         1 RES1   0.0000
   269 H170     -7.1046    0.5016    1.1489   H         1 RES1   0.0000
   270 H171     -7.8979   -0.7472    2.0751   H         1 RES1   0.0000
   271 H172     -8.6317   -1.8508   -0.0094   H         1 RES1   0.0000
   272 H173     -7.8459   -0.5942   -0.9719   H         1 RES1   0.0000
   273 H174     -9.9867   -0.0505    1.1258   H         1 RES1   0.0000
   274 H175    -10.3384   -0.2750   -0.5852   H         1 RES1   0.0000
   275 H176     -8.5701    1.9493    0.5553   H         1 RES1   0.0000
   276 H177    -10.2269    2.1248    0.0041   H         1 RES1   0.0000
   277 H178     -8.9598    1.7164   -1.1550   H         1 RES1   0.0000
   278 C89       1.4828    9.0584    0.6305   C.3       1 RES1   0.0000
   279 C90       1.8727    8.0640   -0.4530   C.3       1 RES1   0.0000
   280 C91       2.4049    6.7551    0.1237   C.3       1 RES1   0.0000
   281 C92       2.8470    5.7909   -0.9789   C.3       1 RES1   0.0000
   282 C93       3.5328    4.5124   -0.4499   C.3       1 RES1   0.0000
   283 C94       4.9405    4.4080   -1.0727   C.3       1 RES1   0.0000
   284 C95       5.8927    5.4306   -0.4585   C.3       1 RES1   0.0000
   285 C96       2.7464    3.1882   -0.6710   C.3       1 RES1   0.0000
   286 N7        1.6389    2.8228    0.2559   N.4       1 RES1   0.0000
   287 C97       0.4500    3.6618    0.0088   C.3       1 RES1   0.0000
   288 C98      -0.5438    2.9620   -0.9230   C.2       1 RES1   0.0000
   289 O5       -0.6790    1.7226   -0.7537   O.2       1 RES1   0.0000
   290 N8       -1.3228    3.6730   -1.7370   N.am      1 RES1   0.0000
   291 C99      -0.9524    4.9685   -2.3130   C.3       1 RES1   0.0000
   292 C100     -1.2201    5.0703   -3.8269   C.3       1 RES1   0.0000
   293 C101     -1.0544    6.5129   -4.3683   C.3       1 RES1   0.0000
   294 C102     -0.1598    7.4763   -3.5964   C.3       1 RES1   0.0000
   295 C103     -0.4258    4.0461   -4.6500   C.3       1 RES1   0.0000
   296 C104      1.0948    4.2343   -4.7043   C.3       1 RES1   0.0000
   297 C105      1.6396    3.9728   -6.1094   C.3       1 RES1   0.0000
   298 C106      1.3177    2.5820   -6.6425   C.3       1 RES1   0.0000
   299 C107     -2.6140    3.1008   -2.1135   C.3       1 RES1   0.0000
   300 C108     -3.8700    3.8101   -1.5505   C.3       1 RES1   0.0000
   301 C109     -3.8026    4.0630   -0.0282   C.3       1 RES1   0.0000
   302 C110     -3.1450    5.3619    0.4317   C.3       1 RES1   0.0000
   303 C111     -4.3354    5.0709   -2.2957   C.3       1 RES1   0.0000
   304 C112     -4.8892    4.8636   -3.7104   C.3       1 RES1   0.0000
   305 C113     -6.2717    4.2145   -3.7614   C.3       1 RES1   0.0000
   306 C114     -6.8734    4.3201   -5.1593   C.3       1 RES1   0.0000
   307 C115      2.0944    2.9508    1.6505   C.3       1 RES1   0.0000
   308 C116      1.0610    2.4167    2.6353   C.2       1 RES1   0.0000
   309 O6        0.2178    1.5695    2.2441   O.2       1 RES1   0.0000
   310 N9        1.0817    2.8761    3.8801   N.am      1 RES1   0.0000
   311 C117      0.1462    2.3021    4.8472   C.3       1 RES1   0.0000
   312 C118     -1.0166    3.2212    5.2659   C.3       1 RES1   0.0000
   313 C119     -1.7105    2.5976    6.4925   C.3       1 RES1   0.0000
   314 C120     -1.3769    3.3325    7.7850   C.3       1 RES1   0.0000
   315 C121     -1.9299    3.4462    4.0526   C.3       1 RES1   0.0000
   316 C122     -3.1658    4.3277    4.2596   C.3       1 RES1   0.0000
   317 C123     -2.9221    5.8434    4.2701   C.3       1 RES1   0.0000
   318 C124     -2.6474    6.4343    5.6486   C.3       1 RES1   0.0000
   319 C125      2.1925    3.6710    4.4071   C.3       1 RES1   0.0000
   320 C126      2.2585    5.1979    4.1696   C.3       1 RES1   0.0000
   321 C127      1.1107    5.9580    4.8411   C.3       1 RES1   0.0000
   322 C128      1.1966    7.4701    4.6634   C.3       1 RES1   0.0000
   323 C129      3.6415    5.6474    4.6916   C.3       1 RES1   0.0000
   324 C130      4.4330    6.4393    3.6500   C.3       1 RES1   0.0000
   325 C131      5.7839    6.9100    4.1920   C.3       1 RES1   0.0000
   326 C132      6.7972    5.7770    4.3181   C.3       1 RES1   0.0000
   327 H179      1.0987    9.9691    0.1840   H         1 RES1   0.0000
   328 H180      2.3425    9.3208    1.2407   H         1 RES1   0.0000
   329 H181      0.7081    8.6508    1.2755   H         1 RES1   0.0000
   330 H182      2.6397    8.5138   -1.0832   H         1 RES1   0.0000
   331 H183      1.0057    7.8542   -1.0799   H         1 RES1   0.0000
   332 H184      1.6329    6.3033    0.7538   H         1 RES1   0.0000
   333 H185      3.2592    6.9743    0.7660   H         1 RES1   0.0000
   334 H186      3.5475    6.3319   -1.6165   H         1 RES1   0.0000
   335 H187      2.0086    5.5415   -1.6304   H         1 RES1   0.0000
   336 H188      3.7078    4.6418    0.6209   H         1 RES1   0.0000
   337 H189      4.8844    4.5648   -2.1504   H         1 RES1   0.0000
   338 H190      5.3594    3.4157   -0.9039   H         1 RES1   0.0000
   339 H191      5.4801    6.4337   -0.5067   H         1 RES1   0.0000
   340 H192      6.8412    5.4397   -0.9880   H         1 RES1   0.0000
   341 H193      6.0952    5.1891    0.5832   H         1 RES1   0.0000
   342 H194      3.4607    2.3617   -0.6035   H         1 RES1   0.0000
   343 H195      2.3310    3.1847   -1.6828   H         1 RES1   0.0000
   344 H196      0.7229    4.6630   -0.3164   H         1 RES1   0.0000
   345 H197     -0.1166    3.7539    0.9459   H         1 RES1   0.0000
   346 H198      0.1105    5.1277   -2.1500   H         1 RES1   0.0000
   347 H199     -1.5169    5.7561   -1.8110   H         1 RES1   0.0000
   348 H200     -2.2682    4.8273   -3.9970   H         1 RES1   0.0000
   349 H201     -2.0434    6.9669   -4.4382   H         1 RES1   0.0000
   350 H202     -0.6725    6.4417   -5.3856   H         1 RES1   0.0000
   351 H203     -0.5516    7.6892   -2.6044   H         1 RES1   0.0000
   352 H204     -0.1168    8.4197   -4.1354   H         1 RES1   0.0000
   353 H205      0.8583    7.1073   -3.5019   H         1 RES1   0.0000
   354 H206     -0.8147    4.1179   -5.6664   H         1 RES1   0.0000
   355 H207     -0.6569    3.0400   -4.2889   H         1 RES1   0.0000
   356 H208      1.5890    3.5703   -3.9865   H         1 RES1   0.0000
   357 H209      1.3559    5.2575   -4.4335   H         1 RES1   0.0000
   358 H210      2.7206    4.1128   -6.0982   H         1 RES1   0.0000
   359 H211      1.2241    4.7183   -6.7880   H         1 RES1   0.0000
   360 H212      1.7203    1.8108   -5.9882   H         1 RES1   0.0000
   361 H213      1.7527    2.4628   -7.6312   H         1 RES1   0.0000
   362 H214      0.2445    2.4289   -6.7260   H         1 RES1   0.0000
   363 H215     -2.6047    2.0830   -1.7180   H         1 RES1   0.0000
   364 H216     -2.7021    3.0399   -3.1972   H         1 RES1   0.0000
   365 H217     -4.6610    3.0647   -1.6977   H         1 RES1   0.0000
   366 H218     -3.2929    3.2222    0.4537   H         1 RES1   0.0000
   367 H219     -4.8303    4.0782    0.3407   H         1 RES1   0.0000
   368 H220     -2.0846    5.3903    0.2021   H         1 RES1   0.0000
   369 H221     -3.2534    5.4553    1.5085   H         1 RES1   0.0000
   370 H222     -3.6201    6.2276   -0.0169   H         1 RES1   0.0000
   371 H223     -3.5378    5.8098   -2.3470   H         1 RES1   0.0000
   372 H224     -5.1368    5.5072   -1.6950   H         1 RES1   0.0000
   373 H225     -4.2111    4.2702   -4.3286   H         1 RES1   0.0000
   374 H226     -4.9639    5.8516   -4.1709   H         1 RES1   0.0000
   375 H227     -6.9352    4.7080   -3.0485   H         1 RES1   0.0000
   376 H228     -6.1970    3.1621   -3.4777   H         1 RES1   0.0000
   377 H229     -7.0151    5.3617   -5.4366   H         1 RES1   0.0000
   378 H230     -7.8399    3.8247   -5.2014   H         1 RES1   0.0000
   379 H231     -6.2209    3.8592   -5.8977   H         1 RES1   0.0000
   380 H232      2.3176    3.9930    1.9013   H         1 RES1   0.0000
   381 H233      3.0182    2.3646    1.7577   H         1 RES1   0.0000
   382 H234      0.7103    2.0193    5.7382   H         1 RES1   0.0000
   383 H235     -0.2656    1.3960    4.3894   H         1 RES1   0.0000
   384 H236     -0.6050    4.1793    5.5771   H         1 RES1   0.0000
   385 H237     -1.4134    1.5526    6.5990   H         1 RES1   0.0000
   386 H238     -2.7893    2.6134    6.3543   H         1 RES1   0.0000
   387 H239     -0.3221    3.2367    8.0349   H         1 RES1   0.0000
   388 H240     -1.9543    2.9244    8.6089   H         1 RES1   0.0000
   389 H241     -1.6131    4.3876    7.6971   H         1 RES1   0.0000
   390 H242     -2.2631    2.4677    3.6981   H         1 RES1   0.0000
   391 H243     -1.3243    3.8854    3.2513   H         1 RES1   0.0000
   392 H244     -3.6789    4.0485    5.1793   H         1 RES1   0.0000
   393 H245     -3.8472    4.1067    3.4344   H         1 RES1   0.0000
   394 H246     -3.8211    6.3284    3.8829   H         1 RES1   0.0000
   395 H247     -2.0973    6.0972    3.5967   H         1 RES1   0.0000
   396 H248     -3.4421    6.1737    6.3440   H         1 RES1   0.0000
   397 H249     -2.6083    7.5197    5.5825   H         1 RES1   0.0000
   398 H250     -1.7035    6.0863    6.0585   H         1 RES1   0.0000
   399 H251      3.1189    3.2362    4.0207   H         1 RES1   0.0000
   400 H252      2.1875    3.5276    5.4883   H         1 RES1   0.0000
   401 H253      2.2036    5.4312    3.1010   H         1 RES1   0.0000
   402 H254      1.1048    5.7256    5.9078   H         1 RES1   0.0000
   403 H255      0.1693    5.6240    4.4012   H         1 RES1   0.0000
   404 H256      2.0918    7.8775    5.1204   H         1 RES1   0.0000
   405 H257      0.3450    7.9442    5.1421   H         1 RES1   0.0000
   406 H258      1.1933    7.7343    3.6090   H         1 RES1   0.0000
   407 H259      4.2284    4.7744    4.9841   H         1 RES1   0.0000
   408 H260      3.5270    6.2518    5.5919   H         1 RES1   0.0000
   409 H261      3.8458    7.3061    3.3396   H         1 RES1   0.0000
   410 H262      4.6060    5.8172    2.7643   H         1 RES1   0.0000
   411 H263      5.6304    7.3800    5.1652   H         1 RES1   0.0000
   412 H264      6.1878    7.6689    3.5194   H         1 RES1   0.0000
   413 H265      6.4438    5.0021    4.9956   H         1 RES1   0.0000
   414 H266      7.7363    6.1591    4.7088   H         1 RES1   0.0000
   415 H267      6.9911    5.3295    3.3439   H         1 RES1   0.0000
@<TRIPOS>BOND
     1     1    10    1
     2     1    13    1
     3     1    33    1
     4     1   148    1
     5     1   151    1
     6     1   171    1
     7     1   286    1
     8     1   289    1
     9     1   309    1
    10     2     3    1
    11     2    51    1
    12     2    52    1
    13     2    53    1
    14     3     4    1
    15     3    54    1
    16     3    55    1
    17     4     5    1
    18     4    56    1
    19     4    57    1
    20     5     6    1
    21     5    58    1
    22     5    59    1
    23     6     7    1
    24     6     9    1
    25     6    60    1
    26     7     8    1
    27     7    61    1
    28     7    62    1
    29     8    63    1
    30     8    64    1
    31     8    65    1
    32     9    10    1
    33     9    66    1
    34     9    67    1
    35    10    11    1
    36    10    31    1
    37    11    12    1
    38    11    68    1
    39    11    69    1
    40    12    13    2
    41    12    14    1
    42    14    15    1
    43    14    23    1
    44    15    16    1
    45    15    70    1
    46    15    71    1
    47    16    17    1
    48    16    19    1
    49    16    72    1
    50    17    18    1
    51    17    73    1
    52    17    74    1
    53    18    75    1
    54    18    76    1
    55    18    77    1
    56    19    20    1
    57    19    78    1
    58    19    79    1
    59    20    21    1
    60    20    80    1
    61    20    81    1
    62    21    22    1
    63    21    82    1
    64    21    83    1
    65    22    84    1
    66    22    85    1
    67    22    86    1
    68    23    24    1
    69    23    87    1
    70    23    88    1
    71    24    25    1
    72    24    27    1
    73    24    89    1
    74    25    26    1
    75    25    90    1
    76    25    91    1
    77    26    92    1
    78    26    93    1
    79    26    94    1
    80    27    28    1
    81    27    95    1
    82    27    96    1
    83    28    29    1
    84    28    97    1
    85    28    98    1
    86    29    30    1
    87    29    99    1
    88    29   100    1
    89    30   101    1
    90    30   102    1
    91    30   103    1
    92    31    32    1
    93    31   104    1
    94    31   105    1
    95    32    33    2
    96    32    34    1
    97    34    35    1
    98    34    43    1
    99    35    36    1
   100    35   106    1
   101    35   107    1
   102    36    37    1
   103    36    39    1
   104    36   108    1
   105    37    38    1
   106    37   109    1
   107    37   110    1
   108    38   111    1
   109    38   112    1
   110    38   113    1
   111    39    40    1
   112    39   114    1
   113    39   115    1
   114    40    41    1
   115    40   116    1
   116    40   117    1
   117    41    42    1
   118    41   118    1
   119    41   119    1
   120    42   120    1
   121    42   121    1
   122    42   122    1
   123    43    44    1
   124    43   123    1
   125    43   124    1
   126    44    45    1
   127    44    47    1
   128    44   125    1
   129    45    46    1
   130    45   126    1
   131    45   127    1
   132    46   128    1
   133    46   129    1
   134    46   130    1
   135    47    48    1
   136    47   131    1
   137    47   132    1
   138    48    49    1
   139    48   133    1
   140    48   134    1
   141    49    50    1
   142    49   135    1
   143    49   136    1
   144    50   137    1
   145    50   138    1
   146    50   139    1
   147   140   141    1
   148   140   189    1
   149   140   190    1
   150   140   191    1
   151   141   142    1
   152   141   192    1
   153   141   193    1
   154   142   143    1
   155   142   194    1
   156   142   195    1
   157   143   144    1
   158   143   196    1
   159   143   197    1
   160   144   145    1
   161   144   147    1
   162   144   198    1
   163   145   146    1
   164   145   199    1
   165   145   200    1
   166   146   201    1
   167   146   202    1
   168   146   203    1
   169   147   148    1
   170   147   204    1
   171   147   205    1
   172   148   149    1
   173   148   169    1
   174   149   150    1
   175   149   206    1
   176   149   207    1
   177   150   151    2
   178   150   152    1
   179   152   153    1
   180   152   161    1
   181   153   154    1
   182   153   208    1
   183   153   209    1
   184   154   155    1
   185   154   157    1
   186   154   210    1
   187   155   156    1
   188   155   211    1
   189   155   212    1
   190   156   213    1
   191   156   214    1
   192   156   215    1
   193   157   158    1
   194   157   216    1
   195   157   217    1
   196   158   159    1
   197   158   218    1
   198   158   219    1
   199   159   160    1
   200   159   220    1
   201   159   221    1
   202   160   222    1
   203   160   223    1
   204   160   224    1
   205   161   162    1
   206   161   225    1
   207   161   226    1
   208   162   163    1
   209   162   165    1
   210   162   227    1
   211   163   164    1
   212   163   228    1
   213   163   229    1
   214   164   230    1
   215   164   231    1
   216   164   232    1
   217   165   166    1
   218   165   233    1
   219   165   234    1
   220   166   167    1
   221   166   235    1
   222   166   236    1
   223   167   168    1
   224   167   237    1
   225   167   238    1
   226   168   239    1
   227   168   240    1
   228   168   241    1
   229   169   170    1
   230   169   242    1
   231   169   243    1
   232   170   171    2
   233   170   172    1
   234   172   173    1
   235   172   181    1
   236   173   174    1
   237   173   244    1
   238   173   245    1
   239   174   175    1
   240   174   177    1
   241   174   246    1
   242   175   176    1
   243   175   247    1
   244   175   248    1
   245   176   249    1
   246   176   250    1
   247   176   251    1
   248   177   178    1
   249   177   252    1
   250   177   253    1
   251   178   179    1
   252   178   254    1
   253   178   255    1
   254   179   180    1
   255   179   256    1
   256   179   257    1
   257   180   258    1
   258   180   259    1
   259   180   260    1
   260   181   182    1
   261   181   261    1
   262   181   262    1
   263   182   183    1
   264   182   185    1
   265   182   263    1
   266   183   184    1
   267   183   264    1
   268   183   265    1
   269   184   266    1
   270   184   267    1
   271   184   268    1
   272   185   186    1
   273   185   269    1
   274   185   270    1
   275   186   187    1
   276   186   271    1
   277   186   272    1
   278   187   188    1
   279   187   273    1
   280   187   274    1
   281   188   275    1
   282   188   276    1
   283   188   277    1
   284   278   279    1
   285   278   327    1
   286   278   328    1
   287   278   329    1
   288   279   280    1
   289   279   330    1
   290   279   331    1
   291   280   281    1
   292   280   332    1
   293   280   333    1
   294   281   282    1
   295   281   334    1
   296   281   335    1
   297   282   283    1
   298   282   285    1
   299   282   336    1
   300   283   284    1
   301   283   337    1
   302   283   338    1
   303   284   339    1
   304   284   340    1
   305   284   341    1
   306   285   286    1
   307   285   342    1
   308   285   343    1
   309   286   287    1
   310   286   307    1
   311   287   288    1
   312   287   344    1
   313   287   345    1
   314   288   289    2
   315   288   290    1
   316   290   291    1
   317   290   299    1
   318   291   292    1
   319   291   346    1
   320   291   347    1
   321   292   293    1
   322   292   295    1
   323   292   348    1
   324   293   294    1
   325   293   349    1
   326   293   350    1
   327   294   351    1
   328   294   352    1
   329   294   353    1
   330   295   296    1
   331   295   354    1
   332   295   355    1
   333   296   297    1
   334   296   356    1
   335   296   357    1
   336   297   298    1
   337   297   358    1
   338   297   359    1
   339   298   360    1
   340   298   361    1
   341   298   362    1
   342   299   300    1
   343   299   363    1
   344   299   364    1
   345   300   301    1
   346   300   303    1
   347   300   365    1
   348   301   302    1
   349   301   366    1
   350   301   367    1
   351   302   368    1
   352   302   369    1
   353   302   370    1
   354   303   304    1
   355   303   371    1
   356   303   372    1
   357   304   305    1
   358   304   373    1
   359   304   374    1
   360   305   306    1
   361   305   375    1
   362   305   376    1
   363   306   377    1
   364   306   378    1
   365   306   379    1
   366   307   308    1
   367   307   380    1
   368   307   381    1
   369   308   309    2
   370   308   310    1
   371   310   311    1
   372   310   319    1
   373   311   312    1
   374   311   382    1
   375   311   383    1
   376   312   313    1
   377   312   315    1
   378   312   384    1
   379   313   314    1
   380   313   385    1
   381   313   386    1
   382   314   387    1
   383   314   388    1
   384   314   389    1
   385   315   316    1
   386   315   390    1
   387   315   391    1
   388   316   317    1
   389   316   392    1
   390   316   393    1
   391   317   318    1
   392   317   394    1
   393   317   395    1
   394   318   396    1
   395   318   397    1
   396   318   398    1
   397   319   320    1
   398   319   399    1
   399   319   400    1
   400   320   321    1
   401   320   323    1
   402   320   401    1
   403   321   322    1
   404   321   402    1
   405   321   403    1
   406   322   404    1
   407   322   405    1
   408   322   406    1
   409   323   324    1
   410   323   407    1
   411   323   408    1
   412   324   325    1
   413   324   409    1
   414   324   410    1
   415   325   326    1
   416   325   411    1
   417   325   412    1
   418   326   413    1
   419   326   414    1
   420   326   415    1
@<TRIPOS>SUBSTRUCTURE
     1 RES1      415 GROUP             0 ****  ****    0  
