@<TRIPOS>MOLECULE
am_c3_9H2O_c0_0_nunpairedes_0_charge_3 Charge: 3 Unpaired_Electrons: 3 XTB_Unpaired_Electrons: 0 XTB_Charge: 3
   232   237     1     0     0
SMALL
NoCharges
****
Generated from Architector

@<TRIPOS>ATOM
     1 Nd1      -0.1530   -0.1775   -0.3251   Nd        1 RES1   0.0000
     2 C1       -8.4501    1.4855   -1.6273   C.3       1 RES1   0.0000
     3 C2       -7.4005    2.5279   -1.9838   C.3       1 RES1   0.0000
     4 C3       -6.4605    2.8232   -0.8176   C.3       1 RES1   0.0000
     5 C4       -7.1231    3.6480    0.2839   C.3       1 RES1   0.0000
     6 C5       -6.1697    3.9378    1.4430   C.3       1 RES1   0.0000
     7 C6       -5.8907    2.6958    2.2946   C.3       1 RES1   0.0000
     8 C7       -4.6331    2.8637    3.1541   C.3       1 RES1   0.0000
     9 C8       -3.9438    1.5340    3.5258   C.3       1 RES1   0.0000
    10 N1       -2.5831    1.4279    3.0057   N.am      1 RES1   0.0000
    11 C9       -1.5461    1.8566    3.9501   C.3       1 RES1   0.0000
    12 C10      -1.6263    1.0840    5.2689   C.3       1 RES1   0.0000
    13 C11      -2.2484    1.0897    1.7688   C.2       1 RES1   0.0000
    14 O1       -1.0656    1.0982    1.3543   O.2       1 RES1   0.0000
    15 C12      -3.3123    0.6378    0.7622   C.3       1 RES1   0.0000
    16 O2       -2.7462   -0.4234   -0.0047   O.3       1 RES1   0.0000
    17 C13      -3.7121   -1.3754   -0.4632   C.3       1 RES1   0.0000
    18 C14      -3.0630   -2.7718   -0.4230   C.2       1 RES1   0.0000
    19 O3       -1.8285   -2.8023   -0.4650   O.2       1 RES1   0.0000
    20 N2       -3.8612   -3.8469   -0.3613   N.am      1 RES1   0.0000
    21 C15      -5.3017   -3.7984   -0.6457   C.3       1 RES1   0.0000
    22 C16      -6.2373   -4.2079    0.4892   C.3       1 RES1   0.0000
    23 C17      -3.2465   -5.1845   -0.3735   C.3       1 RES1   0.0000
    24 C18      -2.7409   -5.7113    0.9781   C.3       1 RES1   0.0000
    25 C19      -3.8284   -6.1412    1.9778   C.3       1 RES1   0.0000
    26 C20      -3.9534   -5.2668    3.2268   C.3       1 RES1   0.0000
    27 C21      -3.0258   -5.7670    4.3291   C.3       1 RES1   0.0000
    28 C22      -2.9537   -4.8379    5.5338   C.3       1 RES1   0.0000
    29 C23      -2.0879   -5.4676    6.6321   C.3       1 RES1   0.0000
    30 C24      -1.1718   -4.4887    7.3567   C.3       1 RES1   0.0000
    31 H1       -9.0454    1.2305   -2.4981   H         1 RES1   0.0000
    32 H2       -9.1179    1.8538   -0.8562   H         1 RES1   0.0000
    33 H3       -7.9789    0.5746   -1.2631   H         1 RES1   0.0000
    34 H4       -7.8930    3.4483   -2.2940   H         1 RES1   0.0000
    35 H5       -6.8175    2.1650   -2.8325   H         1 RES1   0.0000
    36 H6       -5.5873    3.3721   -1.1834   H         1 RES1   0.0000
    37 H7       -6.1124    1.8696   -0.4108   H         1 RES1   0.0000
    38 H8       -8.0111    3.1391    0.6586   H         1 RES1   0.0000
    39 H9       -7.4428    4.5971   -0.1444   H         1 RES1   0.0000
    40 H10      -6.5995    4.7080    2.0844   H         1 RES1   0.0000
    41 H11      -5.2308    4.3270    1.0310   H         1 RES1   0.0000
    42 H12      -5.7820    1.8268    1.6427   H         1 RES1   0.0000
    43 H13      -6.7486    2.5052    2.9419   H         1 RES1   0.0000
    44 H14      -4.9066    3.3874    4.0698   H         1 RES1   0.0000
    45 H15      -3.9100    3.4948    2.6301   H         1 RES1   0.0000
    46 H16      -4.5334    0.6777    3.1950   H         1 RES1   0.0000
    47 H17      -3.8542    1.4562    4.6067   H         1 RES1   0.0000
    48 H18      -1.6796    2.9248    4.1408   H         1 RES1   0.0000
    49 H19      -0.5767    1.6975    3.4735   H         1 RES1   0.0000
    50 H20      -2.2598    1.5811    6.0004   H         1 RES1   0.0000
    51 H21      -0.6345    0.9886    5.7007   H         1 RES1   0.0000
    52 H22      -2.0177    0.0854    5.1037   H         1 RES1   0.0000
    53 H23      -3.5575    1.4946    0.1116   H         1 RES1   0.0000
    54 H24      -4.2246    0.2922    1.2560   H         1 RES1   0.0000
    55 H25      -3.9782   -1.1527   -1.5051   H         1 RES1   0.0000
    56 H26      -4.6065   -1.3243    0.1607   H         1 RES1   0.0000
    57 H27      -5.4846   -4.4638   -1.4935   H         1 RES1   0.0000
    58 H28      -5.5735   -2.7980   -0.9759   H         1 RES1   0.0000
    59 H29      -6.2034   -5.2731    0.6830   H         1 RES1   0.0000
    60 H30      -7.2562   -3.9747    0.1923   H         1 RES1   0.0000
    61 H31      -6.0191   -3.6858    1.4142   H         1 RES1   0.0000
    62 H32      -2.3941   -5.1436   -1.0636   H         1 RES1   0.0000
    63 H33      -3.9791   -5.8911   -0.7683   H         1 RES1   0.0000
    64 H34      -2.0702   -4.9671    1.4037   H         1 RES1   0.0000
    65 H35      -2.1343   -6.5847    0.7297   H         1 RES1   0.0000
    66 H36      -3.5917   -7.1480    2.3145   H         1 RES1   0.0000
    67 H37      -4.7894   -6.1960    1.4757   H         1 RES1   0.0000
    68 H38      -4.9746   -5.2935    3.6047   H         1 RES1   0.0000
    69 H39      -3.7241   -4.2238    2.9942   H         1 RES1   0.0000
    70 H40      -2.0261   -5.9221    3.9141   H         1 RES1   0.0000
    71 H41      -3.3781   -6.7328    4.6904   H         1 RES1   0.0000
    72 H42      -3.9625   -4.6806    5.9193   H         1 RES1   0.0000
    73 H43      -2.5677   -3.8561    5.2435   H         1 RES1   0.0000
    74 H44      -1.4502   -6.2419    6.2020   H         1 RES1   0.0000
    75 H45      -2.7471   -5.9451    7.3548   H         1 RES1   0.0000
    76 H46      -0.2820   -4.2928    6.7615   H         1 RES1   0.0000
    77 H47      -0.8492   -4.9177    8.3009   H         1 RES1   0.0000
    78 H48      -1.6650   -3.5417    7.5585   H         1 RES1   0.0000
    79 C25       1.0306    7.5780    2.5036   C.3       1 RES1   0.0000
    80 C26      -0.3825    7.0877    2.7948   C.3       1 RES1   0.0000
    81 C27      -1.1217    6.6445    1.5323   C.3       1 RES1   0.0000
    82 C28      -1.5219    7.8088    0.6266   C.3       1 RES1   0.0000
    83 C29      -2.1413    7.3477   -0.6932   C.3       1 RES1   0.0000
    84 C30      -1.0880    6.7781   -1.6540   C.3       1 RES1   0.0000
    85 C31      -1.6507    5.6736   -2.5522   C.3       1 RES1   0.0000
    86 C32      -0.5464    4.8407   -3.2453   C.3       1 RES1   0.0000
    87 N3       -0.7982    3.4127   -3.0905   N.am      1 RES1   0.0000
    88 C33      -1.6929    2.8139   -4.0823   C.3       1 RES1   0.0000
    89 C34      -0.9708    2.6313   -5.4180   C.3       1 RES1   0.0000
    90 C35      -0.3623    2.6690   -2.0842   C.2       1 RES1   0.0000
    91 O4       -0.7747    1.5066   -1.8664   O.2       1 RES1   0.0000
    92 C36       0.7176    3.2279   -1.1540   C.3       1 RES1   0.0000
    93 O5        1.2349    2.1300   -0.4203   O.3       1 RES1   0.0000
    94 C37       2.3148    2.4995    0.4287   C.3       1 RES1   0.0000
    95 C38       2.7603    1.2120    1.1387   C.2       1 RES1   0.0000
    96 O6        1.9826    0.2427    1.0927   O.2       1 RES1   0.0000
    97 N4        3.9410    1.1815    1.7519   N.am      1 RES1   0.0000
    98 C39       4.7627    2.3714    1.9851   C.3       1 RES1   0.0000
    99 C40       6.0598    2.4146    1.1813   C.3       1 RES1   0.0000
   100 C41       4.3415   -0.0560    2.4435   C.3       1 RES1   0.0000
   101 C42       4.7143   -1.2376    1.5282   C.3       1 RES1   0.0000
   102 C43       6.1562   -1.2383    0.9815   C.3       1 RES1   0.0000
   103 C44       6.2601   -1.4573   -0.5383   C.3       1 RES1   0.0000
   104 C45       6.4895   -2.9077   -0.9820   C.3       1 RES1   0.0000
   105 C46       5.4845   -3.9094   -0.4157   C.3       1 RES1   0.0000
   106 C47       5.4930   -5.2554   -1.1481   C.3       1 RES1   0.0000
   107 C48       4.5460   -5.2947   -2.3404   C.3       1 RES1   0.0000
   108 H49       1.5403    7.8360    3.4283   H         1 RES1   0.0000
   109 H50       1.0136    8.4608    1.8716   H         1 RES1   0.0000
   110 H51       1.6100    6.8038    1.9987   H         1 RES1   0.0000
   111 H52      -0.9467    7.8776    3.2903   H         1 RES1   0.0000
   112 H53      -0.3207    6.2443    3.4876   H         1 RES1   0.0000
   113 H54      -2.0250    6.1001    1.8195   H         1 RES1   0.0000
   114 H55      -0.4762    5.9508    0.9840   H         1 RES1   0.0000
   115 H56      -0.6564    8.4279    0.3972   H         1 RES1   0.0000
   116 H57      -2.2454    8.4265    1.1566   H         1 RES1   0.0000
   117 H58      -2.6413    8.1888   -1.1727   H         1 RES1   0.0000
   118 H59      -2.9021    6.5923   -0.4819   H         1 RES1   0.0000
   119 H60      -0.2575    6.3712   -1.0735   H         1 RES1   0.0000
   120 H61      -0.6874    7.5814   -2.2728   H         1 RES1   0.0000
   121 H62      -2.3118    6.1235   -3.2953   H         1 RES1   0.0000
   122 H63      -2.2601    4.9983   -1.9433   H         1 RES1   0.0000
   123 H64       0.4314    5.0970   -2.8359   H         1 RES1   0.0000
   124 H65      -0.5176    5.0723   -4.3098   H         1 RES1   0.0000
   125 H66      -2.5678    3.4537   -4.2168   H         1 RES1   0.0000
   126 H67      -2.0077    1.8407   -3.6971   H         1 RES1   0.0000
   127 H68      -0.8990    3.5654   -5.9722   H         1 RES1   0.0000
   128 H69      -1.5124    1.9153   -6.0320   H         1 RES1   0.0000
   129 H70       0.0346    2.2480   -5.2485   H         1 RES1   0.0000
   130 H71       0.2672    3.9628   -0.4721   H         1 RES1   0.0000
   131 H72       1.5217    3.6947   -1.7414   H         1 RES1   0.0000
   132 H73       1.9735    3.2408    1.1663   H         1 RES1   0.0000
   133 H74       3.1316    2.9226   -0.1679   H         1 RES1   0.0000
   134 H75       4.9986    2.4068    3.0528   H         1 RES1   0.0000
   135 H76       4.1829    3.2656    1.7618   H         1 RES1   0.0000
   136 H77       6.7625    1.6535    1.5044   H         1 RES1   0.0000
   137 H78       6.5342    3.3787    1.3425   H         1 RES1   0.0000
   138 H79       5.8776    2.2945    0.1164   H         1 RES1   0.0000
   139 H80       3.4922   -0.3726    3.0599   H         1 RES1   0.0000
   140 H81       5.1831    0.1727    3.0991   H         1 RES1   0.0000
   141 H82       3.9984   -1.2529    0.7078   H         1 RES1   0.0000
   142 H83       4.5626   -2.1407    2.1232   H         1 RES1   0.0000
   143 H84       6.7422   -2.0067    1.4879   H         1 RES1   0.0000
   144 H85       6.6213   -0.2826    1.2156   H         1 RES1   0.0000
   145 H86       7.0948   -0.8629   -0.9182   H         1 RES1   0.0000
   146 H87       5.3523   -1.0652   -1.0124   H         1 RES1   0.0000
   147 H88       7.4901   -3.2156   -0.6811   H         1 RES1   0.0000
   148 H89       6.4563   -2.9316   -2.0728   H         1 RES1   0.0000
   149 H90       4.4826   -3.4816   -0.4695   H         1 RES1   0.0000
   150 H91       5.7151   -4.0770    0.6365   H         1 RES1   0.0000
   151 H92       5.2039   -6.0415   -0.4511   H         1 RES1   0.0000
   152 H93       6.5043   -5.4824   -1.4811   H         1 RES1   0.0000
   153 H94       3.5150   -5.1303   -2.0180   H         1 RES1   0.0000
   154 H95       4.5928   -6.2697   -2.8160   H         1 RES1   0.0000
   155 H96       4.8128   -4.5455   -3.0837   H         1 RES1   0.0000
   156 C49       0.3888   -7.8928   -2.7043   C.3       1 RES1   0.0000
   157 C50       0.7964   -7.1603   -3.9778   C.3       1 RES1   0.0000
   158 C51      -0.3879   -6.6900   -4.8243   C.3       1 RES1   0.0000
   159 C52      -1.3622   -5.7255   -4.1409   C.3       1 RES1   0.0000
   160 C53      -0.7881   -4.3767   -3.6964   C.3       1 RES1   0.0000
   161 C54      -0.1889   -3.5467   -4.8436   C.3       1 RES1   0.0000
   162 C55      -0.5901   -2.0607   -4.7782   C.3       1 RES1   0.0000
   163 C56       0.5825   -1.0833   -4.9304   C.3       1 RES1   0.0000
   164 N5        1.6980   -1.4644   -4.0639   N.am      1 RES1   0.0000
   165 C57       3.0130   -1.6108   -4.6719   C.3       1 RES1   0.0000
   166 C58       3.6267   -0.2315   -4.9232   C.3       1 RES1   0.0000
   167 C59       1.4768   -1.4797   -2.7617   C.2       1 RES1   0.0000
   168 O7        0.4114   -1.0593   -2.2626   O.2       1 RES1   0.0000
   169 C60       2.5212   -2.0663   -1.8043   C.3       1 RES1   0.0000
   170 O8        2.0292   -1.8602   -0.4872   O.3       1 RES1   0.0000
   171 C61       1.8202   -2.9919    0.3463   C.3       1 RES1   0.0000
   172 C62       0.6750   -2.6576    1.3023   C.2       1 RES1   0.0000
   173 O9       -0.0801   -1.6999    1.0594   O.2       1 RES1   0.0000
   174 N6        0.4187   -3.4143    2.3554   N.am      1 RES1   0.0000
   175 C63      -0.8868   -3.1959    2.9738   C.3       1 RES1   0.0000
   176 C64      -0.9899   -1.9306    3.8146   C.3       1 RES1   0.0000
   177 C65       1.2925   -4.4283    2.9183   C.3       1 RES1   0.0000
   178 C66       1.0373   -5.8287    2.3523   C.3       1 RES1   0.0000
   179 C67       1.2056   -6.9215    3.4104   C.3       1 RES1   0.0000
   180 C68       2.6427   -7.3498    3.7859   C.3       1 RES1   0.0000
   181 C69       3.8104   -6.6055    3.1385   C.3       1 RES1   0.0000
   182 C70       5.1648   -7.2605    3.4601   C.3       1 RES1   0.0000
   183 C71       5.6904   -8.1736    2.3528   C.3       1 RES1   0.0000
   184 C72       4.8398   -9.4147    2.1231   C.3       1 RES1   0.0000
   185 H97       1.2687   -8.2985   -2.2107   H         1 RES1   0.0000
   186 H98      -0.2724   -8.7228   -2.9401   H         1 RES1   0.0000
   187 H99      -0.1190   -7.2261   -2.0093   H         1 RES1   0.0000
   188 H100      1.3831   -7.8452   -4.5932   H         1 RES1   0.0000
   189 H101      1.4366   -6.3095   -3.7268   H         1 RES1   0.0000
   190 H102     -0.9601   -7.5698   -5.1261   H         1 RES1   0.0000
   191 H103     -0.0044   -6.2332   -5.7392   H         1 RES1   0.0000
   192 H104     -1.7944   -6.2157   -3.2653   H         1 RES1   0.0000
   193 H105     -2.1786   -5.5346   -4.8407   H         1 RES1   0.0000
   194 H106     -0.0486   -4.5400   -2.9101   H         1 RES1   0.0000
   195 H107     -1.6046   -3.8122   -3.2377   H         1 RES1   0.0000
   196 H108     -0.5316   -3.9609   -5.7907   H         1 RES1   0.0000
   197 H109      0.8982   -3.6392   -4.8286   H         1 RES1   0.0000
   198 H110     -1.0884   -1.8639   -3.8258   H         1 RES1   0.0000
   199 H111     -1.3052   -1.8349   -5.5682   H         1 RES1   0.0000
   200 H112      0.2414   -0.0804   -4.6520   H         1 RES1   0.0000
   201 H113      0.9414   -1.0646   -5.9590   H         1 RES1   0.0000
   202 H114      2.9058   -2.1454   -5.6187   H         1 RES1   0.0000
   203 H115      3.6605   -2.2029   -4.0245   H         1 RES1   0.0000
   204 H116      3.0318    0.3253   -5.6458   H         1 RES1   0.0000
   205 H117      4.6328   -0.3469   -5.3185   H         1 RES1   0.0000
   206 H118      3.6780    0.3420   -3.9976   H         1 RES1   0.0000
   207 H119      3.4769   -1.5331   -1.9024   H         1 RES1   0.0000
   208 H120      2.6898   -3.1263   -2.0290   H         1 RES1   0.0000
   209 H121      2.7391   -3.2260    0.8977   H         1 RES1   0.0000
   210 H122      1.5106   -3.8721   -0.2302   H         1 RES1   0.0000
   211 H123     -1.1080   -4.0699    3.5811   H         1 RES1   0.0000
   212 H124     -1.6179   -3.1046    2.1636   H         1 RES1   0.0000
   213 H125     -2.0373   -1.7910    4.0753   H         1 RES1   0.0000
   214 H126     -0.6551   -1.0642    3.2439   H         1 RES1   0.0000
   215 H127     -0.4132   -2.0142    4.7292   H         1 RES1   0.0000
   216 H128      1.1335   -4.4455    4.0019   H         1 RES1   0.0000
   217 H129      2.3202   -4.1163    2.7421   H         1 RES1   0.0000
   218 H130      1.6873   -6.0231    1.5003   H         1 RES1   0.0000
   219 H131      0.0042   -5.8526    2.0034   H         1 RES1   0.0000
   220 H132      0.6935   -7.8044    3.0337   H         1 RES1   0.0000
   221 H133      0.6708   -6.6084    4.3108   H         1 RES1   0.0000
   222 H134      2.7529   -8.4014    3.5341   H         1 RES1   0.0000
   223 H135      2.7585   -7.2677    4.8661   H         1 RES1   0.0000
   224 H136      3.8334   -5.5799    3.5058   H         1 RES1   0.0000
   225 H137      3.6962   -6.5705    2.0540   H         1 RES1   0.0000
   226 H138      5.0885   -7.8360    4.3818   H         1 RES1   0.0000
   227 H139      5.9177   -6.4884    3.6365   H         1 RES1   0.0000
   228 H140      6.6993   -8.4902    2.6198   H         1 RES1   0.0000
   229 H141      5.7707   -7.6118    1.4187   H         1 RES1   0.0000
   230 H142      4.7265   -9.9744    3.0466   H         1 RES1   0.0000
   231 H143      5.3169  -10.0687    1.3992   H         1 RES1   0.0000
   232 H144      3.8517   -9.1620    1.7473   H         1 RES1   0.0000
@<TRIPOS>BOND
     1     1    14    1
     2     1    16    1
     3     1    19    1
     4     1    91    1
     5     1    93    1
     6     1    96    1
     7     1   168    1
     8     1   170    1
     9     1   173    1
    10     2     3    1
    11     2    31    1
    12     2    32    1
    13     2    33    1
    14     3     4    1
    15     3    34    1
    16     3    35    1
    17     4     5    1
    18     4    36    1
    19     4    37    1
    20     5     6    1
    21     5    38    1
    22     5    39    1
    23     6     7    1
    24     6    40    1
    25     6    41    1
    26     7     8    1
    27     7    42    1
    28     7    43    1
    29     8     9    1
    30     8    44    1
    31     8    45    1
    32     9    10    1
    33     9    46    1
    34     9    47    1
    35    10    11    1
    36    10    13    1
    37    11    12    1
    38    11    48    1
    39    11    49    1
    40    12    50    1
    41    12    51    1
    42    12    52    1
    43    13    14    2
    44    13    15    1
    45    15    16    1
    46    15    53    1
    47    15    54    1
    48    16    17    1
    49    17    18    1
    50    17    55    1
    51    17    56    1
    52    18    19    2
    53    18    20    1
    54    20    21    1
    55    20    23    1
    56    21    22    1
    57    21    57    1
    58    21    58    1
    59    22    59    1
    60    22    60    1
    61    22    61    1
    62    23    24    1
    63    23    62    1
    64    23    63    1
    65    24    25    1
    66    24    64    1
    67    24    65    1
    68    25    26    1
    69    25    66    1
    70    25    67    1
    71    26    27    1
    72    26    68    1
    73    26    69    1
    74    27    28    1
    75    27    70    1
    76    27    71    1
    77    28    29    1
    78    28    72    1
    79    28    73    1
    80    29    30    1
    81    29    74    1
    82    29    75    1
    83    30    76    1
    84    30    77    1
    85    30    78    1
    86    79    80    1
    87    79   108    1
    88    79   109    1
    89    79   110    1
    90    80    81    1
    91    80   111    1
    92    80   112    1
    93    81    82    1
    94    81   113    1
    95    81   114    1
    96    82    83    1
    97    82   115    1
    98    82   116    1
    99    83    84    1
   100    83   117    1
   101    83   118    1
   102    84    85    1
   103    84   119    1
   104    84   120    1
   105    85    86    1
   106    85   121    1
   107    85   122    1
   108    86    87    1
   109    86   123    1
   110    86   124    1
   111    87    88    1
   112    87    90    1
   113    88    89    1
   114    88   125    1
   115    88   126    1
   116    89   127    1
   117    89   128    1
   118    89   129    1
   119    90    91    2
   120    90    92    1
   121    92    93    1
   122    92   130    1
   123    92   131    1
   124    93    94    1
   125    94    95    1
   126    94   132    1
   127    94   133    1
   128    95    96    2
   129    95    97    1
   130    97    98    1
   131    97   100    1
   132    98    99    1
   133    98   134    1
   134    98   135    1
   135    99   136    1
   136    99   137    1
   137    99   138    1
   138   100   101    1
   139   100   139    1
   140   100   140    1
   141   101   102    1
   142   101   141    1
   143   101   142    1
   144   102   103    1
   145   102   143    1
   146   102   144    1
   147   103   104    1
   148   103   145    1
   149   103   146    1
   150   104   105    1
   151   104   147    1
   152   104   148    1
   153   105   106    1
   154   105   149    1
   155   105   150    1
   156   106   107    1
   157   106   151    1
   158   106   152    1
   159   107   153    1
   160   107   154    1
   161   107   155    1
   162   156   157    1
   163   156   185    1
   164   156   186    1
   165   156   187    1
   166   157   158    1
   167   157   188    1
   168   157   189    1
   169   158   159    1
   170   158   190    1
   171   158   191    1
   172   159   160    1
   173   159   192    1
   174   159   193    1
   175   160   161    1
   176   160   194    1
   177   160   195    1
   178   161   162    1
   179   161   196    1
   180   161   197    1
   181   162   163    1
   182   162   198    1
   183   162   199    1
   184   163   164    1
   185   163   200    1
   186   163   201    1
   187   164   165    1
   188   164   167    1
   189   165   166    1
   190   165   202    1
   191   165   203    1
   192   166   204    1
   193   166   205    1
   194   166   206    1
   195   167   168    2
   196   167   169    1
   197   169   170    1
   198   169   207    1
   199   169   208    1
   200   170   171    1
   201   171   172    1
   202   171   209    1
   203   171   210    1
   204   172   173    2
   205   172   174    1
   206   174   175    1
   207   174   177    1
   208   175   176    1
   209   175   211    1
   210   175   212    1
   211   176   213    1
   212   176   214    1
   213   176   215    1
   214   177   178    1
   215   177   216    1
   216   177   217    1
   217   178   179    1
   218   178   218    1
   219   178   219    1
   220   179   180    1
   221   179   220    1
   222   179   221    1
   223   180   181    1
   224   180   222    1
   225   180   223    1
   226   181   182    1
   227   181   224    1
   228   181   225    1
   229   182   183    1
   230   182   226    1
   231   182   227    1
   232   183   184    1
   233   183   228    1
   234   183   229    1
   235   184   230    1
   236   184   231    1
   237   184   232    1
@<TRIPOS>SUBSTRUCTURE
     1 RES1      232 GROUP             0 ****  ****    0  
