@<TRIPOS>MOLECULE
am_c3_9H2O_c0_0_nunpairedes_0_charge_3 Charge: 3 Unpaired_Electrons: 3 XTB_Unpaired_Electrons: 0 XTB_Charge: 3
   344   347     1     0     0
SMALL
NoCharges
****
Generated from Architector

@<TRIPOS>ATOM
     1 Nd1       0.0351   -0.0278   -0.2689   Nd        1 RES1   0.0000
     2 C1        4.5854    0.0876   -1.1490   C.3       1 RES1   0.0000
     3 C2        4.8980    1.1526   -2.1970   C.3       1 RES1   0.0000
     4 C3        5.6667    2.3688   -1.6841   C.3       1 RES1   0.0000
     5 C4        4.9883    3.0365   -0.4933   C.3       1 RES1   0.0000
     6 C5        3.5982    3.5556   -0.8446   C.3       1 RES1   0.0000
     7 C6        2.8451    4.0114    0.3987   C.3       1 RES1   0.0000
     8 N1        1.4746    4.3713    0.0656   N.am      1 RES1   0.0000
     9 C7        1.1973    5.7812   -0.1492   C.3       1 RES1   0.0000
    10 C8        0.4295    6.4130    1.0229   C.3       1 RES1   0.0000
    11 C9        1.3122    7.2393    1.9630   C.3       1 RES1   0.0000
    12 C10       2.0489    6.4064    3.0096   C.3       1 RES1   0.0000
    13 C11       2.8582    7.2764    3.9689   C.3       1 RES1   0.0000
    14 C12       3.5348    6.4446    5.0530   C.3       1 RES1   0.0000
    15 C13       0.5987    3.3750   -0.0571   C.2       1 RES1   0.0000
    16 O1        0.9496    2.1898    0.0909   O.2       1 RES1   0.0000
    17 C14      -0.8497    3.7080   -0.3986   C.3       1 RES1   0.0000
    18 C15      -1.2153    2.8787   -1.6234   C.2       1 RES1   0.0000
    19 O2       -1.0045    1.6510   -1.6144   O.2       1 RES1   0.0000
    20 N2       -1.6938    3.4834   -2.7114   N.am      1 RES1   0.0000
    21 C16      -1.7647    2.7030   -3.9383   C.3       1 RES1   0.0000
    22 C17      -3.0899    2.0116   -4.2460   C.3       1 RES1   0.0000
    23 C18      -2.9397    1.3579   -5.6257   C.3       1 RES1   0.0000
    24 C19      -4.2210    0.7909   -6.2459   C.3       1 RES1   0.0000
    25 C20      -4.4769   -0.6860   -5.9561   C.3       1 RES1   0.0000
    26 C21      -4.4639   -1.0311   -4.4748   C.3       1 RES1   0.0000
    27 C22      -1.9840    4.9069   -2.8070   C.3       1 RES1   0.0000
    28 C23      -3.1877    5.3522   -1.9683   C.3       1 RES1   0.0000
    29 C24      -4.5499    5.1277   -2.6496   C.3       1 RES1   0.0000
    30 C25      -5.4420    4.1688   -1.8656   C.3       1 RES1   0.0000
    31 C26      -6.8564    4.0953   -2.4379   C.3       1 RES1   0.0000
    32 C27      -7.8107    3.4088   -1.4697   C.3       1 RES1   0.0000
    33 H1        4.2689   -0.8394   -1.6298   H         1 RES1   0.0000
    34 H2        3.7728    0.4035   -0.4939   H         1 RES1   0.0000
    35 H3        5.4608   -0.1178   -0.5395   H         1 RES1   0.0000
    36 H4        3.9619    1.4861   -2.6381   H         1 RES1   0.0000
    37 H5        5.5012    0.7104   -2.9891   H         1 RES1   0.0000
    38 H6        5.7553    3.0821   -2.5060   H         1 RES1   0.0000
    39 H7        6.6827    2.0794   -1.4129   H         1 RES1   0.0000
    40 H8        5.6059    3.8639   -0.1442   H         1 RES1   0.0000
    41 H9        4.9101    2.3084    0.3145   H         1 RES1   0.0000
    42 H10       3.0085    2.7583   -1.2994   H         1 RES1   0.0000
    43 H11       3.6784    4.3930   -1.5426   H         1 RES1   0.0000
    44 H12       3.3287    4.8797    0.8425   H         1 RES1   0.0000
    45 H13       2.8110    3.1997    1.1309   H         1 RES1   0.0000
    46 H14       0.6589    5.9172   -1.0901   H         1 RES1   0.0000
    47 H15       2.1598    6.2799   -0.2672   H         1 RES1   0.0000
    48 H16      -0.0430    5.6143    1.5954   H         1 RES1   0.0000
    49 H17      -0.3554    7.0556    0.6263   H         1 RES1   0.0000
    50 H18       0.6777    7.9525    2.4884   H         1 RES1   0.0000
    51 H19       2.0340    7.8160    1.3812   H         1 RES1   0.0000
    52 H20       2.7270    5.7000    2.5302   H         1 RES1   0.0000
    53 H21       1.3265    5.8260    3.5855   H         1 RES1   0.0000
    54 H22       2.2005    8.0088    4.4376   H         1 RES1   0.0000
    55 H23       3.6142    7.8272    3.4072   H         1 RES1   0.0000
    56 H24       2.7930    5.9547    5.6813   H         1 RES1   0.0000
    57 H25       4.1522    7.0775    5.6846   H         1 RES1   0.0000
    58 H26       4.1719    5.6803    4.6100   H         1 RES1   0.0000
    59 H27      -1.0103    4.7662   -0.5352   H         1 RES1   0.0000
    60 H28      -1.4614    3.3726    0.4438   H         1 RES1   0.0000
    61 H29      -0.9916    1.9325   -3.8740   H         1 RES1   0.0000
    62 H30      -1.5303    3.3760   -4.7631   H         1 RES1   0.0000
    63 H31      -3.9029    2.7368   -4.2600   H         1 RES1   0.0000
    64 H32      -3.2978    1.2766   -3.4691   H         1 RES1   0.0000
    65 H33      -2.1831    0.5765   -5.5540   H         1 RES1   0.0000
    66 H34      -2.5501    2.1205   -6.3031   H         1 RES1   0.0000
    67 H35      -4.1604    0.9027   -7.3297   H         1 RES1   0.0000
    68 H36      -5.0724    1.3815   -5.9111   H         1 RES1   0.0000
    69 H37      -3.7407   -1.2942   -6.4844   H         1 RES1   0.0000
    70 H38      -5.4532   -0.9467   -6.3642   H         1 RES1   0.0000
    71 H39      -3.4841   -0.8929   -4.0250   H         1 RES1   0.0000
    72 H40      -4.7553   -2.0712   -4.3441   H         1 RES1   0.0000
    73 H41      -5.1685   -0.3948   -3.9533   H         1 RES1   0.0000
    74 H42      -2.1834    5.1318   -3.8542   H         1 RES1   0.0000
    75 H43      -1.0887    5.4737   -2.5305   H         1 RES1   0.0000
    76 H44      -3.0687    6.4139   -1.7526   H         1 RES1   0.0000
    77 H45      -3.1694    4.8118   -1.0220   H         1 RES1   0.0000
    78 H46      -4.4188    4.7373   -3.6597   H         1 RES1   0.0000
    79 H47      -5.0694    6.0812   -2.7442   H         1 RES1   0.0000
    80 H48      -5.5082    4.5116   -0.8308   H         1 RES1   0.0000
    81 H49      -4.9894    3.1720   -1.8601   H         1 RES1   0.0000
    82 H50      -6.8479    3.5607   -3.3887   H         1 RES1   0.0000
    83 H51      -7.2136    5.1062   -2.6365   H         1 RES1   0.0000
    84 H52      -7.4759    2.3976   -1.2519   H         1 RES1   0.0000
    85 H53      -8.8116    3.3518   -1.8876   H         1 RES1   0.0000
    86 H54      -7.8587    3.9623   -0.5348   H         1 RES1   0.0000
    87 C28      -0.8593    3.9570    3.8481   C.3       1 RES1   0.0000
    88 C29      -0.8523    3.4926    5.2991   C.3       1 RES1   0.0000
    89 C30       0.4774    3.7437    6.0134   C.3       1 RES1   0.0000
    90 C31       1.7006    3.1916    5.2795   C.3       1 RES1   0.0000
    91 C32       1.5764    1.7105    4.9517   C.3       1 RES1   0.0000
    92 C33       2.5964    1.2735    3.9032   C.3       1 RES1   0.0000
    93 N3        2.4671   -0.1649    3.7346   N.am      1 RES1   0.0000
    94 C34       3.2152   -0.9681    4.6845   C.3       1 RES1   0.0000
    95 C35       4.3591   -1.7500    4.0348   C.3       1 RES1   0.0000
    96 C36       5.6945   -1.0132    3.9281   C.3       1 RES1   0.0000
    97 C37       5.8277   -0.1005    2.7106   C.3       1 RES1   0.0000
    98 C38       7.2904    0.2876    2.4852   C.3       1 RES1   0.0000
    99 C39       7.4504    1.3067    1.3665   C.3       1 RES1   0.0000
   100 C40       1.5420   -0.6131    2.8855   C.2       1 RES1   0.0000
   101 O3        0.9914    0.1338    2.0578   O.2       1 RES1   0.0000
   102 C41       1.1264   -2.0809    3.0003   C.3       1 RES1   0.0000
   103 C42      -0.2928   -2.2681    2.4846   C.2       1 RES1   0.0000
   104 O4       -0.6284   -1.8406    1.3656   O.2       1 RES1   0.0000
   105 N4       -1.1961   -2.8298    3.3089   N.am      1 RES1   0.0000
   106 C43      -2.6094   -2.5005    3.1475   C.3       1 RES1   0.0000
   107 C44      -3.5098   -3.6754    2.7747   C.3       1 RES1   0.0000
   108 C45      -4.9856   -3.3654    3.0241   C.3       1 RES1   0.0000
   109 C46      -5.9132   -4.5778    2.8477   C.3       1 RES1   0.0000
   110 C47      -6.5104   -4.7333    1.4472   C.3       1 RES1   0.0000
   111 C48      -5.5447   -5.2987    0.4133   C.3       1 RES1   0.0000
   112 C49      -0.8658   -3.6682    4.4566   C.3       1 RES1   0.0000
   113 C50      -0.0456   -4.9148    4.0912   C.3       1 RES1   0.0000
   114 C51      -0.8529   -6.0828    3.5091   C.3       1 RES1   0.0000
   115 C52      -1.0338   -6.0281    1.9915   C.3       1 RES1   0.0000
   116 C53      -1.8963   -7.1871    1.4918   C.3       1 RES1   0.0000
   117 C54      -2.1576   -7.1133   -0.0083   C.3       1 RES1   0.0000
   118 H55      -1.8095    3.7124    3.3881   H         1 RES1   0.0000
   119 H56      -0.0661    3.4897    3.2677   H         1 RES1   0.0000
   120 H57      -0.7317    5.0348    3.8122   H         1 RES1   0.0000
   121 H58      -1.1042    2.4311    5.3500   H         1 RES1   0.0000
   122 H59      -1.6354    4.0252    5.8388   H         1 RES1   0.0000
   123 H60       0.4251    3.3006    7.0089   H         1 RES1   0.0000
   124 H61       0.6151    4.8184    6.1386   H         1 RES1   0.0000
   125 H62       2.5858    3.3443    5.8981   H         1 RES1   0.0000
   126 H63       1.8550    3.7450    4.3536   H         1 RES1   0.0000
   127 H64       0.5880    1.4889    4.5510   H         1 RES1   0.0000
   128 H65       1.7020    1.1204    5.8604   H         1 RES1   0.0000
   129 H66       3.6100    1.5072    4.2246   H         1 RES1   0.0000
   130 H67       2.3942    1.7591    2.9464   H         1 RES1   0.0000
   131 H68       2.5533   -1.6649    5.2050   H         1 RES1   0.0000
   132 H69       3.6238   -0.2984    5.4415   H         1 RES1   0.0000
   133 H70       4.0502   -2.0566    3.0367   H         1 RES1   0.0000
   134 H71       4.5158   -2.6400    4.6390   H         1 RES1   0.0000
   135 H72       6.4770   -1.7707    3.8590   H         1 RES1   0.0000
   136 H73       5.8760   -0.4393    4.8382   H         1 RES1   0.0000
   137 H74       5.2317    0.8051    2.8420   H         1 RES1   0.0000
   138 H75       5.4494   -0.6141    1.8216   H         1 RES1   0.0000
   139 H76       7.8684   -0.6058    2.2406   H         1 RES1   0.0000
   140 H77       7.6996    0.7006    3.4079   H         1 RES1   0.0000
   141 H78       7.0791    0.9014    0.4291   H         1 RES1   0.0000
   142 H79       8.4953    1.5685    1.2292   H         1 RES1   0.0000
   143 H80       6.8996    2.2165    1.5936   H         1 RES1   0.0000
   144 H81       1.2027   -2.3973    4.0340   H         1 RES1   0.0000
   145 H82       1.8373   -2.6548    2.4092   H         1 RES1   0.0000
   146 H83      -2.6771   -1.7119    2.3954   H         1 RES1   0.0000
   147 H84      -2.9389   -2.0915    4.1095   H         1 RES1   0.0000
   148 H85      -3.2342   -4.5405    3.3737   H         1 RES1   0.0000
   149 H86      -3.3535   -3.9382    1.7307   H         1 RES1   0.0000
   150 H87      -5.3096   -2.5663    2.3555   H         1 RES1   0.0000
   151 H88      -5.0816   -2.9935    4.0466   H         1 RES1   0.0000
   152 H89      -6.7407   -4.4681    3.5481   H         1 RES1   0.0000
   153 H90      -5.3813   -5.4908    3.1169   H         1 RES1   0.0000
   154 H91      -6.8914   -3.7666    1.1144   H         1 RES1   0.0000
   155 H92      -7.3667   -5.4036    1.5109   H         1 RES1   0.0000
   156 H93      -6.0360   -5.4021   -0.5504   H         1 RES1   0.0000
   157 H94      -4.6752   -4.6586    0.2827   H         1 RES1   0.0000
   158 H95      -5.1981   -6.2811    0.7178   H         1 RES1   0.0000
   159 H96      -1.8052   -3.9846    4.9119   H         1 RES1   0.0000
   160 H97      -0.3419   -3.0812    5.2180   H         1 RES1   0.0000
   161 H98       0.4523   -5.2569    5.0005   H         1 RES1   0.0000
   162 H99       0.7252   -4.6412    3.3728   H         1 RES1   0.0000
   163 H100     -1.8300   -6.1405    3.9915   H         1 RES1   0.0000
   164 H101     -0.3302   -7.0092    3.7486   H         1 RES1   0.0000
   165 H102     -0.0561   -6.0905    1.5101   H         1 RES1   0.0000
   166 H103     -1.4822   -5.0785    1.6939   H         1 RES1   0.0000
   167 H104     -2.8494   -7.1855    2.0222   H         1 RES1   0.0000
   168 H105     -1.3975   -8.1289    1.7230   H         1 RES1   0.0000
   169 H106     -2.7617   -6.2406   -0.2504   H         1 RES1   0.0000
   170 H107     -2.6927   -7.9982   -0.3430   H         1 RES1   0.0000
   171 H108     -1.2225   -7.0507   -0.5628   H         1 RES1   0.0000
   172 C55       4.1581   -4.8751    6.0163   C.3       1 RES1   0.0000
   173 C56       4.7031   -5.8283    4.9591   C.3       1 RES1   0.0000
   174 C57       4.8717   -5.2205    3.5626   C.3       1 RES1   0.0000
   175 C58       3.5237   -4.9827    2.8811   C.3       1 RES1   0.0000
   176 C59       3.6145   -4.4383    1.4499   C.3       1 RES1   0.0000
   177 C60       2.2807   -4.6469    0.7268   C.3       1 RES1   0.0000
   178 N5        2.2292   -4.2739   -0.6851   N.am      1 RES1   0.0000
   179 C61       2.1646   -5.3845   -1.6333   C.3       1 RES1   0.0000
   180 C62       3.4820   -5.8094   -2.2964   C.3       1 RES1   0.0000
   181 C63       4.4685   -6.5574   -1.3972   C.3       1 RES1   0.0000
   182 C64       3.9025   -7.8318   -0.7723   C.3       1 RES1   0.0000
   183 C65       4.9832   -8.6764   -0.0918   C.3       1 RES1   0.0000
   184 C66       5.4977   -8.0328    1.1898   C.3       1 RES1   0.0000
   185 C67       1.9078   -3.0062   -1.0012   C.2       1 RES1   0.0000
   186 O5        1.7287   -2.1323   -0.1383   O.2       1 RES1   0.0000
   187 C68       1.7006   -2.6838   -2.4749   C.3       1 RES1   0.0000
   188 C69       1.9019   -1.2170   -2.8394   C.2       1 RES1   0.0000
   189 O6        1.4361   -0.3216   -2.1124   O.2       1 RES1   0.0000
   190 N6        2.5105   -0.9490   -3.9942   N.am      1 RES1   0.0000
   191 C70       2.5610    0.4277   -4.4591   C.3       1 RES1   0.0000
   192 C71       1.5151    0.7349   -5.5283   C.3       1 RES1   0.0000
   193 C72       1.9039    1.9494   -6.3777   C.3       1 RES1   0.0000
   194 C73       2.3869    3.1785   -5.6023   C.3       1 RES1   0.0000
   195 C74       1.2954    3.8547   -4.7791   C.3       1 RES1   0.0000
   196 C75       1.7664    5.1829   -4.2024   C.3       1 RES1   0.0000
   197 C76       3.1129   -1.9187   -4.9026   C.3       1 RES1   0.0000
   198 C77       4.3571   -2.6520   -4.3825   C.3       1 RES1   0.0000
   199 C78       5.6583   -1.8531   -4.4110   C.3       1 RES1   0.0000
   200 C79       6.8871   -2.7521   -4.2237   C.3       1 RES1   0.0000
   201 C80       6.8718   -3.6196   -2.9599   C.3       1 RES1   0.0000
   202 C81       6.7815   -2.8202   -1.6622   C.3       1 RES1   0.0000
   203 H109      4.0549   -5.4025    6.9598   H         1 RES1   0.0000
   204 H110      3.1788   -4.4858    5.7435   H         1 RES1   0.0000
   205 H111      4.8381   -4.0422    6.1795   H         1 RES1   0.0000
   206 H112      4.0423   -6.6944    4.8888   H         1 RES1   0.0000
   207 H113      5.6727   -6.1890    5.2990   H         1 RES1   0.0000
   208 H114      5.4540   -5.9164    2.9613   H         1 RES1   0.0000
   209 H115      5.4345   -4.2893    3.6178   H         1 RES1   0.0000
   210 H116      2.9377   -4.3011    3.4970   H         1 RES1   0.0000
   211 H117      2.9902   -5.9348    2.8557   H         1 RES1   0.0000
   212 H118      4.4061   -4.9663    0.9243   H         1 RES1   0.0000
   213 H119      3.8748   -3.3803    1.4484   H         1 RES1   0.0000
   214 H120      1.4904   -4.0830    1.2280   H         1 RES1   0.0000
   215 H121      2.0242   -5.7038    0.7954   H         1 RES1   0.0000
   216 H122      1.4276   -5.1605   -2.4071   H         1 RES1   0.0000
   217 H123      1.7768   -6.2501   -1.0963   H         1 RES1   0.0000
   218 H124      3.9909   -4.9416   -2.7134   H         1 RES1   0.0000
   219 H125      3.2171   -6.4655   -3.1290   H         1 RES1   0.0000
   220 H126      4.8369   -5.8946   -0.6163   H         1 RES1   0.0000
   221 H127      5.3256   -6.8333   -2.0142   H         1 RES1   0.0000
   222 H128      3.4274   -8.4285   -1.5534   H         1 RES1   0.0000
   223 H129      3.1422   -7.5859   -0.0251   H         1 RES1   0.0000
   224 H130      5.8155   -8.8332   -0.7806   H         1 RES1   0.0000
   225 H131      4.5670   -9.6570    0.1476   H         1 RES1   0.0000
   226 H132      6.0222   -7.1039    0.9746   H         1 RES1   0.0000
   227 H133      6.1896   -8.7017    1.6922   H         1 RES1   0.0000
   228 H134      4.6699   -7.8280    1.8670   H         1 RES1   0.0000
   229 H135      0.6337   -2.8313   -2.6650   H         1 RES1   0.0000
   230 H136      2.2689   -3.3444   -3.1138   H         1 RES1   0.0000
   231 H137      3.5647    0.5973   -4.8455   H         1 RES1   0.0000
   232 H138      2.3865    1.0725   -3.6023   H         1 RES1   0.0000
   233 H139      0.5475    0.8973   -5.0535   H         1 RES1   0.0000
   234 H140      1.4078   -0.1203   -6.1926   H         1 RES1   0.0000
   235 H141      1.0399    2.2269   -6.9862   H         1 RES1   0.0000
   236 H142      2.7035    1.6527   -7.0588   H         1 RES1   0.0000
   237 H143      2.7697    3.9023   -6.3243   H         1 RES1   0.0000
   238 H144      3.2205    2.9098   -4.9517   H         1 RES1   0.0000
   239 H145      0.9800    3.1972   -3.9652   H         1 RES1   0.0000
   240 H146      0.4367    4.0357   -5.4270   H         1 RES1   0.0000
   241 H147      2.6229    5.0360   -3.5495   H         1 RES1   0.0000
   242 H148      0.9714    5.6606   -3.6343   H         1 RES1   0.0000
   243 H149      2.0614    5.8617   -4.9974   H         1 RES1   0.0000
   244 H150      3.3903   -1.3634   -5.7994   H         1 RES1   0.0000
   245 H151      2.3614   -2.6533   -5.2068   H         1 RES1   0.0000
   246 H152      4.4856   -3.5297   -5.0177   H         1 RES1   0.0000
   247 H153      4.2028   -2.9863   -3.3582   H         1 RES1   0.0000
   248 H154      5.6476   -1.1106   -3.6159   H         1 RES1   0.0000
   249 H155      5.7573   -1.3302   -5.3651   H         1 RES1   0.0000
   250 H156      7.7722   -2.1124   -4.1996   H         1 RES1   0.0000
   251 H157      6.9874   -3.4111   -5.0891   H         1 RES1   0.0000
   252 H158      7.7932   -4.2035   -2.9507   H         1 RES1   0.0000
   253 H159      6.0504   -4.3386   -3.0057   H         1 RES1   0.0000
   254 H160      7.4610   -1.9724   -1.6900   H         1 RES1   0.0000
   255 H161      7.0586   -3.4437   -0.8156   H         1 RES1   0.0000
   256 H162      5.7748   -2.4468   -1.4882   H         1 RES1   0.0000
   257 C82       1.4616   -1.3046   -8.8406   C.3       1 RES1   0.0000
   258 C83      -0.0022   -1.7272   -8.9034   C.3       1 RES1   0.0000
   259 C84      -0.7754   -1.3957   -7.6240   C.3       1 RES1   0.0000
   260 C85      -0.3554   -2.3171   -6.4786   C.3       1 RES1   0.0000
   261 C86      -1.0661   -2.0475   -5.1453   C.3       1 RES1   0.0000
   262 C87      -1.1318   -3.3340   -4.3313   C.3       1 RES1   0.0000
   263 N7       -1.9506   -3.3097   -3.1096   N.am      1 RES1   0.0000
   264 C88      -2.5351   -4.6116   -2.7990   C.3       1 RES1   0.0000
   265 C89      -3.8455   -4.9744   -3.5054   C.3       1 RES1   0.0000
   266 C90      -3.7440   -5.3250   -4.9934   C.3       1 RES1   0.0000
   267 C91      -2.7472   -6.4508   -5.2796   C.3       1 RES1   0.0000
   268 C92      -2.6568   -6.8022   -6.7661   C.3       1 RES1   0.0000
   269 C93      -1.8941   -5.7592   -7.5766   C.3       1 RES1   0.0000
   270 C94      -1.9391   -2.3242   -2.1949   C.2       1 RES1   0.0000
   271 O7       -1.0857   -1.4319   -2.1712   O.2       1 RES1   0.0000
   272 C95      -3.0779   -2.3677   -1.1575   C.3       1 RES1   0.0000
   273 C96      -3.3566   -1.0176   -0.5060   C.2       1 RES1   0.0000
   274 O8       -2.4077   -0.2991   -0.1527   O.2       1 RES1   0.0000
   275 N8       -4.6203   -0.6591   -0.2745   N.am      1 RES1   0.0000
   276 C97      -4.8906    0.6535    0.3077   C.3       1 RES1   0.0000
   277 C98      -4.9661    0.6360    1.8394   C.3       1 RES1   0.0000
   278 C99      -5.9524    1.6687    2.3918   C.3       1 RES1   0.0000
   279 C100     -5.6474    3.1178    2.0153   C.3       1 RES1   0.0000
   280 C101     -4.2884    3.6105    2.5036   C.3       1 RES1   0.0000
   281 C102     -4.1516    5.1195    2.3316   C.3       1 RES1   0.0000
   282 C103     -5.7572   -1.5717   -0.3085   C.3       1 RES1   0.0000
   283 C104     -6.5632   -1.6244   -1.6094   C.3       1 RES1   0.0000
   284 C105     -7.3601   -0.3473   -1.8730   C.3       1 RES1   0.0000
   285 C106     -8.4959   -0.5340   -2.8846   C.3       1 RES1   0.0000
   286 C107     -8.0640   -0.5513   -4.3516   C.3       1 RES1   0.0000
   287 C108     -7.6610    0.8329   -4.8476   C.3       1 RES1   0.0000
   288 H163      1.9535   -1.5202   -9.7839   H         1 RES1   0.0000
   289 H164      1.9970   -1.8445   -8.0623   H         1 RES1   0.0000
   290 H165      1.5458   -0.2363   -8.6510   H         1 RES1   0.0000
   291 H166     -0.0625   -2.8022   -9.0877   H         1 RES1   0.0000
   292 H167     -0.4756   -1.2218   -9.7446   H         1 RES1   0.0000
   293 H168     -1.8449   -1.5155   -7.8116   H         1 RES1   0.0000
   294 H169     -0.6014   -0.3550   -7.3474   H         1 RES1   0.0000
   295 H170      0.7197   -2.2367   -6.3337   H         1 RES1   0.0000
   296 H171     -0.5565   -3.3394   -6.7979   H         1 RES1   0.0000
   297 H172     -2.0791   -1.7234   -5.3546   H         1 RES1   0.0000
   298 H173     -0.5603   -1.2622   -4.5836   H         1 RES1   0.0000
   299 H174     -0.1165   -3.6832   -4.1153   H         1 RES1   0.0000
   300 H175     -1.5942   -4.0860   -4.9648   H         1 RES1   0.0000
   301 H176     -2.6973   -4.6665   -1.7254   H         1 RES1   0.0000
   302 H177     -1.7806   -5.3673   -3.0287   H         1 RES1   0.0000
   303 H178     -4.5611   -4.1596   -3.3776   H         1 RES1   0.0000
   304 H179     -4.2442   -5.8488   -2.9853   H         1 RES1   0.0000
   305 H180     -3.5056   -4.4395   -5.5854   H         1 RES1   0.0000
   306 H181     -4.7349   -5.6612   -5.3056   H         1 RES1   0.0000
   307 H182     -3.0557   -7.3328   -4.7162   H         1 RES1   0.0000
   308 H183     -1.7424   -6.1844   -4.9382   H         1 RES1   0.0000
   309 H184     -3.6602   -6.9172   -7.1763   H         1 RES1   0.0000
   310 H185     -2.1461   -7.7613   -6.8648   H         1 RES1   0.0000
   311 H186     -2.4089   -4.8002   -7.5766   H         1 RES1   0.0000
   312 H187     -1.8026   -6.0878   -8.6076   H         1 RES1   0.0000
   313 H188     -0.8887   -5.6247   -7.1759   H         1 RES1   0.0000
   314 H189     -2.7755   -3.0303   -0.3367   H         1 RES1   0.0000
   315 H190     -3.9599   -2.7728   -1.6390   H         1 RES1   0.0000
   316 H191     -5.8503    0.9774   -0.0892   H         1 RES1   0.0000
   317 H192     -4.1108    1.3390   -0.0251   H         1 RES1   0.0000
   318 H193     -3.9846    0.8197    2.2731   H         1 RES1   0.0000
   319 H194     -5.2903   -0.3495    2.1787   H         1 RES1   0.0000
   320 H195     -5.9638    1.5830    3.4808   H         1 RES1   0.0000
   321 H196     -6.9543    1.4254    2.0344   H         1 RES1   0.0000
   322 H197     -6.4226    3.7421    2.4615   H         1 RES1   0.0000
   323 H198     -5.7107    3.2410    0.9344   H         1 RES1   0.0000
   324 H199     -3.4902    3.1097    1.9476   H         1 RES1   0.0000
   325 H200     -4.1795    3.3575    3.5606   H         1 RES1   0.0000
   326 H201     -4.2719    5.4054    1.2881   H         1 RES1   0.0000
   327 H202     -3.1783    5.4643    2.6727   H         1 RES1   0.0000
   328 H203     -4.9130    5.6327    2.9125   H         1 RES1   0.0000
   329 H204     -6.4291   -1.2576    0.4924   H         1 RES1   0.0000
   330 H205     -5.4013   -2.5701   -0.0631   H         1 RES1   0.0000
   331 H206     -7.2602   -2.4592   -1.5139   H         1 RES1   0.0000
   332 H207     -5.9077   -1.8352   -2.4504   H         1 RES1   0.0000
   333 H208     -6.6820    0.4355   -2.2172   H         1 RES1   0.0000
   334 H209     -7.8103   -0.0230   -0.9314   H         1 RES1   0.0000
   335 H210     -9.2068    0.2844   -2.7587   H         1 RES1   0.0000
   336 H211     -9.0195   -1.4619   -2.6463   H         1 RES1   0.0000
   337 H212     -8.9071   -0.8988   -4.9491   H         1 RES1   0.0000
   338 H213     -7.2481   -1.2599   -4.5027   H         1 RES1   0.0000
   339 H214     -8.4790    1.5348   -4.7065   H         1 RES1   0.0000
   340 H215     -7.4210    0.8017   -5.9074   H         1 RES1   0.0000
   341 H216     -6.7947    1.2096   -4.3061   H         1 RES1   0.0000
   342 O9       -1.3824    1.4340    1.5485   O.3       1 RES1   0.0000
   343 H217     -0.9033    1.4893    2.3838   H         1 RES1   0.0000
   344 H218     -2.0650    0.7522    1.6171   H         1 RES1   0.0000
@<TRIPOS>BOND
     1     1    16    1
     2     1    19    1
     3     1   101    1
     4     1   104    1
     5     1   186    1
     6     1   189    1
     7     1   271    1
     8     1   274    1
     9     1   342    1
    10     2     3    1
    11     2    33    1
    12     2    34    1
    13     2    35    1
    14     3     4    1
    15     3    36    1
    16     3    37    1
    17     4     5    1
    18     4    38    1
    19     4    39    1
    20     5     6    1
    21     5    40    1
    22     5    41    1
    23     6     7    1
    24     6    42    1
    25     6    43    1
    26     7     8    1
    27     7    44    1
    28     7    45    1
    29     8     9    1
    30     8    15    1
    31     9    10    1
    32     9    46    1
    33     9    47    1
    34    10    11    1
    35    10    48    1
    36    10    49    1
    37    11    12    1
    38    11    50    1
    39    11    51    1
    40    12    13    1
    41    12    52    1
    42    12    53    1
    43    13    14    1
    44    13    54    1
    45    13    55    1
    46    14    56    1
    47    14    57    1
    48    14    58    1
    49    15    16    2
    50    15    17    1
    51    17    18    1
    52    17    59    1
    53    17    60    1
    54    18    19    2
    55    18    20    1
    56    20    21    1
    57    20    27    1
    58    21    22    1
    59    21    61    1
    60    21    62    1
    61    22    23    1
    62    22    63    1
    63    22    64    1
    64    23    24    1
    65    23    65    1
    66    23    66    1
    67    24    25    1
    68    24    67    1
    69    24    68    1
    70    25    26    1
    71    25    69    1
    72    25    70    1
    73    26    71    1
    74    26    72    1
    75    26    73    1
    76    27    28    1
    77    27    74    1
    78    27    75    1
    79    28    29    1
    80    28    76    1
    81    28    77    1
    82    29    30    1
    83    29    78    1
    84    29    79    1
    85    30    31    1
    86    30    80    1
    87    30    81    1
    88    31    32    1
    89    31    82    1
    90    31    83    1
    91    32    84    1
    92    32    85    1
    93    32    86    1
    94    87    88    1
    95    87   118    1
    96    87   119    1
    97    87   120    1
    98    88    89    1
    99    88   121    1
   100    88   122    1
   101    89    90    1
   102    89   123    1
   103    89   124    1
   104    90    91    1
   105    90   125    1
   106    90   126    1
   107    91    92    1
   108    91   127    1
   109    91   128    1
   110    92    93    1
   111    92   129    1
   112    92   130    1
   113    93    94    1
   114    93   100    1
   115    94    95    1
   116    94   131    1
   117    94   132    1
   118    95    96    1
   119    95   133    1
   120    95   134    1
   121    96    97    1
   122    96   135    1
   123    96   136    1
   124    97    98    1
   125    97   137    1
   126    97   138    1
   127    98    99    1
   128    98   139    1
   129    98   140    1
   130    99   141    1
   131    99   142    1
   132    99   143    1
   133   100   101    2
   134   100   102    1
   135   102   103    1
   136   102   144    1
   137   102   145    1
   138   103   104    2
   139   103   105    1
   140   105   106    1
   141   105   112    1
   142   106   107    1
   143   106   146    1
   144   106   147    1
   145   107   108    1
   146   107   148    1
   147   107   149    1
   148   108   109    1
   149   108   150    1
   150   108   151    1
   151   109   110    1
   152   109   152    1
   153   109   153    1
   154   110   111    1
   155   110   154    1
   156   110   155    1
   157   111   156    1
   158   111   157    1
   159   111   158    1
   160   112   113    1
   161   112   159    1
   162   112   160    1
   163   113   114    1
   164   113   161    1
   165   113   162    1
   166   114   115    1
   167   114   163    1
   168   114   164    1
   169   115   116    1
   170   115   165    1
   171   115   166    1
   172   116   117    1
   173   116   167    1
   174   116   168    1
   175   117   169    1
   176   117   170    1
   177   117   171    1
   178   172   173    1
   179   172   203    1
   180   172   204    1
   181   172   205    1
   182   173   174    1
   183   173   206    1
   184   173   207    1
   185   174   175    1
   186   174   208    1
   187   174   209    1
   188   175   176    1
   189   175   210    1
   190   175   211    1
   191   176   177    1
   192   176   212    1
   193   176   213    1
   194   177   178    1
   195   177   214    1
   196   177   215    1
   197   178   179    1
   198   178   185    1
   199   179   180    1
   200   179   216    1
   201   179   217    1
   202   180   181    1
   203   180   218    1
   204   180   219    1
   205   181   182    1
   206   181   220    1
   207   181   221    1
   208   182   183    1
   209   182   222    1
   210   182   223    1
   211   183   184    1
   212   183   224    1
   213   183   225    1
   214   184   226    1
   215   184   227    1
   216   184   228    1
   217   185   186    2
   218   185   187    1
   219   187   188    1
   220   187   229    1
   221   187   230    1
   222   188   189    2
   223   188   190    1
   224   190   191    1
   225   190   197    1
   226   191   192    1
   227   191   231    1
   228   191   232    1
   229   192   193    1
   230   192   233    1
   231   192   234    1
   232   193   194    1
   233   193   235    1
   234   193   236    1
   235   194   195    1
   236   194   237    1
   237   194   238    1
   238   195   196    1
   239   195   239    1
   240   195   240    1
   241   196   241    1
   242   196   242    1
   243   196   243    1
   244   197   198    1
   245   197   244    1
   246   197   245    1
   247   198   199    1
   248   198   246    1
   249   198   247    1
   250   199   200    1
   251   199   248    1
   252   199   249    1
   253   200   201    1
   254   200   250    1
   255   200   251    1
   256   201   202    1
   257   201   252    1
   258   201   253    1
   259   202   254    1
   260   202   255    1
   261   202   256    1
   262   257   258    1
   263   257   288    1
   264   257   289    1
   265   257   290    1
   266   258   259    1
   267   258   291    1
   268   258   292    1
   269   259   260    1
   270   259   293    1
   271   259   294    1
   272   260   261    1
   273   260   295    1
   274   260   296    1
   275   261   262    1
   276   261   297    1
   277   261   298    1
   278   262   263    1
   279   262   299    1
   280   262   300    1
   281   263   264    1
   282   263   270    1
   283   264   265    1
   284   264   301    1
   285   264   302    1
   286   265   266    1
   287   265   303    1
   288   265   304    1
   289   266   267    1
   290   266   305    1
   291   266   306    1
   292   267   268    1
   293   267   307    1
   294   267   308    1
   295   268   269    1
   296   268   309    1
   297   268   310    1
   298   269   311    1
   299   269   312    1
   300   269   313    1
   301   270   271    2
   302   270   272    1
   303   272   273    1
   304   272   314    1
   305   272   315    1
   306   273   274    2
   307   273   275    1
   308   275   276    1
   309   275   282    1
   310   276   277    1
   311   276   316    1
   312   276   317    1
   313   277   278    1
   314   277   318    1
   315   277   319    1
   316   278   279    1
   317   278   320    1
   318   278   321    1
   319   279   280    1
   320   279   322    1
   321   279   323    1
   322   280   281    1
   323   280   324    1
   324   280   325    1
   325   281   326    1
   326   281   327    1
   327   281   328    1
   328   282   283    1
   329   282   329    1
   330   282   330    1
   331   283   284    1
   332   283   331    1
   333   283   332    1
   334   284   285    1
   335   284   333    1
   336   284   334    1
   337   285   286    1
   338   285   335    1
   339   285   336    1
   340   286   287    1
   341   286   337    1
   342   286   338    1
   343   287   339    1
   344   287   340    1
   345   287   341    1
   346   342   343    1
   347   342   344    1
@<TRIPOS>SUBSTRUCTURE
     1 RES1      344 GROUP             0 ****  ****    0  
