@<TRIPOS>MOLECULE
tri_tri_mer_capped_0_nunpairedes_0_charge_3 Charge: 3 Unpaired_Electrons: 3 XTB_Unpaired_Electrons: 0 XTB_Charge: 3
   340   345     1     0     0
SMALL
NoCharges
****
Generated from Architector

@<TRIPOS>ATOM
     1 Nd1       0.4358    0.1814    0.1197   Nd        1 RES1   0.0000
     2 C1        1.8376   -7.0662    1.3822   C.3       1 RES1   0.0000
     3 C2        0.4386   -7.1373    0.7801   C.3       1 RES1   0.0000
     4 C3        0.1287   -5.8741   -0.0217   C.3       1 RES1   0.0000
     5 C4       -1.3081   -5.7772   -0.5477   C.3       1 RES1   0.0000
     6 C5       -2.2531   -4.9714    0.3512   C.3       1 RES1   0.0000
     7 C6       -2.6000   -5.6854    1.6575   C.3       1 RES1   0.0000
     8 C7       -3.7575   -5.0496    2.4339   C.3       1 RES1   0.0000
     9 C8       -3.3618   -3.7796    3.1941   C.3       1 RES1   0.0000
    10 C9       -4.3144   -3.5179    4.3602   C.3       1 RES1   0.0000
    11 C10      -3.9691   -2.2860    5.1937   C.3       1 RES1   0.0000
    12 C11      -2.5914   -2.3718    5.8663   C.3       1 RES1   0.0000
    13 C12      -1.6191   -1.2447    5.4928   C.3       1 RES1   0.0000
    14 N1       -0.7454   -1.5009    4.3424   N.am      1 RES1   0.0000
    15 C13       0.2829   -2.5091    4.5948   C.3       1 RES1   0.0000
    16 C14       1.3844   -2.0257    5.5502   C.3       1 RES1   0.0000
    17 C15       1.8837   -3.0935    6.5395   C.3       1 RES1   0.0000
    18 C16       2.9864   -4.0398    6.0626   C.3       1 RES1   0.0000
    19 C17       2.6522   -4.9010    4.8383   C.3       1 RES1   0.0000
    20 C18       3.2694   -6.3057    4.9465   C.3       1 RES1   0.0000
    21 C19       2.2552   -7.3398    5.4434   C.3       1 RES1   0.0000
    22 C20       1.5568   -6.9485    6.7473   C.3       1 RES1   0.0000
    23 C21       0.2838   -7.7539    7.0379   C.3       1 RES1   0.0000
    24 C22      -1.0008   -7.0583    6.5766   C.3       1 RES1   0.0000
    25 C23      -1.2304   -6.9616    5.0667   C.3       1 RES1   0.0000
    26 C24      -1.3700   -8.3286    4.4027   C.3       1 RES1   0.0000
    27 C25      -0.7804   -0.8457    3.1969   C.2       1 RES1   0.0000
    28 O1        0.0830   -0.9590    2.2872   O.2       1 RES1   0.0000
    29 C26      -1.9292    0.1316    2.9585   C.3       1 RES1   0.0000
    30 O2       -1.8462    0.6159    1.6197   O.3       1 RES1   0.0000
    31 C27      -2.3429    1.9484    1.5095   C.3       1 RES1   0.0000
    32 C28      -1.2823    2.9409    2.0142   C.3       1 RES1   0.0000
    33 O3       -0.0166    2.4300    1.5931   O.3       1 RES1   0.0000
    34 C29       1.0597    2.9705    2.3497   C.3       1 RES1   0.0000
    35 C30       2.3161    2.3114    1.7870   C.2       1 RES1   0.0000
    36 O4        2.1584    1.2770    1.0939   O.2       1 RES1   0.0000
    37 N2        3.4889    2.8859    1.9765   N.am      1 RES1   0.0000
    38 C31       3.7068    3.8356    3.0620   C.3       1 RES1   0.0000
    39 C32       3.7595    3.0559    4.3938   C.3       1 RES1   0.0000
    40 C33       2.9298    3.5888    5.5735   C.3       1 RES1   0.0000
    41 C34       3.7919    4.2885    6.6282   C.3       1 RES1   0.0000
    42 C35       4.6256    5.4611    6.1088   C.3       1 RES1   0.0000
    43 C36       3.8293    6.6787    5.6372   C.3       1 RES1   0.0000
    44 C37       3.0669    7.3415    6.7826   C.3       1 RES1   0.0000
    45 C38       2.3303    8.6363    6.4066   C.3       1 RES1   0.0000
    46 C39       0.8277    8.4508    6.1779   C.3       1 RES1   0.0000
    47 C40       0.4159    7.7800    4.8660   C.3       1 RES1   0.0000
    48 C41       0.5406    8.6895    3.6357   C.3       1 RES1   0.0000
    49 C42       1.7987    8.4518    2.8085   C.3       1 RES1   0.0000
    50 C43       4.6161    2.4786    1.1421   C.3       1 RES1   0.0000
    51 C44       5.8117    1.9175    1.9091   C.3       1 RES1   0.0000
    52 C45       7.1540    2.5788    1.6159   C.3       1 RES1   0.0000
    53 C46       7.6531    2.3916    0.1781   C.3       1 RES1   0.0000
    54 C47       9.1716    2.5761    0.0397   C.3       1 RES1   0.0000
    55 C48       9.6558    4.0298   -0.0361   C.3       1 RES1   0.0000
    56 C49       9.0117    4.9012    1.0341   C.3       1 RES1   0.0000
    57 C50       9.5752    6.3040    1.2005   C.3       1 RES1   0.0000
    58 C51       8.9030    7.0212    2.3777   C.3       1 RES1   0.0000
    59 C52       7.3698    7.0692    2.3954   C.3       1 RES1   0.0000
    60 C53       6.6957    8.0714    1.4556   C.3       1 RES1   0.0000
    61 C54       6.8222    7.7814   -0.0385   C.3       1 RES1   0.0000
    62 H1        2.0783   -7.9893    1.8984   H         1 RES1   0.0000
    63 H2        1.9056   -6.2450    2.0942   H         1 RES1   0.0000
    64 H3        2.5844   -6.9136    0.6062   H         1 RES1   0.0000
    65 H4       -0.2910   -7.2675    1.5781   H         1 RES1   0.0000
    66 H5        0.3698   -8.0053    0.1225   H         1 RES1   0.0000
    67 H6        0.8210   -5.8623   -0.8686   H         1 RES1   0.0000
    68 H7        0.3374   -4.9990    0.6015   H         1 RES1   0.0000
    69 H8       -1.7125   -6.7805   -0.6828   H         1 RES1   0.0000
    70 H9       -1.2956   -5.3027   -1.5330   H         1 RES1   0.0000
    71 H10      -3.1819   -4.7986   -0.1997   H         1 RES1   0.0000
    72 H11      -1.8031   -3.9927    0.5639   H         1 RES1   0.0000
    73 H12      -1.7235   -5.7150    2.3077   H         1 RES1   0.0000
    74 H13      -2.8746   -6.7146    1.4189   H         1 RES1   0.0000
    75 H14      -4.1148   -5.7812    3.1594   H         1 RES1   0.0000
    76 H15      -4.5913   -4.8398    1.7598   H         1 RES1   0.0000
    77 H16      -3.3531   -2.9236    2.5122   H         1 RES1   0.0000
    78 H17      -2.3437   -3.9086    3.5701   H         1 RES1   0.0000
    79 H18      -4.3130   -4.3851    5.0218   H         1 RES1   0.0000
    80 H19      -5.3261   -3.4037    3.9728   H         1 RES1   0.0000
    81 H20      -4.7300   -2.1844    5.9667   H         1 RES1   0.0000
    82 H21      -4.0336   -1.3911    4.5713   H         1 RES1   0.0000
    83 H22      -2.1493   -3.3445    5.6612   H         1 RES1   0.0000
    84 H23      -2.7279   -2.3230    6.9460   H         1 RES1   0.0000
    85 H24      -0.9630   -1.0903    6.3520   H         1 RES1   0.0000
    86 H25      -2.1767   -0.3215    5.3413   H         1 RES1   0.0000
    87 H26       0.6965   -2.8084    3.6332   H         1 RES1   0.0000
    88 H27      -0.2254   -3.3653    5.0365   H         1 RES1   0.0000
    89 H28       1.0008   -1.2031    6.1549   H         1 RES1   0.0000
    90 H29       2.2120   -1.6344    4.9696   H         1 RES1   0.0000
    91 H30       1.0295   -3.6864    6.8788   H         1 RES1   0.0000
    92 H31       2.2752   -2.5787    7.4205   H         1 RES1   0.0000
    93 H32       3.1937   -4.7000    6.9013   H         1 RES1   0.0000
    94 H33       3.9059   -3.4788    5.8773   H         1 RES1   0.0000
    95 H34       3.0166   -4.4196    3.9255   H         1 RES1   0.0000
    96 H35       1.5711   -4.9970    4.7351   H         1 RES1   0.0000
    97 H36       4.1391   -6.2704    5.6064   H         1 RES1   0.0000
    98 H37       3.6276   -6.6312    3.9679   H         1 RES1   0.0000
    99 H38       2.7591   -8.2962    5.5866   H         1 RES1   0.0000
   100 H39       1.5096   -7.4767    4.6618   H         1 RES1   0.0000
   101 H40       1.2777   -5.8971    6.7199   H         1 RES1   0.0000
   102 H41       2.2613   -7.0730    7.5714   H         1 RES1   0.0000
   103 H42       0.1955   -7.8868    8.1179   H         1 RES1   0.0000
   104 H43       0.3583   -8.7483    6.5997   H         1 RES1   0.0000
   105 H44      -1.0133   -6.0480    6.9972   H         1 RES1   0.0000
   106 H45      -1.8490   -7.5929    7.0050   H         1 RES1   0.0000
   107 H46      -0.4233   -6.3982    4.5883   H         1 RES1   0.0000
   108 H47      -2.1578   -6.4016    4.9052   H         1 RES1   0.0000
   109 H48      -0.4197   -8.8569    4.3767   H         1 RES1   0.0000
   110 H49      -1.7328   -8.2315    3.3796   H         1 RES1   0.0000
   111 H50      -2.0809   -8.9407    4.9528   H         1 RES1   0.0000
   112 H51      -1.8294    0.9623    3.6661   H         1 RES1   0.0000
   113 H52      -2.9038   -0.3560    3.1107   H         1 RES1   0.0000
   114 H53      -3.2819    2.0400    2.0673   H         1 RES1   0.0000
   115 H54      -2.5412    2.1227    0.4518   H         1 RES1   0.0000
   116 H55      -1.2962    3.0151    3.1104   H         1 RES1   0.0000
   117 H56      -1.4711    3.9392    1.5932   H         1 RES1   0.0000
   118 H57       0.9352    2.7551    3.4273   H         1 RES1   0.0000
   119 H58       1.1062    4.0609    2.2126   H         1 RES1   0.0000
   120 H59       2.9226    4.5975    3.0645   H         1 RES1   0.0000
   121 H60       4.6476    4.3563    2.8709   H         1 RES1   0.0000
   122 H61       4.7919    2.9936    4.7272   H         1 RES1   0.0000
   123 H62       3.4311    2.0389    4.1684   H         1 RES1   0.0000
   124 H63       2.4472    2.7372    6.0667   H         1 RES1   0.0000
   125 H64       2.1355    4.2532    5.2269   H         1 RES1   0.0000
   126 H65       4.4776    3.5511    7.0524   H         1 RES1   0.0000
   127 H66       3.1434    4.6239    7.4344   H         1 RES1   0.0000
   128 H67       5.2670    5.1180    5.2945   H         1 RES1   0.0000
   129 H68       5.2833    5.7827    6.9175   H         1 RES1   0.0000
   130 H69       3.1481    6.4000    4.8315   H         1 RES1   0.0000
   131 H70       4.5407    7.3982    5.2232   H         1 RES1   0.0000
   132 H71       3.7846    7.5630    7.5724   H         1 RES1   0.0000
   133 H72       2.3420    6.6388    7.1935   H         1 RES1   0.0000
   134 H73       2.7905    9.0989    5.5339   H         1 RES1   0.0000
   135 H74       2.4389    9.3448    7.2309   H         1 RES1   0.0000
   136 H75       0.3439    9.4280    6.2228   H         1 RES1   0.0000
   137 H76       0.4300    7.8637    7.0091   H         1 RES1   0.0000
   138 H77      -0.6295    7.4791    4.9737   H         1 RES1   0.0000
   139 H78       0.9973    6.8680    4.7150   H         1 RES1   0.0000
   140 H79       0.5282    9.7309    3.9552   H         1 RES1   0.0000
   141 H80      -0.3305    8.5477    2.9924   H         1 RES1   0.0000
   142 H81       2.6909    8.6699    3.3890   H         1 RES1   0.0000
   143 H82       1.7956    9.0966    1.9319   H         1 RES1   0.0000
   144 H83       1.8555    7.4156    2.4686   H         1 RES1   0.0000
   145 H84       4.9180    3.3586    0.5762   H         1 RES1   0.0000
   146 H85       4.2256    1.7337    0.4478   H         1 RES1   0.0000
   147 H86       5.9068    0.8644    1.6627   H         1 RES1   0.0000
   148 H87       5.6239    2.0085    2.9775   H         1 RES1   0.0000
   149 H88       7.8889    2.1216    2.2832   H         1 RES1   0.0000
   150 H89       7.0864    3.6300    1.8825   H         1 RES1   0.0000
   151 H90       7.1476    3.0718   -0.5110   H         1 RES1   0.0000
   152 H91       7.4194    1.3695   -0.1316   H         1 RES1   0.0000
   153 H92       9.5015    2.0653   -0.8666   H         1 RES1   0.0000
   154 H93       9.6584    2.0794    0.8795   H         1 RES1   0.0000
   155 H94       9.4286    4.4411   -1.0208   H         1 RES1   0.0000
   156 H95      10.7407    4.0377    0.0829   H         1 RES1   0.0000
   157 H96       9.1054    4.3938    1.9955   H         1 RES1   0.0000
   158 H97       7.9584    4.9995    0.7741   H         1 RES1   0.0000
   159 H98       9.4549    6.8637    0.2758   H         1 RES1   0.0000
   160 H99      10.6441    6.2442    1.4100   H         1 RES1   0.0000
   161 H100      9.2824    8.0404    2.4359   H         1 RES1   0.0000
   162 H101      9.2123    6.5099    3.2932   H         1 RES1   0.0000
   163 H102      7.0756    7.3455    3.4114   H         1 RES1   0.0000
   164 H103      6.9569    6.0736    2.2151   H         1 RES1   0.0000
   165 H104      7.0986    9.0653    1.6514   H         1 RES1   0.0000
   166 H105      5.6305    8.0932    1.7108   H         1 RES1   0.0000
   167 H106      7.8399    7.9366   -0.3872   H         1 RES1   0.0000
   168 H107      6.1774    8.4586   -0.5993   H         1 RES1   0.0000
   169 H108      6.5281    6.7549   -0.2699   H         1 RES1   0.0000
   170 C55      -1.5377    8.0343    0.0949   C.3       1 RES1   0.0000
   171 C56      -2.8205    7.3321   -0.3317   C.3       1 RES1   0.0000
   172 C57      -2.7516    5.8351   -0.0235   C.3       1 RES1   0.0000
   173 C58      -3.9030    5.0077   -0.6116   C.3       1 RES1   0.0000
   174 C59      -3.5418    4.2999   -1.9219   C.3       1 RES1   0.0000
   175 C60      -3.3152    5.2630   -3.0877   C.3       1 RES1   0.0000
   176 C61      -3.1749    4.5664   -4.4430   C.3       1 RES1   0.0000
   177 C62      -1.9362    3.6733   -4.5195   C.3       1 RES1   0.0000
   178 C63      -1.5665    3.2822   -5.9510   C.3       1 RES1   0.0000
   179 C64      -0.3690    2.3304   -5.9830   C.3       1 RES1   0.0000
   180 C65       0.9730    3.0382   -5.7581   C.3       1 RES1   0.0000
   181 C66       1.9863    2.1796   -4.9855   C.3       1 RES1   0.0000
   182 N3        1.7220    2.2496   -3.5570   N.am      1 RES1   0.0000
   183 C67       2.1364    3.4828   -2.9004   C.3       1 RES1   0.0000
   184 C68       3.5036    3.2808   -2.2431   C.3       1 RES1   0.0000
   185 C69       4.0186    4.5593   -1.5792   C.3       1 RES1   0.0000
   186 C70       3.1177    5.0593   -0.4367   C.3       1 RES1   0.0000
   187 C71       2.2547    6.2605   -0.8304   C.3       1 RES1   0.0000
   188 C72       3.0935    7.5237   -1.0742   C.3       1 RES1   0.0000
   189 C73       2.5203    8.3869   -2.1982   C.3       1 RES1   0.0000
   190 C74       2.7766    7.7678   -3.5737   C.3       1 RES1   0.0000
   191 C75       2.0502    8.4860   -4.7207   C.3       1 RES1   0.0000
   192 C76       0.8923    7.6760   -5.3097   C.3       1 RES1   0.0000
   193 C77      -0.3019    7.4575   -4.3779   C.3       1 RES1   0.0000
   194 C78      -1.0352    8.7508   -4.0444   C.3       1 RES1   0.0000
   195 C79       1.1635    1.3325   -2.7961   C.2       1 RES1   0.0000
   196 O5        0.8521    1.5732   -1.6000   O.2       1 RES1   0.0000
   197 C80       0.9146   -0.0797   -3.3359   C.3       1 RES1   0.0000
   198 O6        0.0453   -0.7283   -2.4139   O.3       1 RES1   0.0000
   199 C81      -0.0315   -2.1432   -2.5833   C.3       1 RES1   0.0000
   200 C82       1.0055   -2.8175   -1.6884   C.3       1 RES1   0.0000
   201 O7        0.7965   -2.3035   -0.3561   O.3       1 RES1   0.0000
   202 C83       1.9260   -2.5388    0.4790   C.3       1 RES1   0.0000
   203 C84       3.0272   -1.5176    0.1024   C.2       1 RES1   0.0000
   204 O8        2.6672   -0.6027   -0.6753   O.2       1 RES1   0.0000
   205 N4        4.2515   -1.7351    0.5582   N.am      1 RES1   0.0000
   206 C85       5.5209   -1.3061   -0.0473   C.3       1 RES1   0.0000
   207 C86       5.4671   -0.6996   -1.4498   C.3       1 RES1   0.0000
   208 C87       6.4231   -1.3752   -2.4462   C.3       1 RES1   0.0000
   209 C88       7.9221   -1.1067   -2.2747   C.3       1 RES1   0.0000
   210 C89       8.6398   -1.7090   -1.0635   C.3       1 RES1   0.0000
   211 C90       8.5050   -3.2238   -0.8582   C.3       1 RES1   0.0000
   212 C91       8.8567   -4.0820   -2.0733   C.3       1 RES1   0.0000
   213 C92       8.5969   -5.5776   -1.8240   C.3       1 RES1   0.0000
   214 C93       7.3392   -6.1190   -2.5114   C.3       1 RES1   0.0000
   215 C94       5.9768   -5.6378   -1.9968   C.3       1 RES1   0.0000
   216 C95       5.4328   -6.3948   -0.7800   C.3       1 RES1   0.0000
   217 C96       5.8780   -5.8315    0.5644   C.3       1 RES1   0.0000
   218 C97       4.4149   -2.5267    1.7704   C.3       1 RES1   0.0000
   219 C98       3.8582   -1.8344    3.0232   C.3       1 RES1   0.0000
   220 C99       4.8875   -0.9307    3.7036   C.3       1 RES1   0.0000
   221 C100      4.4842   -0.4652    5.1009   C.3       1 RES1   0.0000
   222 C101      5.5270    0.4348    5.7728   C.3       1 RES1   0.0000
   223 C102      6.7364   -0.3338    6.3158   C.3       1 RES1   0.0000
   224 C103      7.9525   -0.3002    5.3833   C.3       1 RES1   0.0000
   225 C104      9.0171   -1.3507    5.7434   C.3       1 RES1   0.0000
   226 C105      9.1257   -2.4816    4.7173   C.3       1 RES1   0.0000
   227 C106      7.8441   -3.3063    4.5219   C.3       1 RES1   0.0000
   228 C107      7.7695   -4.5976    5.3405   C.3       1 RES1   0.0000
   229 C108      7.6353   -4.3825    6.8414   C.3       1 RES1   0.0000
   230 H109     -1.6006    9.1004   -0.0951   H         1 RES1   0.0000
   231 H110     -0.6856    7.6381   -0.4532   H         1 RES1   0.0000
   232 H111     -1.3595    7.8905    1.1581   H         1 RES1   0.0000
   233 H112     -2.9816    7.4905   -1.3976   H         1 RES1   0.0000
   234 H113     -3.6677    7.7702    0.1990   H         1 RES1   0.0000
   235 H114     -2.7510    5.7265    1.0647   H         1 RES1   0.0000
   236 H115     -1.8012    5.4433   -0.3992   H         1 RES1   0.0000
   237 H116     -4.7656    5.6522   -0.7789   H         1 RES1   0.0000
   238 H117     -4.2090    4.2469    0.1137   H         1 RES1   0.0000
   239 H118     -4.3544    3.6174   -2.1851   H         1 RES1   0.0000
   240 H119     -2.6350    3.7016   -1.7562   H         1 RES1   0.0000
   241 H120     -2.4152    5.8507   -2.9033   H         1 RES1   0.0000
   242 H121     -4.1612    5.9508   -3.1395   H         1 RES1   0.0000
   243 H122     -3.1037    5.3332   -5.2141   H         1 RES1   0.0000
   244 H123     -4.0692    3.9792   -4.6589   H         1 RES1   0.0000
   245 H124     -2.1166    2.7588   -3.9443   H         1 RES1   0.0000
   246 H125     -1.0983    4.1970   -4.0525   H         1 RES1   0.0000
   247 H126     -1.3432    4.1738   -6.5366   H         1 RES1   0.0000
   248 H127     -2.4248    2.7934   -6.4137   H         1 RES1   0.0000
   249 H128     -0.3430    1.8192   -6.9435   H         1 RES1   0.0000
   250 H129     -0.5287    1.5774   -5.2101   H         1 RES1   0.0000
   251 H130      0.8077    3.9680   -5.2132   H         1 RES1   0.0000
   252 H131      1.4078    3.3043   -6.7209   H         1 RES1   0.0000
   253 H132      2.9966    2.5600   -5.1492   H         1 RES1   0.0000
   254 H133      1.9476    1.1488   -5.3346   H         1 RES1   0.0000
   255 H134      1.3908    3.7276   -2.1412   H         1 RES1   0.0000
   256 H135      2.1866    4.2771   -3.6411   H         1 RES1   0.0000
   257 H136      4.2247    2.9607   -3.0008   H         1 RES1   0.0000
   258 H137      3.4209    2.4759   -1.5052   H         1 RES1   0.0000
   259 H138      4.1084    5.3373   -2.3361   H         1 RES1   0.0000
   260 H139      5.0300    4.3648   -1.2157   H         1 RES1   0.0000
   261 H140      3.7303    5.3626    0.4160   H         1 RES1   0.0000
   262 H141      2.4695    4.2370   -0.1130   H         1 RES1   0.0000
   263 H142      1.5353    6.4559   -0.0308   H         1 RES1   0.0000
   264 H143      1.6794    6.0163   -1.7241   H         1 RES1   0.0000
   265 H144      4.1169    7.2536   -1.3357   H         1 RES1   0.0000
   266 H145      3.1431    8.1040   -0.1537   H         1 RES1   0.0000
   267 H146      2.9848    9.3733   -2.1622   H         1 RES1   0.0000
   268 H147      1.4478    8.5191   -2.0415   H         1 RES1   0.0000
   269 H148      2.4594    6.7217   -3.5664   H         1 RES1   0.0000
   270 H149      3.8521    7.7751   -3.7605   H         1 RES1   0.0000
   271 H150      2.7535    8.6781   -5.5320   H         1 RES1   0.0000
   272 H151      1.6864    9.4548   -4.3816   H         1 RES1   0.0000
   273 H152      1.2770    6.7009   -5.6303   H         1 RES1   0.0000
   274 H153      0.5320    8.1873   -6.2040   H         1 RES1   0.0000
   275 H154      0.0225    6.9699   -3.4535   H         1 RES1   0.0000
   276 H155     -0.9976    6.7809   -4.8826   H         1 RES1   0.0000
   277 H156     -0.4195    9.4086   -3.4380   H         1 RES1   0.0000
   278 H157     -1.9518    8.5439   -3.4968   H         1 RES1   0.0000
   279 H158     -1.3003    9.2792   -4.9556   H         1 RES1   0.0000
   280 H159      1.8881   -0.5909   -3.3794   H         1 RES1   0.0000
   281 H160      0.4606   -0.0836   -4.3337   H         1 RES1   0.0000
   282 H161      0.1027   -2.4265   -3.6344   H         1 RES1   0.0000
   283 H162     -1.0344   -2.4303   -2.2507   H         1 RES1   0.0000
   284 H163      2.0206   -2.5788   -2.0326   H         1 RES1   0.0000
   285 H164      0.8647   -3.9022   -1.6931   H         1 RES1   0.0000
   286 H165      2.2852   -3.5658    0.3391   H         1 RES1   0.0000
   287 H166      1.5837   -2.4040    1.5102   H         1 RES1   0.0000
   288 H167      6.1187   -2.2213   -0.1011   H         1 RES1   0.0000
   289 H168      6.0234   -0.6315    0.6471   H         1 RES1   0.0000
   290 H169      5.6795    0.3706   -1.4138   H         1 RES1   0.0000
   291 H170      4.4610   -0.8027   -1.8515   H         1 RES1   0.0000
   292 H171      6.1585   -0.9967   -3.4382   H         1 RES1   0.0000
   293 H172      6.2349   -2.4523   -2.4559   H         1 RES1   0.0000
   294 H173      8.0836   -0.0262   -2.2548   H         1 RES1   0.0000
   295 H174      8.4076   -1.4823   -3.1749   H         1 RES1   0.0000
   296 H175      8.3123   -1.2051   -0.1497   H         1 RES1   0.0000
   297 H176      9.6986   -1.4753   -1.1902   H         1 RES1   0.0000
   298 H177      7.4909   -3.4767   -0.5367   H         1 RES1   0.0000
   299 H178      9.1706   -3.5020   -0.0354   H         1 RES1   0.0000
   300 H179      9.9097   -3.9314   -2.3171   H         1 RES1   0.0000
   301 H180      8.2748   -3.7647   -2.9393   H         1 RES1   0.0000
   302 H181      8.5614   -5.7750   -0.7532   H         1 RES1   0.0000
   303 H182      9.4333   -6.1521   -2.2226   H         1 RES1   0.0000
   304 H183      7.3547   -7.2089   -2.4541   H         1 RES1   0.0000
   305 H184      7.4076   -5.8594   -3.5707   H         1 RES1   0.0000
   306 H185      5.2644   -5.7745   -2.8153   H         1 RES1   0.0000
   307 H186      6.0103   -4.5680   -1.7796   H         1 RES1   0.0000
   308 H187      5.7342   -7.4397   -0.8404   H         1 RES1   0.0000
   309 H188      4.3391   -6.3752   -0.8192   H         1 RES1   0.0000
   310 H189      6.9517   -5.9301    0.6923   H         1 RES1   0.0000
   311 H190      5.3924   -6.3644    1.3806   H         1 RES1   0.0000
   312 H191      5.6184   -4.7753    0.6422   H         1 RES1   0.0000
   313 H192      5.4802   -2.6943    1.9142   H         1 RES1   0.0000
   314 H193      3.9508   -3.5071    1.6509   H         1 RES1   0.0000
   315 H194      2.9635   -1.2507    2.7714   H         1 RES1   0.0000
   316 H195      3.5898   -2.6199    3.7242   H         1 RES1   0.0000
   317 H196      5.0581   -0.0618    3.0838   H         1 RES1   0.0000
   318 H197      5.8233   -1.4817    3.7772   H         1 RES1   0.0000
   319 H198      4.3307   -1.3354    5.7437   H         1 RES1   0.0000
   320 H199      3.5341    0.0743    5.0353   H         1 RES1   0.0000
   321 H200      5.0267    0.9506    6.5933   H         1 RES1   0.0000
   322 H201      5.8756    1.1928    5.0744   H         1 RES1   0.0000
   323 H202      6.4414   -1.3668    6.5084   H         1 RES1   0.0000
   324 H203      7.0359    0.0957    7.2743   H         1 RES1   0.0000
   325 H204      8.3920    0.6956    5.4354   H         1 RES1   0.0000
   326 H205      7.6368   -0.4478    4.3484   H         1 RES1   0.0000
   327 H206      8.8035   -1.7574    6.7293   H         1 RES1   0.0000
   328 H207      9.9955   -0.8732    5.7998   H         1 RES1   0.0000
   329 H208      9.9313   -3.1517    5.0173   H         1 RES1   0.0000
   330 H209      9.4160   -2.0435    3.7565   H         1 RES1   0.0000
   331 H210      7.7676   -3.5845    3.4641   H         1 RES1   0.0000
   332 H211      6.9746   -2.6963    4.7699   H         1 RES1   0.0000
   333 H212      8.6607   -5.1936    5.1425   H         1 RES1   0.0000
   334 H213      6.9075   -5.1715    4.9864   H         1 RES1   0.0000
   335 H214      8.5171   -3.8981    7.2473   H         1 RES1   0.0000
   336 H215      7.5188   -5.3399    7.3395   H         1 RES1   0.0000
   337 H216      6.7645   -3.7727    7.0755   H         1 RES1   0.0000
   338 O9       -1.8169    0.6511   -1.1493   O.3       1 RES1   0.0000
   339 H217     -2.5285    0.0328   -1.3686   H         1 RES1   0.0000
   340 H218     -1.8319    1.3277   -1.8449   H         1 RES1   0.0000
@<TRIPOS>BOND
     1     1    28    1
     2     1    30    1
     3     1    33    1
     4     1    36    1
     5     1   196    1
     6     1   198    1
     7     1   201    1
     8     1   204    1
     9     1   338    1
    10     2     3    1
    11     2    62    1
    12     2    63    1
    13     2    64    1
    14     3     4    1
    15     3    65    1
    16     3    66    1
    17     4     5    1
    18     4    67    1
    19     4    68    1
    20     5     6    1
    21     5    69    1
    22     5    70    1
    23     6     7    1
    24     6    71    1
    25     6    72    1
    26     7     8    1
    27     7    73    1
    28     7    74    1
    29     8     9    1
    30     8    75    1
    31     8    76    1
    32     9    10    1
    33     9    77    1
    34     9    78    1
    35    10    11    1
    36    10    79    1
    37    10    80    1
    38    11    12    1
    39    11    81    1
    40    11    82    1
    41    12    13    1
    42    12    83    1
    43    12    84    1
    44    13    14    1
    45    13    85    1
    46    13    86    1
    47    14    15    1
    48    14    27    1
    49    15    16    1
    50    15    87    1
    51    15    88    1
    52    16    17    1
    53    16    89    1
    54    16    90    1
    55    17    18    1
    56    17    91    1
    57    17    92    1
    58    18    19    1
    59    18    93    1
    60    18    94    1
    61    19    20    1
    62    19    95    1
    63    19    96    1
    64    20    21    1
    65    20    97    1
    66    20    98    1
    67    21    22    1
    68    21    99    1
    69    21   100    1
    70    22    23    1
    71    22   101    1
    72    22   102    1
    73    23    24    1
    74    23   103    1
    75    23   104    1
    76    24    25    1
    77    24   105    1
    78    24   106    1
    79    25    26    1
    80    25   107    1
    81    25   108    1
    82    26   109    1
    83    26   110    1
    84    26   111    1
    85    27    28    2
    86    27    29    1
    87    29    30    1
    88    29   112    1
    89    29   113    1
    90    30    31    1
    91    31    32    1
    92    31   114    1
    93    31   115    1
    94    32    33    1
    95    32   116    1
    96    32   117    1
    97    33    34    1
    98    34    35    1
    99    34   118    1
   100    34   119    1
   101    35    36    2
   102    35    37    1
   103    37    38    1
   104    37    50    1
   105    38    39    1
   106    38   120    1
   107    38   121    1
   108    39    40    1
   109    39   122    1
   110    39   123    1
   111    40    41    1
   112    40   124    1
   113    40   125    1
   114    41    42    1
   115    41   126    1
   116    41   127    1
   117    42    43    1
   118    42   128    1
   119    42   129    1
   120    43    44    1
   121    43   130    1
   122    43   131    1
   123    44    45    1
   124    44   132    1
   125    44   133    1
   126    45    46    1
   127    45   134    1
   128    45   135    1
   129    46    47    1
   130    46   136    1
   131    46   137    1
   132    47    48    1
   133    47   138    1
   134    47   139    1
   135    48    49    1
   136    48   140    1
   137    48   141    1
   138    49   142    1
   139    49   143    1
   140    49   144    1
   141    50    51    1
   142    50   145    1
   143    50   146    1
   144    51    52    1
   145    51   147    1
   146    51   148    1
   147    52    53    1
   148    52   149    1
   149    52   150    1
   150    53    54    1
   151    53   151    1
   152    53   152    1
   153    54    55    1
   154    54   153    1
   155    54   154    1
   156    55    56    1
   157    55   155    1
   158    55   156    1
   159    56    57    1
   160    56   157    1
   161    56   158    1
   162    57    58    1
   163    57   159    1
   164    57   160    1
   165    58    59    1
   166    58   161    1
   167    58   162    1
   168    59    60    1
   169    59   163    1
   170    59   164    1
   171    60    61    1
   172    60   165    1
   173    60   166    1
   174    61   167    1
   175    61   168    1
   176    61   169    1
   177   170   171    1
   178   170   230    1
   179   170   231    1
   180   170   232    1
   181   171   172    1
   182   171   233    1
   183   171   234    1
   184   172   173    1
   185   172   235    1
   186   172   236    1
   187   173   174    1
   188   173   237    1
   189   173   238    1
   190   174   175    1
   191   174   239    1
   192   174   240    1
   193   175   176    1
   194   175   241    1
   195   175   242    1
   196   176   177    1
   197   176   243    1
   198   176   244    1
   199   177   178    1
   200   177   245    1
   201   177   246    1
   202   178   179    1
   203   178   247    1
   204   178   248    1
   205   179   180    1
   206   179   249    1
   207   179   250    1
   208   180   181    1
   209   180   251    1
   210   180   252    1
   211   181   182    1
   212   181   253    1
   213   181   254    1
   214   182   183    1
   215   182   195    1
   216   183   184    1
   217   183   255    1
   218   183   256    1
   219   184   185    1
   220   184   257    1
   221   184   258    1
   222   185   186    1
   223   185   259    1
   224   185   260    1
   225   186   187    1
   226   186   261    1
   227   186   262    1
   228   187   188    1
   229   187   263    1
   230   187   264    1
   231   188   189    1
   232   188   265    1
   233   188   266    1
   234   189   190    1
   235   189   267    1
   236   189   268    1
   237   190   191    1
   238   190   269    1
   239   190   270    1
   240   191   192    1
   241   191   271    1
   242   191   272    1
   243   192   193    1
   244   192   273    1
   245   192   274    1
   246   193   194    1
   247   193   275    1
   248   193   276    1
   249   194   277    1
   250   194   278    1
   251   194   279    1
   252   195   196    2
   253   195   197    1
   254   197   198    1
   255   197   280    1
   256   197   281    1
   257   198   199    1
   258   199   200    1
   259   199   282    1
   260   199   283    1
   261   200   201    1
   262   200   284    1
   263   200   285    1
   264   201   202    1
   265   202   203    1
   266   202   286    1
   267   202   287    1
   268   203   204    2
   269   203   205    1
   270   205   206    1
   271   205   218    1
   272   206   207    1
   273   206   288    1
   274   206   289    1
   275   207   208    1
   276   207   290    1
   277   207   291    1
   278   208   209    1
   279   208   292    1
   280   208   293    1
   281   209   210    1
   282   209   294    1
   283   209   295    1
   284   210   211    1
   285   210   296    1
   286   210   297    1
   287   211   212    1
   288   211   298    1
   289   211   299    1
   290   212   213    1
   291   212   300    1
   292   212   301    1
   293   213   214    1
   294   213   302    1
   295   213   303    1
   296   214   215    1
   297   214   304    1
   298   214   305    1
   299   215   216    1
   300   215   306    1
   301   215   307    1
   302   216   217    1
   303   216   308    1
   304   216   309    1
   305   217   310    1
   306   217   311    1
   307   217   312    1
   308   218   219    1
   309   218   313    1
   310   218   314    1
   311   219   220    1
   312   219   315    1
   313   219   316    1
   314   220   221    1
   315   220   317    1
   316   220   318    1
   317   221   222    1
   318   221   319    1
   319   221   320    1
   320   222   223    1
   321   222   321    1
   322   222   322    1
   323   223   224    1
   324   223   323    1
   325   223   324    1
   326   224   225    1
   327   224   325    1
   328   224   326    1
   329   225   226    1
   330   225   327    1
   331   225   328    1
   332   226   227    1
   333   226   329    1
   334   226   330    1
   335   227   228    1
   336   227   331    1
   337   227   332    1
   338   228   229    1
   339   228   333    1
   340   228   334    1
   341   229   335    1
   342   229   336    1
   343   229   337    1
   344   338   339    1
   345   338   340    1
@<TRIPOS>SUBSTRUCTURE
     1 RES1      340 GROUP             0 ****  ****    0  
