@<TRIPOS>MOLECULE
capped_square_antiprismatic_0_nunpairedes_0_charge_3 Charge: 3 Unpaired_Electrons: 3 XTB_Unpaired_Electrons: 0 XTB_Charge: 3
   284   291     1     0     0
SMALL
NoCharges
****
Generated from Architector

@<TRIPOS>ATOM
     1 Nd1      -0.1174    0.1396   -0.1716   Nd        1 RES1   0.0000
     2 C1       -2.5071   -3.4066   -5.6501   C.3       1 RES1   0.0000
     3 C2       -2.4288   -2.8074   -4.2534   C.3       1 RES1   0.0000
     4 C3       -3.5902   -3.1702   -3.3306   C.3       1 RES1   0.0000
     5 C4       -4.9685   -2.5775   -3.6222   C.3       1 RES1   0.0000
     6 C5       -5.1932   -1.0957   -3.2607   C.3       1 RES1   0.0000
     7 C6       -4.5457   -0.1140   -4.2442   C.3       1 RES1   0.0000
     8 C7       -4.8976   -0.3770   -5.7056   C.3       1 RES1   0.0000
     9 C8       -4.8556   -0.8062   -1.7700   C.3       1 RES1   0.0000
    10 P1       -3.6240    0.4958   -1.3426   P.3       1 RES1   0.0000
    11 O1       -2.2003    0.1059   -1.5824   O.2       1 RES1   0.0000
    12 C9       -3.8643    0.6729    0.4969   C.3       1 RES1   0.0000
    13 C10      -2.9786    1.6793    1.1895   C.2       1 RES1   0.0000
    14 O2       -1.7470    1.6133    1.0197   O.2       1 RES1   0.0000
    15 N1       -3.5238    2.5387    2.0673   N.am      1 RES1   0.0000
    16 C11      -4.9422    2.8260    2.1959   C.3       1 RES1   0.0000
    17 C12      -5.7994    1.9927    3.1900   C.3       1 RES1   0.0000
    18 C13      -5.5500    0.4827    3.1875   C.3       1 RES1   0.0000
    19 C14      -5.6875    2.4981    4.6319   C.3       1 RES1   0.0000
    20 C15      -2.6785    3.0736    3.1342   C.3       1 RES1   0.0000
    21 C16      -2.4634    4.5908    3.3169   C.3       1 RES1   0.0000
    22 C17      -1.4939    5.1760    2.2868   C.3       1 RES1   0.0000
    23 C18      -1.8921    4.8309    4.7217   C.3       1 RES1   0.0000
    24 C19      -4.2994    2.0268   -2.0591   C.ar      1 RES1   0.0000
    25 C20      -5.5767    2.4093   -1.6662   C.ar      1 RES1   0.0000
    26 C21      -6.2422    3.4321   -2.3194   C.ar      1 RES1   0.0000
    27 C22      -5.6310    4.0635   -3.3888   C.ar      1 RES1   0.0000
    28 C23      -4.3551    3.6979   -3.7868   C.ar      1 RES1   0.0000
    29 C24      -3.6878    2.6867   -3.1189   C.ar      1 RES1   0.0000
    30 H1       -1.6283   -3.1204   -6.2230   H         1 RES1   0.0000
    31 H2       -3.3894   -3.0738   -6.1883   H         1 RES1   0.0000
    32 H3       -2.5342   -4.4921   -5.5908   H         1 RES1   0.0000
    33 H4       -2.3100   -1.7262   -4.2931   H         1 RES1   0.0000
    34 H5       -1.5340   -3.2030   -3.7697   H         1 RES1   0.0000
    35 H6       -3.2833   -2.8726   -2.3291   H         1 RES1   0.0000
    36 H7       -3.6957   -4.2577   -3.3378   H         1 RES1   0.0000
    37 H8       -5.7016   -3.1606   -3.0575   H         1 RES1   0.0000
    38 H9       -5.2162   -2.7167   -4.6731   H         1 RES1   0.0000
    39 H10      -6.2720   -0.9377   -3.3697   H         1 RES1   0.0000
    40 H11      -3.4628   -0.1056   -4.1060   H         1 RES1   0.0000
    41 H12      -4.9257    0.8788   -4.0096   H         1 RES1   0.0000
    42 H13      -4.4233   -1.2710   -6.0928   H         1 RES1   0.0000
    43 H14      -4.5703    0.4606   -6.3159   H         1 RES1   0.0000
    44 H15      -5.9737   -0.4810   -5.8197   H         1 RES1   0.0000
    45 H16      -4.4953   -1.7209   -1.2998   H         1 RES1   0.0000
    46 H17      -5.7787   -0.5420   -1.2543   H         1 RES1   0.0000
    47 H18      -3.5354   -0.3015    0.8744   H         1 RES1   0.0000
    48 H19      -4.9044    0.8002    0.7507   H         1 RES1   0.0000
    49 H20      -5.3915    2.7925    1.2057   H         1 RES1   0.0000
    50 H21      -5.0131    3.8627    2.5313   H         1 RES1   0.0000
    51 H22      -6.8362    2.1618    2.8757   H         1 RES1   0.0000
    52 H23      -4.4935    0.2550    3.3240   H         1 RES1   0.0000
    53 H24      -5.9031   -0.0044    2.2831   H         1 RES1   0.0000
    54 H25      -6.1052    0.0424    4.0117   H         1 RES1   0.0000
    55 H26      -4.8114    2.0924    5.1319   H         1 RES1   0.0000
    56 H27      -6.5593    2.1703    5.1920   H         1 RES1   0.0000
    57 H28      -5.6457    3.5827    4.6761   H         1 RES1   0.0000
    58 H29      -1.7031    2.6103    2.9765   H         1 RES1   0.0000
    59 H30      -3.1357    2.7137    4.0592   H         1 RES1   0.0000
    60 H31      -3.4266    5.1092    3.2597   H         1 RES1   0.0000
    61 H32      -0.7656    4.4268    1.9722   H         1 RES1   0.0000
    62 H33      -0.9580    6.0214    2.7121   H         1 RES1   0.0000
    63 H34      -2.0263    5.5329    1.4168   H         1 RES1   0.0000
    64 H35      -0.9067    4.3769    4.8148   H         1 RES1   0.0000
    65 H36      -2.5342    4.4351    5.5038   H         1 RES1   0.0000
    66 H37      -1.7759    5.8971    4.8971   H         1 RES1   0.0000
    67 H38      -6.0813    1.8962   -0.8631   H         1 RES1   0.0000
    68 H39      -7.2346    3.7262   -2.0089   H         1 RES1   0.0000
    69 H40      -6.1560    4.8276   -3.9353   H         1 RES1   0.0000
    70 H41      -3.8985    4.1908   -4.6322   H         1 RES1   0.0000
    71 H42      -2.7069    2.3625   -3.4355   H         1 RES1   0.0000
    72 C25       0.7053   -7.7380    2.5927   C.3       1 RES1   0.0000
    73 C26      -0.3167   -6.6615    2.2401   C.3       1 RES1   0.0000
    74 C27      -1.2755   -7.1427    1.1527   C.3       1 RES1   0.0000
    75 C28      -2.3898   -6.1454    0.8292   C.3       1 RES1   0.0000
    76 C29      -1.9682   -4.6976    0.5135   C.3       1 RES1   0.0000
    77 C30      -3.2374   -3.8975    0.1860   C.3       1 RES1   0.0000
    78 C31      -4.1345   -3.6175    1.3908   C.3       1 RES1   0.0000
    79 C32      -1.0063   -4.6916   -0.6787   C.3       1 RES1   0.0000
    80 P2        0.2657   -3.4216   -1.1200   P.3       1 RES1   0.0000
    81 O3       -0.1778   -2.0131   -1.3284   O.2       1 RES1   0.0000
    82 C33       1.8640   -3.5085   -0.1598   C.3       1 RES1   0.0000
    83 C34       1.9948   -2.7433    1.1232   C.2       1 RES1   0.0000
    84 O4        1.3955   -1.6464    1.2128   O.2       1 RES1   0.0000
    85 N2        2.7754   -3.2185    2.1011   N.am      1 RES1   0.0000
    86 C35       3.4879   -4.4806    2.0359   C.3       1 RES1   0.0000
    87 C36       4.9254   -4.4528    1.4668   C.3       1 RES1   0.0000
    88 C37       5.0666   -3.6417    0.1807   C.3       1 RES1   0.0000
    89 C38       5.9594   -3.9800    2.4896   C.3       1 RES1   0.0000
    90 C39       3.1845   -2.2817    3.1501   C.3       1 RES1   0.0000
    91 C40       3.4089   -2.6593    4.6511   C.3       1 RES1   0.0000
    92 C41       2.4830   -1.7838    5.4999   C.3       1 RES1   0.0000
    93 C42       3.2522   -4.0995    5.1462   C.3       1 RES1   0.0000
    94 C43       0.8725   -4.2267   -2.6229   C.ar      1 RES1   0.0000
    95 C44       0.7905   -3.5179   -3.8095   C.ar      1 RES1   0.0000
    96 C45       1.0738   -4.1332   -5.0176   C.ar      1 RES1   0.0000
    97 C46       1.4900   -5.4534   -5.0307   C.ar      1 RES1   0.0000
    98 C47       1.6474   -6.1476   -3.8402   C.ar      1 RES1   0.0000
    99 C48       1.3274   -5.5410   -2.6411   C.ar      1 RES1   0.0000
   100 H43       1.4020   -7.3792    3.3480   H         1 RES1   0.0000
   101 H44       1.2693   -8.0327    1.7093   H         1 RES1   0.0000
   102 H45       0.2066   -8.6219    2.9822   H         1 RES1   0.0000
   103 H46       0.2087   -5.7613    1.8993   H         1 RES1   0.0000
   104 H47      -0.8931   -6.4020    3.1317   H         1 RES1   0.0000
   105 H48      -1.7525   -8.0639    1.4932   H         1 RES1   0.0000
   106 H49      -0.7042   -7.4014    0.2566   H         1 RES1   0.0000
   107 H50      -3.0730   -6.1232    1.6810   H         1 RES1   0.0000
   108 H51      -2.9430   -6.5290   -0.0306   H         1 RES1   0.0000
   109 H52      -1.4823   -4.2585    1.3865   H         1 RES1   0.0000
   110 H53      -3.8097   -4.4621   -0.5535   H         1 RES1   0.0000
   111 H54      -2.9323   -2.9532   -0.2672   H         1 RES1   0.0000
   112 H55      -4.5621   -4.5350    1.7854   H         1 RES1   0.0000
   113 H56      -4.9611   -2.9685    1.1072   H         1 RES1   0.0000
   114 H57      -3.5758   -3.1318    2.1907   H         1 RES1   0.0000
   115 H58      -1.6130   -4.7483   -1.5883   H         1 RES1   0.0000
   116 H59      -0.4140   -5.6037   -0.6424   H         1 RES1   0.0000
   117 H60       2.5407   -2.9910   -0.8507   H         1 RES1   0.0000
   118 H61       2.1918   -4.5388   -0.1230   H         1 RES1   0.0000
   119 H62       2.8831   -5.1939    1.4815   H         1 RES1   0.0000
   120 H63       3.5550   -4.8577    3.0502   H         1 RES1   0.0000
   121 H64       5.1600   -5.4979    1.2377   H         1 RES1   0.0000
   122 H65       4.7315   -2.6158    0.3282   H         1 RES1   0.0000
   123 H66       4.5083   -4.0845   -0.6390   H         1 RES1   0.0000
   124 H67       6.1139   -3.6244   -0.1078   H         1 RES1   0.0000
   125 H68       5.9077   -2.9072    2.6518   H         1 RES1   0.0000
   126 H69       6.9535   -4.2157    2.1202   H         1 RES1   0.0000
   127 H70       5.8293   -4.4815    3.4440   H         1 RES1   0.0000
   128 H71       2.4296   -1.4916    3.1202   H         1 RES1   0.0000
   129 H72       4.1259   -1.8561    2.7954   H         1 RES1   0.0000
   130 H73       4.4408   -2.3655    4.8742   H         1 RES1   0.0000
   131 H74       1.4579   -2.0990    5.3479   H         1 RES1   0.0000
   132 H75       2.5806   -0.7369    5.2248   H         1 RES1   0.0000
   133 H76       2.7234   -1.8928    6.5542   H         1 RES1   0.0000
   134 H77       2.3235   -4.5561    4.8174   H         1 RES1   0.0000
   135 H78       3.2384   -4.0701    6.2329   H         1 RES1   0.0000
   136 H79       4.0945   -4.7317    4.8802   H         1 RES1   0.0000
   137 H80       0.4945   -2.4808   -3.7519   H         1 RES1   0.0000
   138 H81       0.9679   -3.5859   -5.9427   H         1 RES1   0.0000
   139 H82       1.7054   -5.9446   -5.9652   H         1 RES1   0.0000
   140 H83       2.0043   -7.1664   -3.8534   H         1 RES1   0.0000
   141 H84       1.4349   -6.1102   -1.7310   H         1 RES1   0.0000
   142 C49       4.4507    6.3261   -1.6006   C.3       1 RES1   0.0000
   143 C50       3.7390    5.0482   -1.1663   C.3       1 RES1   0.0000
   144 C51       2.6524    5.2267   -0.0968   C.3       1 RES1   0.0000
   145 C52       3.1513    5.5998    1.3001   C.3       1 RES1   0.0000
   146 C53       3.5717    4.4549    2.2418   C.3       1 RES1   0.0000
   147 C54       4.7523    3.6289    1.7235   C.3       1 RES1   0.0000
   148 C55       5.9807    4.4744    1.3911   C.3       1 RES1   0.0000
   149 C56       2.3581    3.6162    2.7405   C.3       1 RES1   0.0000
   150 P3        2.0275    1.8343    2.3698   P.3       1 RES1   0.0000
   151 O5        1.4545    1.5495    1.0178   O.2       1 RES1   0.0000
   152 C57       0.8423    1.5260    3.8024   C.3       1 RES1   0.0000
   153 C58      -0.0317    0.3002    3.6805   C.2       1 RES1   0.0000
   154 O6       -0.3169   -0.0766    2.5335   O.2       1 RES1   0.0000
   155 N3       -0.5656   -0.3186    4.7512   N.am      1 RES1   0.0000
   156 C59      -0.2843   -0.0545    6.1554   C.3       1 RES1   0.0000
   157 C60      -1.3847    0.5925    7.0321   C.3       1 RES1   0.0000
   158 C61      -1.9055    1.8848    6.4240   C.3       1 RES1   0.0000
   159 C62      -2.5599   -0.3137    7.4090   C.3       1 RES1   0.0000
   160 C63      -1.5739   -1.3592    4.5321   C.3       1 RES1   0.0000
   161 C64      -1.1732   -2.7848    4.9562   C.3       1 RES1   0.0000
   162 C65      -0.2651   -3.4652    3.9331   C.3       1 RES1   0.0000
   163 C66      -2.4255   -3.6366    5.1653   C.3       1 RES1   0.0000
   164 C67       3.5687    0.9381    2.7222   C.ar      1 RES1   0.0000
   165 C68       4.1615    1.0073    3.9778   C.ar      1 RES1   0.0000
   166 C69       5.4378    0.5126    4.1785   C.ar      1 RES1   0.0000
   167 C70       6.1390   -0.0160    3.1075   C.ar      1 RES1   0.0000
   168 C71       5.5580   -0.0900    1.8497   C.ar      1 RES1   0.0000
   169 C72       4.2662    0.3702    1.6622   C.ar      1 RES1   0.0000
   170 H85       5.1773    6.0773   -2.3719   H         1 RES1   0.0000
   171 H86       4.9826    6.8145   -0.7904   H         1 RES1   0.0000
   172 H87       3.7406    7.0335   -2.0218   H         1 RES1   0.0000
   173 H88       4.4660    4.3152   -0.8249   H         1 RES1   0.0000
   174 H89       3.2738    4.6520   -2.0678   H         1 RES1   0.0000
   175 H90       2.0626    4.3055   -0.0108   H         1 RES1   0.0000
   176 H91       1.9821    6.0239   -0.4299   H         1 RES1   0.0000
   177 H92       2.3585    6.1570    1.8038   H         1 RES1   0.0000
   178 H93       3.9919    6.2844    1.2041   H         1 RES1   0.0000
   179 H94       3.9460    4.9686    3.1347   H         1 RES1   0.0000
   180 H95       4.4449    3.0403    0.8556   H         1 RES1   0.0000
   181 H96       5.0512    2.9322    2.5069   H         1 RES1   0.0000
   182 H97       5.8228    5.1216    0.5379   H         1 RES1   0.0000
   183 H98       6.8234    3.8278    1.1623   H         1 RES1   0.0000
   184 H99       6.2497    5.0984    2.2381   H         1 RES1   0.0000
   185 H100      1.4380    4.1443    2.4736   H         1 RES1   0.0000
   186 H101      2.4094    3.6071    3.8309   H         1 RES1   0.0000
   187 H102      0.1690    2.3865    3.7369   H         1 RES1   0.0000
   188 H103      1.3819    1.6105    4.7395   H         1 RES1   0.0000
   189 H104      0.5943    0.5807    6.2153   H         1 RES1   0.0000
   190 H105     -0.0294   -1.0022    6.6339   H         1 RES1   0.0000
   191 H106     -0.8672    0.8300    7.9687   H         1 RES1   0.0000
   192 H107     -2.4319    1.6683    5.4986   H         1 RES1   0.0000
   193 H108     -1.0964    2.5769    6.2123   H         1 RES1   0.0000
   194 H109     -2.5990    2.3615    7.1112   H         1 RES1   0.0000
   195 H110     -3.3135   -0.3608    6.6254   H         1 RES1   0.0000
   196 H111     -3.0537    0.1027    8.2822   H         1 RES1   0.0000
   197 H112     -2.2318   -1.3193    7.6575   H         1 RES1   0.0000
   198 H113     -1.8191   -1.3527    3.4702   H         1 RES1   0.0000
   199 H114     -2.4592   -1.0651    5.0979   H         1 RES1   0.0000
   200 H115     -0.6517   -2.7271    5.9163   H         1 RES1   0.0000
   201 H116     -0.8491   -3.7785    3.0728   H         1 RES1   0.0000
   202 H117      0.1717   -4.3605    4.3699   H         1 RES1   0.0000
   203 H118      0.5277   -2.8122    3.5812   H         1 RES1   0.0000
   204 H119     -2.9723   -3.7742    4.2355   H         1 RES1   0.0000
   205 H120     -3.0927   -3.1789    5.8889   H         1 RES1   0.0000
   206 H121     -2.1421   -4.6180    5.5339   H         1 RES1   0.0000
   207 H122      3.6521    1.4711    4.8072   H         1 RES1   0.0000
   208 H123      5.8923    0.5676    5.1565   H         1 RES1   0.0000
   209 H124      7.1476   -0.3634    3.2492   H         1 RES1   0.0000
   210 H125      6.1236   -0.4915    1.0206   H         1 RES1   0.0000
   211 H126      3.7743    0.2958    0.7016   H         1 RES1   0.0000
   212 C73      -3.7199    5.2432   -0.7335   C.3       1 RES1   0.0000
   213 C74      -2.3808    4.5295   -0.8949   C.3       1 RES1   0.0000
   214 C75      -1.2148    5.4900   -1.1339   C.3       1 RES1   0.0000
   215 C76      -1.1423    5.9396   -2.5948   C.3       1 RES1   0.0000
   216 C77      -0.1639    5.2445   -3.5800   C.3       1 RES1   0.0000
   217 C78      -0.9390    4.6196   -4.7419   C.3       1 RES1   0.0000
   218 C79      -1.6905    5.6652   -5.5659   C.3       1 RES1   0.0000
   219 C80       0.8866    4.2892   -2.9819   C.3       1 RES1   0.0000
   220 P4        0.7303    2.4711   -2.6884   P.3       1 RES1   0.0000
   221 O7       -0.1902    2.0458   -1.5915   O.2       1 RES1   0.0000
   222 C81       2.4984    2.0991   -2.1805   C.3       1 RES1   0.0000
   223 C82       2.7203    0.6200   -2.2706   C.2       1 RES1   0.0000
   224 O8        1.8899   -0.1118   -1.6828   O.2       1 RES1   0.0000
   225 N4        3.7458    0.1104   -2.9624   N.am      1 RES1   0.0000
   226 C83       4.8054    0.8655   -3.6202   C.3       1 RES1   0.0000
   227 C84       6.1203    1.0648   -2.8305   C.3       1 RES1   0.0000
   228 C85       5.9214    1.9738   -1.6238   C.3       1 RES1   0.0000
   229 C86       6.7979   -0.2311   -2.3945   C.3       1 RES1   0.0000
   230 C87       3.8321   -1.3495   -3.0501   C.3       1 RES1   0.0000
   231 C88       4.2678   -1.9098   -4.4117   C.3       1 RES1   0.0000
   232 C89       3.2756   -1.4887   -5.4922   C.3       1 RES1   0.0000
   233 C90       4.3868   -3.4321   -4.3233   C.3       1 RES1   0.0000
   234 C91       0.5048    1.6041   -4.2730   C.ar      1 RES1   0.0000
   235 C92       1.3508    1.9192   -5.3323   C.ar      1 RES1   0.0000
   236 C93       1.1372    1.3836   -6.5885   C.ar      1 RES1   0.0000
   237 C94       0.0552    0.5433   -6.7939   C.ar      1 RES1   0.0000
   238 C95      -0.7749    0.1988   -5.7403   C.ar      1 RES1   0.0000
   239 C96      -0.5425    0.7120   -4.4737   C.ar      1 RES1   0.0000
   240 H127     -4.4962    4.5425   -0.4382   H         1 RES1   0.0000
   241 H128     -4.0394    5.7139   -1.6596   H         1 RES1   0.0000
   242 H129     -3.6594    6.0098    0.0364   H         1 RES1   0.0000
   243 H130     -2.4170    3.8405   -1.7357   H         1 RES1   0.0000
   244 H131     -2.1893    3.9275   -0.0074   H         1 RES1   0.0000
   245 H132     -0.3005    4.9953   -0.8181   H         1 RES1   0.0000
   246 H133     -1.3310    6.3773   -0.5078   H         1 RES1   0.0000
   247 H134     -0.9189    7.0048   -2.6132   H         1 RES1   0.0000
   248 H135     -2.1463    5.8318   -2.9989   H         1 RES1   0.0000
   249 H136      0.4427    6.0520   -4.0113   H         1 RES1   0.0000
   250 H137     -1.6398    3.8890   -4.3374   H         1 RES1   0.0000
   251 H138     -0.2499    4.0899   -5.4033   H         1 RES1   0.0000
   252 H139     -2.5065    6.1173   -5.0080   H         1 RES1   0.0000
   253 H140     -2.1101    5.2154   -6.4613   H         1 RES1   0.0000
   254 H141     -1.0208    6.4639   -5.8734   H         1 RES1   0.0000
   255 H142      1.1945    4.7054   -2.0248   H         1 RES1   0.0000
   256 H143      1.7499    4.3360   -3.6481   H         1 RES1   0.0000
   257 H144      2.5582    2.3816   -1.1250   H         1 RES1   0.0000
   258 H145      3.2133    2.6920   -2.7320   H         1 RES1   0.0000
   259 H146      4.4356    1.8479   -3.9058   H         1 RES1   0.0000
   260 H147      5.0581    0.3509   -4.5458   H         1 RES1   0.0000
   261 H148      6.7987    1.5705   -3.5268   H         1 RES1   0.0000
   262 H149      5.2024    1.5378   -0.9332   H         1 RES1   0.0000
   263 H150      5.5694    2.9520   -1.9359   H         1 RES1   0.0000
   264 H151      6.8646    2.1120   -1.1022   H         1 RES1   0.0000
   265 H152      6.2507   -0.6948   -1.5780   H         1 RES1   0.0000
   266 H153      7.7999   -0.0024   -2.0415   H         1 RES1   0.0000
   267 H154      6.8860   -0.9419   -3.2107   H         1 RES1   0.0000
   268 H155      2.8245   -1.7218   -2.8411   H         1 RES1   0.0000
   269 H156      4.5214   -1.6964   -2.2746   H         1 RES1   0.0000
   270 H157      5.2633   -1.5410   -4.6731   H         1 RES1   0.0000
   271 H158      2.2734   -1.8019   -5.2196   H         1 RES1   0.0000
   272 H159      3.5425   -1.9389   -6.4438   H         1 RES1   0.0000
   273 H160      3.2599   -0.4088   -5.6159   H         1 RES1   0.0000
   274 H161      3.4657   -3.8819   -3.9675   H         1 RES1   0.0000
   275 H162      5.1912   -3.7177   -3.6493   H         1 RES1   0.0000
   276 H163      4.6075   -3.8353   -5.3085   H         1 RES1   0.0000
   277 H164      2.1731    2.6025   -5.1892   H         1 RES1   0.0000
   278 H165      1.7938    1.6365   -7.4080   H         1 RES1   0.0000
   279 H166     -0.1470    0.1582   -7.7791   H         1 RES1   0.0000
   280 H167     -1.6143   -0.4562   -5.9244   H         1 RES1   0.0000
   281 H168     -1.1667    0.4317   -3.6356   H         1 RES1   0.0000
   282 O9       -1.4030   -1.7393    0.9649   O.3       1 RES1   0.0000
   283 H169     -0.5154   -1.8529    1.3557   H         1 RES1   0.0000
   284 H170     -2.0184   -1.7631    1.7127   H         1 RES1   0.0000
@<TRIPOS>BOND
     1     1    11    1
     2     1    14    1
     3     1    81    1
     4     1    84    1
     5     1   151    1
     6     1   154    1
     7     1   221    1
     8     1   224    1
     9     1   282    1
    10     2     3    1
    11     2    30    1
    12     2    31    1
    13     2    32    1
    14     3     4    1
    15     3    33    1
    16     3    34    1
    17     4     5    1
    18     4    35    1
    19     4    36    1
    20     5     6    1
    21     5    37    1
    22     5    38    1
    23     6     7    1
    24     6     9    1
    25     6    39    1
    26     7     8    1
    27     7    40    1
    28     7    41    1
    29     8    42    1
    30     8    43    1
    31     8    44    1
    32     9    10    1
    33     9    45    1
    34     9    46    1
    35    10    11    2
    36    10    12    1
    37    10    24    1
    38    12    13    1
    39    12    47    1
    40    12    48    1
    41    13    14    2
    42    13    15    1
    43    15    16    1
    44    15    20    1
    45    16    17    1
    46    16    49    1
    47    16    50    1
    48    17    18    1
    49    17    19    1
    50    17    51    1
    51    18    52    1
    52    18    53    1
    53    18    54    1
    54    19    55    1
    55    19    56    1
    56    19    57    1
    57    20    21    1
    58    20    58    1
    59    20    59    1
    60    21    22    1
    61    21    23    1
    62    21    60    1
    63    22    61    1
    64    22    62    1
    65    22    63    1
    66    23    64    1
    67    23    65    1
    68    23    66    1
    69    24    25    1
    70    24    29    2
    71    25    26    2
    72    25    67    1
    73    26    27    1
    74    26    68    1
    75    27    28    2
    76    27    69    1
    77    28    29    1
    78    28    70    1
    79    29    71    1
    80    72    73    1
    81    72   100    1
    82    72   101    1
    83    72   102    1
    84    73    74    1
    85    73   103    1
    86    73   104    1
    87    74    75    1
    88    74   105    1
    89    74   106    1
    90    75    76    1
    91    75   107    1
    92    75   108    1
    93    76    77    1
    94    76    79    1
    95    76   109    1
    96    77    78    1
    97    77   110    1
    98    77   111    1
    99    78   112    1
   100    78   113    1
   101    78   114    1
   102    79    80    1
   103    79   115    1
   104    79   116    1
   105    80    81    2
   106    80    82    1
   107    80    94    1
   108    82    83    1
   109    82   117    1
   110    82   118    1
   111    83    84    2
   112    83    85    1
   113    85    86    1
   114    85    90    1
   115    86    87    1
   116    86   119    1
   117    86   120    1
   118    87    88    1
   119    87    89    1
   120    87   121    1
   121    88   122    1
   122    88   123    1
   123    88   124    1
   124    89   125    1
   125    89   126    1
   126    89   127    1
   127    90    91    1
   128    90   128    1
   129    90   129    1
   130    91    92    1
   131    91    93    1
   132    91   130    1
   133    92   131    1
   134    92   132    1
   135    92   133    1
   136    93   134    1
   137    93   135    1
   138    93   136    1
   139    94    95    1
   140    94    99    2
   141    95    96    2
   142    95   137    1
   143    96    97    1
   144    96   138    1
   145    97    98    2
   146    97   139    1
   147    98    99    1
   148    98   140    1
   149    99   141    1
   150   142   143    1
   151   142   170    1
   152   142   171    1
   153   142   172    1
   154   143   144    1
   155   143   173    1
   156   143   174    1
   157   144   145    1
   158   144   175    1
   159   144   176    1
   160   145   146    1
   161   145   177    1
   162   145   178    1
   163   146   147    1
   164   146   149    1
   165   146   179    1
   166   147   148    1
   167   147   180    1
   168   147   181    1
   169   148   182    1
   170   148   183    1
   171   148   184    1
   172   149   150    1
   173   149   185    1
   174   149   186    1
   175   150   151    2
   176   150   152    1
   177   150   164    1
   178   152   153    1
   179   152   187    1
   180   152   188    1
   181   153   154    2
   182   153   155    1
   183   155   156    1
   184   155   160    1
   185   156   157    1
   186   156   189    1
   187   156   190    1
   188   157   158    1
   189   157   159    1
   190   157   191    1
   191   158   192    1
   192   158   193    1
   193   158   194    1
   194   159   195    1
   195   159   196    1
   196   159   197    1
   197   160   161    1
   198   160   198    1
   199   160   199    1
   200   161   162    1
   201   161   163    1
   202   161   200    1
   203   162   201    1
   204   162   202    1
   205   162   203    1
   206   163   204    1
   207   163   205    1
   208   163   206    1
   209   164   165    1
   210   164   169    2
   211   165   166    2
   212   165   207    1
   213   166   167    1
   214   166   208    1
   215   167   168    2
   216   167   209    1
   217   168   169    1
   218   168   210    1
   219   169   211    1
   220   212   213    1
   221   212   240    1
   222   212   241    1
   223   212   242    1
   224   213   214    1
   225   213   243    1
   226   213   244    1
   227   214   215    1
   228   214   245    1
   229   214   246    1
   230   215   216    1
   231   215   247    1
   232   215   248    1
   233   216   217    1
   234   216   219    1
   235   216   249    1
   236   217   218    1
   237   217   250    1
   238   217   251    1
   239   218   252    1
   240   218   253    1
   241   218   254    1
   242   219   220    1
   243   219   255    1
   244   219   256    1
   245   220   221    2
   246   220   222    1
   247   220   234    1
   248   222   223    1
   249   222   257    1
   250   222   258    1
   251   223   224    2
   252   223   225    1
   253   225   226    1
   254   225   230    1
   255   226   227    1
   256   226   259    1
   257   226   260    1
   258   227   228    1
   259   227   229    1
   260   227   261    1
   261   228   262    1
   262   228   263    1
   263   228   264    1
   264   229   265    1
   265   229   266    1
   266   229   267    1
   267   230   231    1
   268   230   268    1
   269   230   269    1
   270   231   232    1
   271   231   233    1
   272   231   270    1
   273   232   271    1
   274   232   272    1
   275   232   273    1
   276   233   274    1
   277   233   275    1
   278   233   276    1
   279   234   235    1
   280   234   239    2
   281   235   236    2
   282   235   277    1
   283   236   237    1
   284   236   278    1
   285   237   238    2
   286   237   279    1
   287   238   239    1
   288   238   280    1
   289   239   281    1
   290   282   283    1
   291   282   284    1
@<TRIPOS>SUBSTRUCTURE
     1 RES1      284 GROUP             0 ****  ****    0  
