@<TRIPOS>MOLECULE
am_c3_9H2O_c0_0_nunpairedes_0_charge_3 Charge: 3 Unpaired_Electrons: 3 XTB_Unpaired_Electrons: 0 XTB_Charge: 3
   440   443     1     0     0
SMALL
NoCharges
****
Generated from Architector

@<TRIPOS>ATOM
     1 Nd1      -0.3146   -0.3919    0.1089   Nd        1 RES1   0.0000
     2 C1       -6.9290    0.9115   -7.4481   C.3       1 RES1   0.0000
     3 C2       -6.6643    0.6563   -5.9668   C.3       1 RES1   0.0000
     4 C3       -7.1044    1.8560   -5.1254   C.3       1 RES1   0.0000
     5 C4       -7.0650    1.6809   -3.6019   C.3       1 RES1   0.0000
     6 C5       -5.7241    2.0427   -2.9528   C.3       1 RES1   0.0000
     7 C6       -4.8375    0.8536   -2.5787   C.3       1 RES1   0.0000
     8 C7       -5.1896    0.1465   -1.2601   C.3       1 RES1   0.0000
     9 C8       -4.1390   -0.9354   -1.0028   C.3       1 RES1   0.0000
    10 N1       -4.1676   -1.6028    0.2926   N.am      1 RES1   0.0000
    11 C9       -3.8838   -3.0468    0.3625   C.3       1 RES1   0.0000
    12 C10      -4.5135   -3.8851   -0.7282   C.3       1 RES1   0.0000
    13 C11      -4.0848   -5.3471   -0.8057   C.3       1 RES1   0.0000
    14 C12      -4.7285   -6.3234    0.1783   C.3       1 RES1   0.0000
    15 C13      -5.1013   -7.6478   -0.5024   C.3       1 RES1   0.0000
    16 C14      -6.3715   -7.5908   -1.3645   C.3       1 RES1   0.0000
    17 C15      -6.2039   -7.1511   -2.8235   C.3       1 RES1   0.0000
    18 C16      -7.5561   -7.0054   -3.5154   C.3       1 RES1   0.0000
    19 C17      -3.6645   -0.8626    1.2844   C.2       1 RES1   0.0000
    20 O1       -3.2404    0.2850    1.0919   O.2       1 RES1   0.0000
    21 C18      -3.5699   -1.4531    2.6733   C.3       1 RES1   0.0000
    22 C19      -2.1016   -1.5677    3.0406   C.2       1 RES1   0.0000
    23 O2       -1.2104   -1.3891    2.1824   O.2       1 RES1   0.0000
    24 N2       -1.8601   -1.8272    4.3247   N.am      1 RES1   0.0000
    25 C20      -2.8444   -2.5151    5.1702   C.3       1 RES1   0.0000
    26 C21      -4.0248   -1.7610    5.8154   C.3       1 RES1   0.0000
    27 C22      -3.7032   -1.0974    7.1548   C.3       1 RES1   0.0000
    28 C23      -3.0863    0.2892    6.9987   C.3       1 RES1   0.0000
    29 C24      -2.7212    0.9432    8.3331   C.3       1 RES1   0.0000
    30 C25      -1.2797    0.7108    8.7838   C.3       1 RES1   0.0000
    31 C26      -0.8968   -0.7392    9.0825   C.3       1 RES1   0.0000
    32 C27      -1.6800   -1.3353   10.2468   C.3       1 RES1   0.0000
    33 C28      -0.5353   -1.5556    4.8718   C.3       1 RES1   0.0000
    34 C29       0.2622   -2.7748    5.3271   C.3       1 RES1   0.0000
    35 C30       1.3757   -2.3760    6.3065   C.3       1 RES1   0.0000
    36 C31       1.5891   -3.4247    7.3996   C.3       1 RES1   0.0000
    37 C32       2.1086   -4.7646    6.8677   C.3       1 RES1   0.0000
    38 C33       3.6346   -4.7882    6.6906   C.3       1 RES1   0.0000
    39 C34       4.0884   -5.5943    5.4717   C.3       1 RES1   0.0000
    40 C35       5.6108   -5.6143    5.3856   C.3       1 RES1   0.0000
    41 H1       -6.7040    0.0296   -8.0489   H         1 RES1   0.0000
    42 H2       -6.3115    1.7384   -7.7950   H         1 RES1   0.0000
    43 H3       -7.9760    1.1777   -7.5787   H         1 RES1   0.0000
    44 H4       -5.6081    0.4182   -5.8122   H         1 RES1   0.0000
    45 H5       -7.2466   -0.2128   -5.6599   H         1 RES1   0.0000
    46 H6       -8.1408    2.0619   -5.3899   H         1 RES1   0.0000
    47 H7       -6.5132    2.7267   -5.4110   H         1 RES1   0.0000
    48 H8       -7.3341    0.6536   -3.3647   H         1 RES1   0.0000
    49 H9       -7.8461    2.3170   -3.1823   H         1 RES1   0.0000
    50 H10      -5.9002    2.6549   -2.0701   H         1 RES1   0.0000
    51 H11      -5.1637    2.6631   -3.6546   H         1 RES1   0.0000
    52 H12      -3.8161    1.2270   -2.4853   H         1 RES1   0.0000
    53 H13      -4.8748    0.1542   -3.4188   H         1 RES1   0.0000
    54 H14      -6.1819   -0.2921   -1.3248   H         1 RES1   0.0000
    55 H15      -5.1988    0.8680   -0.4421   H         1 RES1   0.0000
    56 H16      -3.1586   -0.4607   -1.1200   H         1 RES1   0.0000
    57 H17      -4.2158   -1.7137   -1.7419   H         1 RES1   0.0000
    58 H18      -4.2162   -3.4417    1.3209   H         1 RES1   0.0000
    59 H19      -2.7964   -3.1349    0.2925   H         1 RES1   0.0000
    60 H20      -4.2135   -3.4746   -1.6822   H         1 RES1   0.0000
    61 H21      -5.5944   -3.8429   -0.6260   H         1 RES1   0.0000
    62 H22      -3.0040   -5.4101   -0.7549   H         1 RES1   0.0000
    63 H23      -4.3512   -5.6663   -1.8094   H         1 RES1   0.0000
    64 H24      -5.6294   -5.8854    0.6171   H         1 RES1   0.0000
    65 H25      -4.0230   -6.5330    0.9870   H         1 RES1   0.0000
    66 H26      -5.2734   -8.3829    0.2849   H         1 RES1   0.0000
    67 H27      -4.2619   -8.0024   -1.1060   H         1 RES1   0.0000
    68 H28      -7.0908   -6.9302   -0.8751   H         1 RES1   0.0000
    69 H29      -6.8015   -8.5946   -1.3841   H         1 RES1   0.0000
    70 H30      -5.5823   -7.8785   -3.3536   H         1 RES1   0.0000
    71 H31      -5.7194   -6.1757   -2.8995   H         1 RES1   0.0000
    72 H32      -8.1038   -7.9428   -3.5256   H         1 RES1   0.0000
    73 H33      -7.4264   -6.6707   -4.5422   H         1 RES1   0.0000
    74 H34      -8.1602   -6.2579   -3.0034   H         1 RES1   0.0000
    75 H35      -4.1154   -2.3840    2.8134   H         1 RES1   0.0000
    76 H36      -4.0112   -0.7282    3.3561   H         1 RES1   0.0000
    77 H37      -2.2890   -2.9745    5.9885   H         1 RES1   0.0000
    78 H38      -3.2584   -3.3386    4.5791   H         1 RES1   0.0000
    79 H39      -4.7732   -2.5372    5.9946   H         1 RES1   0.0000
    80 H40      -4.4729   -1.0157    5.1584   H         1 RES1   0.0000
    81 H41      -3.0631   -1.7576    7.7380   H         1 RES1   0.0000
    82 H42      -4.6402   -0.9793    7.7009   H         1 RES1   0.0000
    83 H43      -3.8245    0.9063    6.4832   H         1 RES1   0.0000
    84 H44      -2.2014    0.2477    6.3611   H         1 RES1   0.0000
    85 H45      -3.4113    0.6057    9.1023   H         1 RES1   0.0000
    86 H46      -2.8615    2.0200    8.2427   H         1 RES1   0.0000
    87 H47      -1.1078    1.3029    9.6840   H         1 RES1   0.0000
    88 H48      -0.6097    1.0984    8.0108   H         1 RES1   0.0000
    89 H49       0.1668   -0.7585    9.3365   H         1 RES1   0.0000
    90 H50      -1.0308   -1.3551    8.1889   H         1 RES1   0.0000
    91 H51      -1.5371   -0.7308   11.1392   H         1 RES1   0.0000
    92 H52      -1.3351   -2.3455   10.4582   H         1 RES1   0.0000
    93 H53      -2.7455   -1.3815   10.0337   H         1 RES1   0.0000
    94 H54      -0.6942   -0.8965    5.7292   H         1 RES1   0.0000
    95 H55       0.0249   -1.0102    4.1061   H         1 RES1   0.0000
    96 H56       0.6763   -3.2839    4.4594   H         1 RES1   0.0000
    97 H57      -0.3943   -3.4834    5.8309   H         1 RES1   0.0000
    98 H58       1.0998   -1.4420    6.7979   H         1 RES1   0.0000
    99 H59       2.3087   -2.2088    5.7689   H         1 RES1   0.0000
   100 H60       0.6317   -3.5793    7.9016   H         1 RES1   0.0000
   101 H61       2.2851   -3.0392    8.1493   H         1 RES1   0.0000
   102 H62       1.6198   -4.9928    5.9171   H         1 RES1   0.0000
   103 H63       1.8085   -5.5439    7.5691   H         1 RES1   0.0000
   104 H64       4.0853   -5.2253    7.5842   H         1 RES1   0.0000
   105 H65       4.0208   -3.7674    6.6028   H         1 RES1   0.0000
   106 H66       3.6740   -5.1429    4.5596   H         1 RES1   0.0000
   107 H67       3.6913   -6.6102    5.5477   H         1 RES1   0.0000
   108 H68       5.9960   -4.6084    5.2165   H         1 RES1   0.0000
   109 H69       6.0334   -5.9667    6.3214   H         1 RES1   0.0000
   110 H70       5.9559   -6.2678    4.5912   H         1 RES1   0.0000
   111 C36      -6.3393    5.0615    0.3800   C.3       1 RES1   0.0000
   112 C37      -7.3573    4.9717    1.5090   C.3       1 RES1   0.0000
   113 C38      -6.7533    4.5765    2.8585   C.3       1 RES1   0.0000
   114 C39      -6.3794    3.0932    2.9312   C.3       1 RES1   0.0000
   115 C40      -5.8724    2.6646    4.3133   C.3       1 RES1   0.0000
   116 C41      -4.4311    3.0865    4.6232   C.3       1 RES1   0.0000
   117 C42      -3.3817    2.2558    3.8696   C.3       1 RES1   0.0000
   118 C43      -2.7651    2.9501    2.6507   C.3       1 RES1   0.0000
   119 N3       -1.3571    3.3067    2.8000   N.am      1 RES1   0.0000
   120 C44      -1.0794    4.3089    3.8258   C.3       1 RES1   0.0000
   121 C45      -1.7143    5.6951    3.6739   C.3       1 RES1   0.0000
   122 C46      -1.0916    6.5959    2.6087   C.3       1 RES1   0.0000
   123 C47      -1.6406    6.3491    1.2051   C.3       1 RES1   0.0000
   124 C48      -0.9709    7.2445    0.1591   C.3       1 RES1   0.0000
   125 C49      -1.2702    8.7364    0.3231   C.3       1 RES1   0.0000
   126 C50      -0.7797    9.5521   -0.8787   C.3       1 RES1   0.0000
   127 C51       0.7421    9.5517   -1.0232   C.3       1 RES1   0.0000
   128 C52      -0.4410    2.5003    2.2520   C.2       1 RES1   0.0000
   129 O3       -0.7250    1.3688    1.8105   O.2       1 RES1   0.0000
   130 C53       0.9565    3.0446    1.9623   C.3       1 RES1   0.0000
   131 C54       1.0335    3.0947    0.4294   C.2       1 RES1   0.0000
   132 O4        0.5267    2.2013   -0.2613   O.2       1 RES1   0.0000
   133 N4        1.5218    4.2270   -0.1034   N.am      1 RES1   0.0000
   134 C55       2.7869    4.7584    0.3757   C.3       1 RES1   0.0000
   135 C56       3.9025    3.7411    0.1223   C.3       1 RES1   0.0000
   136 C57       5.2687    4.2621    0.5566   C.3       1 RES1   0.0000
   137 C58       6.4481    3.3509    0.1912   C.3       1 RES1   0.0000
   138 C59       6.4889    2.0070    0.9316   C.3       1 RES1   0.0000
   139 C60       5.7468    0.8534    0.2442   C.3       1 RES1   0.0000
   140 C61       6.5274    0.2107   -0.9011   C.3       1 RES1   0.0000
   141 C62       5.8327   -1.0593   -1.3807   C.3       1 RES1   0.0000
   142 C63       0.9066    4.7878   -1.3027   C.3       1 RES1   0.0000
   143 C64       1.0886    4.0403   -2.6184   C.3       1 RES1   0.0000
   144 C65       0.6121    4.8901   -3.8052   C.3       1 RES1   0.0000
   145 C66      -0.8646    4.7153   -4.1814   C.3       1 RES1   0.0000
   146 C67      -1.1559    3.5398   -5.1316   C.3       1 RES1   0.0000
   147 C68      -1.8288    2.3495   -4.4515   C.3       1 RES1   0.0000
   148 C69      -2.0030    1.1433   -5.3746   C.3       1 RES1   0.0000
   149 C70      -2.8283    1.4564   -6.6184   C.3       1 RES1   0.0000
   150 H71      -6.8446    5.3111   -0.5480   H         1 RES1   0.0000
   151 H72      -5.8174    4.1183    0.2377   H         1 RES1   0.0000
   152 H73      -5.6083    5.8386    0.5897   H         1 RES1   0.0000
   153 H74      -8.1344    4.2542    1.2408   H         1 RES1   0.0000
   154 H75      -7.8358    5.9444    1.6185   H         1 RES1   0.0000
   155 H76      -7.4898    4.7774    3.6405   H         1 RES1   0.0000
   156 H77      -5.8809    5.2027    3.0633   H         1 RES1   0.0000
   157 H78      -5.6262    2.8458    2.1790   H         1 RES1   0.0000
   158 H79      -7.2785    2.5141    2.7052   H         1 RES1   0.0000
   159 H80      -5.9407    1.5750    4.4021   H         1 RES1   0.0000
   160 H81      -6.5376    3.0899    5.0672   H         1 RES1   0.0000
   161 H82      -4.2695    2.9888    5.6972   H         1 RES1   0.0000
   162 H83      -4.3130    4.1430    4.3910   H         1 RES1   0.0000
   163 H84      -3.8470    1.3342    3.5236   H         1 RES1   0.0000
   164 H85      -2.5706    1.9644    4.5379   H         1 RES1   0.0000
   165 H86      -3.2975    3.8733    2.4222   H         1 RES1   0.0000
   166 H87      -2.8273    2.2834    1.7937   H         1 RES1   0.0000
   167 H88      -0.0034    4.4352    3.9343   H         1 RES1   0.0000
   168 H89      -1.4550    3.8955    4.7679   H         1 RES1   0.0000
   169 H90      -1.5771    6.1820    4.6410   H         1 RES1   0.0000
   170 H91      -2.7893    5.6251    3.5069   H         1 RES1   0.0000
   171 H92      -0.0040    6.4763    2.6148   H         1 RES1   0.0000
   172 H93      -1.3016    7.6312    2.8770   H         1 RES1   0.0000
   173 H94      -2.7184    6.5360    1.2003   H         1 RES1   0.0000
   174 H95      -1.4812    5.2996    0.9306   H         1 RES1   0.0000
   175 H96      -1.3184    6.9443   -0.8352   H         1 RES1   0.0000
   176 H97       0.1096    7.0904    0.2156   H         1 RES1   0.0000
   177 H98      -0.7940    9.1255    1.2263   H         1 RES1   0.0000
   178 H99      -2.3497    8.8746    0.4244   H         1 RES1   0.0000
   179 H100     -1.1187   10.5833   -0.7571   H         1 RES1   0.0000
   180 H101     -1.2355    9.1625   -1.7949   H         1 RES1   0.0000
   181 H102      1.2130    9.9012   -0.1048   H         1 RES1   0.0000
   182 H103      1.0399   10.2162   -1.8315   H         1 RES1   0.0000
   183 H104      1.1200    8.5547   -1.2523   H         1 RES1   0.0000
   184 H105      1.6906    2.3571    2.3706   H         1 RES1   0.0000
   185 H106      1.1103    4.0415    2.3603   H         1 RES1   0.0000
   186 H107      3.0060    5.6761   -0.1639   H         1 RES1   0.0000
   187 H108      2.7387    5.0060    1.4375   H         1 RES1   0.0000
   188 H109      3.9331    3.5131   -0.9437   H         1 RES1   0.0000
   189 H110      3.6652    2.8227    0.6604   H         1 RES1   0.0000
   190 H111      5.2723    4.4361    1.6338   H         1 RES1   0.0000
   191 H112      5.4420    5.2239    0.0725   H         1 RES1   0.0000
   192 H113      7.3602    3.9031    0.4355   H         1 RES1   0.0000
   193 H114      6.4535    3.1770   -0.8862   H         1 RES1   0.0000
   194 H115      6.0926    2.1631    1.9411   H         1 RES1   0.0000
   195 H116      7.5316    1.7027    1.0467   H         1 RES1   0.0000
   196 H117      4.7794    1.1836   -0.1391   H         1 RES1   0.0000
   197 H118      5.5547    0.0747    0.9864   H         1 RES1   0.0000
   198 H119      7.5358   -0.0350   -0.5661   H         1 RES1   0.0000
   199 H120      6.6206    0.9060   -1.7350   H         1 RES1   0.0000
   200 H121      5.7727   -1.7902   -0.5752   H         1 RES1   0.0000
   201 H122      6.3829   -1.5105   -2.2020   H         1 RES1   0.0000
   202 H123      4.8167   -0.8429   -1.7084   H         1 RES1   0.0000
   203 H124      1.3037    5.7985   -1.4041   H         1 RES1   0.0000
   204 H125     -0.1615    4.8767   -1.0909   H         1 RES1   0.0000
   205 H126      0.5306    3.1054   -2.5818   H         1 RES1   0.0000
   206 H127      2.1433    3.7990   -2.7311   H         1 RES1   0.0000
   207 H128      1.2173    4.6597   -4.6831   H         1 RES1   0.0000
   208 H129      0.7849    5.9435   -3.5752   H         1 RES1   0.0000
   209 H130     -1.1802    5.6323   -4.6768   H         1 RES1   0.0000
   210 H131     -1.4750    4.6208   -3.2814   H         1 RES1   0.0000
   211 H132     -0.2321    3.2162   -5.6146   H         1 RES1   0.0000
   212 H133     -1.8230    3.8872   -5.9200   H         1 RES1   0.0000
   213 H134     -2.8162    2.6588   -4.1041   H         1 RES1   0.0000
   214 H135     -1.2541    2.0321   -3.5773   H         1 RES1   0.0000
   215 H136     -2.4970    0.3542   -4.8034   H         1 RES1   0.0000
   216 H137     -1.0224    0.7612   -5.6673   H         1 RES1   0.0000
   217 H138     -3.7240    2.0072   -6.3441   H         1 RES1   0.0000
   218 H139     -3.1367    0.5444   -7.1247   H         1 RES1   0.0000
   219 H140     -2.2618    2.0525   -7.3279   H         1 RES1   0.0000
   220 C71       5.1271    6.8589    3.3221   C.3       1 RES1   0.0000
   221 C72       4.7308    6.7188    4.7885   C.3       1 RES1   0.0000
   222 C73       4.4251    5.2857    5.2323   C.3       1 RES1   0.0000
   223 C74       3.1067    4.7707    4.6553   C.3       1 RES1   0.0000
   224 C75       2.6659    3.4179    5.2241   C.3       1 RES1   0.0000
   225 C76       3.5952    2.2816    4.7652   C.3       1 RES1   0.0000
   226 C77       2.8877    0.9978    4.2704   C.3       1 RES1   0.0000
   227 C78       3.4386    0.5540    2.9018   C.3       1 RES1   0.0000
   228 N5        3.5628   -0.8812    2.7100   N.am      1 RES1   0.0000
   229 C79       4.6997   -1.5637    3.3513   C.3       1 RES1   0.0000
   230 C80       5.6857   -0.6520    4.0881   C.3       1 RES1   0.0000
   231 C81       6.8615   -1.4350    4.7016   C.3       1 RES1   0.0000
   232 C82       8.2045   -0.9440    4.1591   C.3       1 RES1   0.0000
   233 C83       8.5261   -1.5539    2.7955   C.3       1 RES1   0.0000
   234 C84       8.9194   -3.0244    2.9403   C.3       1 RES1   0.0000
   235 C85       9.1578   -3.7420    1.6140   C.3       1 RES1   0.0000
   236 C86       7.8609   -4.0990    0.8989   C.3       1 RES1   0.0000
   237 C87       2.6797   -1.4738    1.8947   C.2       1 RES1   0.0000
   238 O5        1.7010   -0.8461    1.4341   O.2       1 RES1   0.0000
   239 C88       2.9257   -2.9263    1.5333   C.3       1 RES1   0.0000
   240 C89       2.7172   -3.1897    0.0332   C.2       1 RES1   0.0000
   241 O6        1.8997   -2.5183   -0.6099   O.2       1 RES1   0.0000
   242 N6        3.4705   -4.1800   -0.4856   N.am      1 RES1   0.0000
   243 C90       4.1817   -5.1618    0.3411   C.3       1 RES1   0.0000
   244 C91       3.1828   -6.1047    1.0504   C.3       1 RES1   0.0000
   245 C92       3.4269   -7.6074    0.8375   C.3       1 RES1   0.0000
   246 C93       2.1146   -8.4096    0.7210   C.3       1 RES1   0.0000
   247 C94       1.4878   -8.9680    2.0180   C.3       1 RES1   0.0000
   248 C95      -0.0213   -8.7156    2.1882   C.3       1 RES1   0.0000
   249 C96      -0.7975   -9.9104    2.7429   C.3       1 RES1   0.0000
   250 C97      -2.2077   -9.5157    3.1717   C.3       1 RES1   0.0000
   251 C98       3.6533   -4.3030   -1.9388   C.3       1 RES1   0.0000
   252 C99       3.4836   -5.7092   -2.5459   C.3       1 RES1   0.0000
   253 C100      4.3194   -5.9179   -3.8171   C.3       1 RES1   0.0000
   254 C101      3.8437   -5.1073   -5.0240   C.3       1 RES1   0.0000
   255 C102      2.6803   -5.7610   -5.7668   C.3       1 RES1   0.0000
   256 C103      2.2120   -4.8989   -6.9316   C.3       1 RES1   0.0000
   257 C104      1.1974   -5.6431   -7.7916   C.3       1 RES1   0.0000
   258 C105      0.6098   -4.7628   -8.8881   C.3       1 RES1   0.0000
   259 H141      5.9930    6.2380    3.0998   H         1 RES1   0.0000
   260 H142      4.3097    6.5812    2.6583   H         1 RES1   0.0000
   261 H143      5.3953    7.8918    3.1155   H         1 RES1   0.0000
   262 H144      3.8553    7.3387    4.9883   H         1 RES1   0.0000
   263 H145      5.5460    7.1007    5.4018   H         1 RES1   0.0000
   264 H146      4.3449    5.2703    6.3212   H         1 RES1   0.0000
   265 H147      5.2546    4.6348    4.9498   H         1 RES1   0.0000
   266 H148      3.1933    4.6721    3.5688   H         1 RES1   0.0000
   267 H149      2.3411    5.5187    4.8752   H         1 RES1   0.0000
   268 H150      1.6424    3.2085    4.9019   H         1 RES1   0.0000
   269 H151      2.6364    3.4776    6.3116   H         1 RES1   0.0000
   270 H152      4.2744    2.0271    5.5794   H         1 RES1   0.0000
   271 H153      4.2130    2.6790    3.9557   H         1 RES1   0.0000
   272 H154      1.8073    1.1554    4.2110   H         1 RES1   0.0000
   273 H155      3.0391    0.1944    4.9905   H         1 RES1   0.0000
   274 H156      4.4292    0.9820    2.7626   H         1 RES1   0.0000
   275 H157      2.7981    0.9025    2.0880   H         1 RES1   0.0000
   276 H158      5.2790   -2.0762    2.5768   H         1 RES1   0.0000
   277 H159      4.3085   -2.2994    4.0627   H         1 RES1   0.0000
   278 H160      5.1753   -0.1046    4.8734   H         1 RES1   0.0000
   279 H161      6.1030    0.0728    3.3904   H         1 RES1   0.0000
   280 H162      6.7448   -2.4933    4.4776   H         1 RES1   0.0000
   281 H163      6.8473   -1.3315    5.7853   H         1 RES1   0.0000
   282 H164      9.0087   -1.1977    4.8490   H         1 RES1   0.0000
   283 H165      8.1680    0.1445    4.0987   H         1 RES1   0.0000
   284 H166      9.3548   -1.0095    2.3435   H         1 RES1   0.0000
   285 H167      7.6709   -1.4390    2.1254   H         1 RES1   0.0000
   286 H168      8.1477   -3.5700    3.4886   H         1 RES1   0.0000
   287 H169      9.8271   -3.0654    3.5445   H         1 RES1   0.0000
   288 H170      9.7062   -4.6616    1.8190   H         1 RES1   0.0000
   289 H171      9.7829   -3.1218    0.9715   H         1 RES1   0.0000
   290 H172      7.2448   -4.7293    1.5368   H         1 RES1   0.0000
   291 H173      8.0753   -4.6432   -0.0147   H         1 RES1   0.0000
   292 H174      7.2938   -3.2097    0.6350   H         1 RES1   0.0000
   293 H175      2.2028   -3.5297    2.0892   H         1 RES1   0.0000
   294 H176      3.9298   -3.2251    1.8188   H         1 RES1   0.0000
   295 H177      4.8354   -4.6684    1.0629   H         1 RES1   0.0000
   296 H178      4.8517   -5.7190   -0.3131   H         1 RES1   0.0000
   297 H179      2.1978   -5.8721    0.6444   H         1 RES1   0.0000
   298 H180      3.1495   -5.8804    2.1194   H         1 RES1   0.0000
   299 H181      4.0730   -8.0144    1.6158   H         1 RES1   0.0000
   300 H182      3.9520   -7.7418   -0.1098   H         1 RES1   0.0000
   301 H183      2.3096   -9.2530    0.0575   H         1 RES1   0.0000
   302 H184      1.3973   -7.7718    0.2009   H         1 RES1   0.0000
   303 H185      2.0137   -8.5682    2.8833   H         1 RES1   0.0000
   304 H186      1.6521  -10.0446    2.0251   H         1 RES1   0.0000
   305 H187     -0.4590   -8.4528    1.2254   H         1 RES1   0.0000
   306 H188     -0.1808   -7.8759    2.8651   H         1 RES1   0.0000
   307 H189     -0.2624  -10.3286    3.5948   H         1 RES1   0.0000
   308 H190     -0.8690  -10.6894    1.9865   H         1 RES1   0.0000
   309 H191     -2.1650   -8.8276    4.0130   H         1 RES1   0.0000
   310 H192     -2.7698  -10.3963    3.4707   H         1 RES1   0.0000
   311 H193     -2.7583   -9.0368    2.3622   H         1 RES1   0.0000
   312 H194      4.6698   -3.9441   -2.1546   H         1 RES1   0.0000
   313 H195      2.9370   -3.6123   -2.3914   H         1 RES1   0.0000
   314 H196      2.4380   -5.8853   -2.7926   H         1 RES1   0.0000
   315 H197      3.7793   -6.4758   -1.8333   H         1 RES1   0.0000
   316 H198      4.2747   -6.9721   -4.0902   H         1 RES1   0.0000
   317 H199      5.3658   -5.6842   -3.6130   H         1 RES1   0.0000
   318 H200      4.6731   -4.9881   -5.7271   H         1 RES1   0.0000
   319 H201      3.5584   -4.1076   -4.6907   H         1 RES1   0.0000
   320 H202      1.8437   -5.9649   -5.0948   H         1 RES1   0.0000
   321 H203      3.0071   -6.7204   -6.1651   H         1 RES1   0.0000
   322 H204      1.7925   -3.9569   -6.5658   H         1 RES1   0.0000
   323 H205      3.0738   -4.6452   -7.5481   H         1 RES1   0.0000
   324 H206      0.3947   -6.0332   -7.1608   H         1 RES1   0.0000
   325 H207      1.6998   -6.4951   -8.2501   H         1 RES1   0.0000
   326 H208      0.1016   -3.8869   -8.4790   H         1 RES1   0.0000
   327 H209     -0.1158   -5.3208   -9.4731   H         1 RES1   0.0000
   328 H210      1.3937   -4.4236   -9.5635   H         1 RES1   0.0000
   329 C106      4.0381    7.5963   -4.2352   C.3       1 RES1   0.0000
   330 C107      5.3836    6.9572   -4.5668   C.3       1 RES1   0.0000
   331 C108      5.3398    5.4387   -4.7709   C.3       1 RES1   0.0000
   332 C109      5.0546    4.6684   -3.4827   C.3       1 RES1   0.0000
   333 C110      5.2072    3.1462   -3.6081   C.3       1 RES1   0.0000
   334 C111      4.0396    2.4737   -4.3474   C.3       1 RES1   0.0000
   335 C112      3.4715    1.2216   -3.6499   C.3       1 RES1   0.0000
   336 C113      2.0183    1.0031   -4.1125   C.3       1 RES1   0.0000
   337 N7        1.5247   -0.3669   -4.1678   N.am      1 RES1   0.0000
   338 C114      2.1198   -1.2660   -5.1640   C.3       1 RES1   0.0000
   339 C115      2.8529   -0.6772   -6.3830   C.3       1 RES1   0.0000
   340 C116      1.9914   -0.5986   -7.6500   C.3       1 RES1   0.0000
   341 C117      1.1745    0.6833   -7.8060   C.3       1 RES1   0.0000
   342 C118      0.1241    0.5419   -8.9114   C.3       1 RES1   0.0000
   343 C119      0.7095    0.1820  -10.2757   C.3       1 RES1   0.0000
   344 C120     -0.3556    0.0690  -11.3673   C.3       1 RES1   0.0000
   345 C121     -1.3321   -1.0731  -11.0913   C.3       1 RES1   0.0000
   346 C122      0.6484   -0.7981   -3.2502   C.2       1 RES1   0.0000
   347 O7        0.4038   -0.1551   -2.2120   O.2       1 RES1   0.0000
   348 C123     -0.0518   -2.1238   -3.5674   C.3       1 RES1   0.0000
   349 C124     -1.3869   -2.3097   -2.8594   C.2       1 RES1   0.0000
   350 O8       -1.5891   -1.8150   -1.7447   O.2       1 RES1   0.0000
   351 N8       -2.3500   -3.0436   -3.5255   N.am      1 RES1   0.0000
   352 C125     -1.9306   -4.1059   -4.4395   C.3       1 RES1   0.0000
   353 C126     -0.9136   -5.1642   -4.0068   C.3       1 RES1   0.0000
   354 C127     -1.3538   -6.1593   -2.9157   C.3       1 RES1   0.0000
   355 C128     -0.5184   -6.1808   -1.6208   C.3       1 RES1   0.0000
   356 C129     -0.2581   -4.8130   -0.9677   C.3       1 RES1   0.0000
   357 C130     -0.8183   -4.5694    0.4416   C.3       1 RES1   0.0000
   358 C131     -0.1530   -5.2580    1.6299   C.3       1 RES1   0.0000
   359 C132     -1.0941   -5.2234    2.8304   C.3       1 RES1   0.0000
   360 C133     -3.4820   -2.3010   -4.1480   C.3       1 RES1   0.0000
   361 C134     -4.8267   -3.0090   -4.4654   C.3       1 RES1   0.0000
   362 C135     -5.9234   -2.9272   -3.3880   C.3       1 RES1   0.0000
   363 C136     -7.3600   -2.6716   -3.8501   C.3       1 RES1   0.0000
   364 C137     -8.2550   -2.2264   -2.6720   C.3       1 RES1   0.0000
   365 C138     -8.0055   -2.9301   -1.3334   C.3       1 RES1   0.0000
   366 C139     -8.8722   -2.4268   -0.1664   C.3       1 RES1   0.0000
   367 C140     -8.2666   -1.2426    0.5865   C.3       1 RES1   0.0000
   368 H211      4.1352    8.6795   -4.2477   H         1 RES1   0.0000
   369 H212      3.6827    7.3065   -3.2482   H         1 RES1   0.0000
   370 H213      3.2832    7.3189   -4.9676   H         1 RES1   0.0000
   371 H214      6.0949    7.1929   -3.7723   H         1 RES1   0.0000
   372 H215      5.7595    7.4186   -5.4817   H         1 RES1   0.0000
   373 H216      6.3152    5.1283   -5.1463   H         1 RES1   0.0000
   374 H217      4.5968    5.1974   -5.5339   H         1 RES1   0.0000
   375 H218      4.0424    4.8978   -3.1429   H         1 RES1   0.0000
   376 H219      5.7483    5.0271   -2.7180   H         1 RES1   0.0000
   377 H220      5.2568    2.7303   -2.6006   H         1 RES1   0.0000
   378 H221      6.1627    2.9240   -4.0862   H         1 RES1   0.0000
   379 H222      4.3467    2.2019   -5.3567   H         1 RES1   0.0000
   380 H223      3.2377    3.2070   -4.4461   H         1 RES1   0.0000
   381 H224      3.4870    1.3457   -2.5644   H         1 RES1   0.0000
   382 H225      4.0886    0.3549   -3.8929   H         1 RES1   0.0000
   383 H226      1.3388    1.5511   -3.4603   H         1 RES1   0.0000
   384 H227      1.9283    1.4051   -5.1243   H         1 RES1   0.0000
   385 H228      1.3412   -1.9132   -5.5668   H         1 RES1   0.0000
   386 H229      2.8185   -1.9154   -4.6244   H         1 RES1   0.0000
   387 H230      3.6824   -1.3567   -6.5887   H         1 RES1   0.0000
   388 H231      3.3021    0.2912   -6.1868   H         1 RES1   0.0000
   389 H232      1.3100   -1.4527   -7.6722   H         1 RES1   0.0000
   390 H233      2.6504   -0.6989   -8.5114   H         1 RES1   0.0000
   391 H234      1.8398    1.5217   -8.0274   H         1 RES1   0.0000
   392 H235      0.6587    0.9015   -6.8657   H         1 RES1   0.0000
   393 H236     -0.4140    1.4853   -9.0089   H         1 RES1   0.0000
   394 H237     -0.5961   -0.2225   -8.6103   H         1 RES1   0.0000
   395 H238      1.2301   -0.7748  -10.2221   H         1 RES1   0.0000
   396 H239      1.4374    0.9416  -10.5611   H         1 RES1   0.0000
   397 H240      0.1413   -0.1132  -12.3223   H         1 RES1   0.0000
   398 H241     -0.8987    1.0108  -11.4617   H         1 RES1   0.0000
   399 H242     -0.7896   -1.9475  -10.7332   H         1 RES1   0.0000
   400 H243     -1.8652   -1.3552  -11.9950   H         1 RES1   0.0000
   401 H244     -2.0710   -0.7948  -10.3418   H         1 RES1   0.0000
   402 H245      0.6496   -2.9164   -3.3074   H         1 RES1   0.0000
   403 H246     -0.2465   -2.1713   -4.6401   H         1 RES1   0.0000
   404 H247     -1.5844   -3.6686   -5.3850   H         1 RES1   0.0000
   405 H248     -2.8522   -4.6408   -4.6619   H         1 RES1   0.0000
   406 H249      0.0420   -4.7274   -3.7363   H         1 RES1   0.0000
   407 H250     -0.7505   -5.7244   -4.9286   H         1 RES1   0.0000
   408 H251     -1.2871   -7.1703   -3.3175   H         1 RES1   0.0000
   409 H252     -2.4026   -6.0021   -2.6826   H         1 RES1   0.0000
   410 H253      0.4460   -6.6402   -1.8404   H         1 RES1   0.0000
   411 H254     -1.0153   -6.8469   -0.9140   H         1 RES1   0.0000
   412 H255     -0.7034   -4.0439   -1.5933   H         1 RES1   0.0000
   413 H256      0.8113   -4.6141   -0.9457   H         1 RES1   0.0000
   414 H257     -1.8570   -4.8903    0.4732   H         1 RES1   0.0000
   415 H258     -0.7828   -3.4713    0.6186   H         1 RES1   0.0000
   416 H259      0.7681   -4.7393    1.8967   H         1 RES1   0.0000
   417 H260      0.0818   -6.2916    1.3883   H         1 RES1   0.0000
   418 H261     -1.3640   -4.1898    3.0416   H         1 RES1   0.0000
   419 H262     -0.6197   -5.6494    3.7112   H         1 RES1   0.0000
   420 H263     -1.9967   -5.7963    2.6242   H         1 RES1   0.0000
   421 H264     -3.0930   -1.9344   -5.1107   H         1 RES1   0.0000
   422 H265     -3.6783   -1.4187   -3.5448   H         1 RES1   0.0000
   423 H266     -5.1914   -2.5185   -5.3727   H         1 RES1   0.0000
   424 H267     -4.6618   -4.0531   -4.7336   H         1 RES1   0.0000
   425 H268     -5.6889   -2.1044   -2.7255   H         1 RES1   0.0000
   426 H269     -5.9481   -3.8535   -2.8232   H         1 RES1   0.0000
   427 H270     -7.7773   -3.5622   -4.3176   H         1 RES1   0.0000
   428 H271     -7.3791   -1.8779   -4.5983   H         1 RES1   0.0000
   429 H272     -9.3034   -2.3534   -2.9545   H         1 RES1   0.0000
   430 H273     -8.0994   -1.1599   -2.5068   H         1 RES1   0.0000
   431 H274     -6.9703   -2.7764   -1.0326   H         1 RES1   0.0000
   432 H275     -8.1724   -4.0001   -1.4573   H         1 RES1   0.0000
   433 H276     -8.9854   -3.2397    0.5533   H         1 RES1   0.0000
   434 H277     -9.8702   -2.1767   -0.5232   H         1 RES1   0.0000
   435 H278     -7.3207   -1.5299    1.0474   H         1 RES1   0.0000
   436 H279     -8.9363   -0.9248    1.3816   H         1 RES1   0.0000
   437 H280     -8.0953   -0.3920   -0.0690   H         1 RES1   0.0000
   438 O9       -1.8173    1.3191   -0.9509   O.3       1 RES1   0.0000
   439 H281     -1.3175    2.1449   -1.0700   H         1 RES1   0.0000
   440 H282     -2.4911    1.4750   -0.2644   H         1 RES1   0.0000
@<TRIPOS>BOND
     1     1    20    1
     2     1    23    1
     3     1   129    1
     4     1   132    1
     5     1   238    1
     6     1   241    1
     7     1   347    1
     8     1   350    1
     9     1   438    1
    10     2     3    1
    11     2    41    1
    12     2    42    1
    13     2    43    1
    14     3     4    1
    15     3    44    1
    16     3    45    1
    17     4     5    1
    18     4    46    1
    19     4    47    1
    20     5     6    1
    21     5    48    1
    22     5    49    1
    23     6     7    1
    24     6    50    1
    25     6    51    1
    26     7     8    1
    27     7    52    1
    28     7    53    1
    29     8     9    1
    30     8    54    1
    31     8    55    1
    32     9    10    1
    33     9    56    1
    34     9    57    1
    35    10    11    1
    36    10    19    1
    37    11    12    1
    38    11    58    1
    39    11    59    1
    40    12    13    1
    41    12    60    1
    42    12    61    1
    43    13    14    1
    44    13    62    1
    45    13    63    1
    46    14    15    1
    47    14    64    1
    48    14    65    1
    49    15    16    1
    50    15    66    1
    51    15    67    1
    52    16    17    1
    53    16    68    1
    54    16    69    1
    55    17    18    1
    56    17    70    1
    57    17    71    1
    58    18    72    1
    59    18    73    1
    60    18    74    1
    61    19    20    2
    62    19    21    1
    63    21    22    1
    64    21    75    1
    65    21    76    1
    66    22    23    2
    67    22    24    1
    68    24    25    1
    69    24    33    1
    70    25    26    1
    71    25    77    1
    72    25    78    1
    73    26    27    1
    74    26    79    1
    75    26    80    1
    76    27    28    1
    77    27    81    1
    78    27    82    1
    79    28    29    1
    80    28    83    1
    81    28    84    1
    82    29    30    1
    83    29    85    1
    84    29    86    1
    85    30    31    1
    86    30    87    1
    87    30    88    1
    88    31    32    1
    89    31    89    1
    90    31    90    1
    91    32    91    1
    92    32    92    1
    93    32    93    1
    94    33    34    1
    95    33    94    1
    96    33    95    1
    97    34    35    1
    98    34    96    1
    99    34    97    1
   100    35    36    1
   101    35    98    1
   102    35    99    1
   103    36    37    1
   104    36   100    1
   105    36   101    1
   106    37    38    1
   107    37   102    1
   108    37   103    1
   109    38    39    1
   110    38   104    1
   111    38   105    1
   112    39    40    1
   113    39   106    1
   114    39   107    1
   115    40   108    1
   116    40   109    1
   117    40   110    1
   118   111   112    1
   119   111   150    1
   120   111   151    1
   121   111   152    1
   122   112   113    1
   123   112   153    1
   124   112   154    1
   125   113   114    1
   126   113   155    1
   127   113   156    1
   128   114   115    1
   129   114   157    1
   130   114   158    1
   131   115   116    1
   132   115   159    1
   133   115   160    1
   134   116   117    1
   135   116   161    1
   136   116   162    1
   137   117   118    1
   138   117   163    1
   139   117   164    1
   140   118   119    1
   141   118   165    1
   142   118   166    1
   143   119   120    1
   144   119   128    1
   145   120   121    1
   146   120   167    1
   147   120   168    1
   148   121   122    1
   149   121   169    1
   150   121   170    1
   151   122   123    1
   152   122   171    1
   153   122   172    1
   154   123   124    1
   155   123   173    1
   156   123   174    1
   157   124   125    1
   158   124   175    1
   159   124   176    1
   160   125   126    1
   161   125   177    1
   162   125   178    1
   163   126   127    1
   164   126   179    1
   165   126   180    1
   166   127   181    1
   167   127   182    1
   168   127   183    1
   169   128   129    2
   170   128   130    1
   171   130   131    1
   172   130   184    1
   173   130   185    1
   174   131   132    2
   175   131   133    1
   176   133   134    1
   177   133   142    1
   178   134   135    1
   179   134   186    1
   180   134   187    1
   181   135   136    1
   182   135   188    1
   183   135   189    1
   184   136   137    1
   185   136   190    1
   186   136   191    1
   187   137   138    1
   188   137   192    1
   189   137   193    1
   190   138   139    1
   191   138   194    1
   192   138   195    1
   193   139   140    1
   194   139   196    1
   195   139   197    1
   196   140   141    1
   197   140   198    1
   198   140   199    1
   199   141   200    1
   200   141   201    1
   201   141   202    1
   202   142   143    1
   203   142   203    1
   204   142   204    1
   205   143   144    1
   206   143   205    1
   207   143   206    1
   208   144   145    1
   209   144   207    1
   210   144   208    1
   211   145   146    1
   212   145   209    1
   213   145   210    1
   214   146   147    1
   215   146   211    1
   216   146   212    1
   217   147   148    1
   218   147   213    1
   219   147   214    1
   220   148   149    1
   221   148   215    1
   222   148   216    1
   223   149   217    1
   224   149   218    1
   225   149   219    1
   226   220   221    1
   227   220   259    1
   228   220   260    1
   229   220   261    1
   230   221   222    1
   231   221   262    1
   232   221   263    1
   233   222   223    1
   234   222   264    1
   235   222   265    1
   236   223   224    1
   237   223   266    1
   238   223   267    1
   239   224   225    1
   240   224   268    1
   241   224   269    1
   242   225   226    1
   243   225   270    1
   244   225   271    1
   245   226   227    1
   246   226   272    1
   247   226   273    1
   248   227   228    1
   249   227   274    1
   250   227   275    1
   251   228   229    1
   252   228   237    1
   253   229   230    1
   254   229   276    1
   255   229   277    1
   256   230   231    1
   257   230   278    1
   258   230   279    1
   259   231   232    1
   260   231   280    1
   261   231   281    1
   262   232   233    1
   263   232   282    1
   264   232   283    1
   265   233   234    1
   266   233   284    1
   267   233   285    1
   268   234   235    1
   269   234   286    1
   270   234   287    1
   271   235   236    1
   272   235   288    1
   273   235   289    1
   274   236   290    1
   275   236   291    1
   276   236   292    1
   277   237   238    2
   278   237   239    1
   279   239   240    1
   280   239   293    1
   281   239   294    1
   282   240   241    2
   283   240   242    1
   284   242   243    1
   285   242   251    1
   286   243   244    1
   287   243   295    1
   288   243   296    1
   289   244   245    1
   290   244   297    1
   291   244   298    1
   292   245   246    1
   293   245   299    1
   294   245   300    1
   295   246   247    1
   296   246   301    1
   297   246   302    1
   298   247   248    1
   299   247   303    1
   300   247   304    1
   301   248   249    1
   302   248   305    1
   303   248   306    1
   304   249   250    1
   305   249   307    1
   306   249   308    1
   307   250   309    1
   308   250   310    1
   309   250   311    1
   310   251   252    1
   311   251   312    1
   312   251   313    1
   313   252   253    1
   314   252   314    1
   315   252   315    1
   316   253   254    1
   317   253   316    1
   318   253   317    1
   319   254   255    1
   320   254   318    1
   321   254   319    1
   322   255   256    1
   323   255   320    1
   324   255   321    1
   325   256   257    1
   326   256   322    1
   327   256   323    1
   328   257   258    1
   329   257   324    1
   330   257   325    1
   331   258   326    1
   332   258   327    1
   333   258   328    1
   334   329   330    1
   335   329   368    1
   336   329   369    1
   337   329   370    1
   338   330   331    1
   339   330   371    1
   340   330   372    1
   341   331   332    1
   342   331   373    1
   343   331   374    1
   344   332   333    1
   345   332   375    1
   346   332   376    1
   347   333   334    1
   348   333   377    1
   349   333   378    1
   350   334   335    1
   351   334   379    1
   352   334   380    1
   353   335   336    1
   354   335   381    1
   355   335   382    1
   356   336   337    1
   357   336   383    1
   358   336   384    1
   359   337   338    1
   360   337   346    1
   361   338   339    1
   362   338   385    1
   363   338   386    1
   364   339   340    1
   365   339   387    1
   366   339   388    1
   367   340   341    1
   368   340   389    1
   369   340   390    1
   370   341   342    1
   371   341   391    1
   372   341   392    1
   373   342   343    1
   374   342   393    1
   375   342   394    1
   376   343   344    1
   377   343   395    1
   378   343   396    1
   379   344   345    1
   380   344   397    1
   381   344   398    1
   382   345   399    1
   383   345   400    1
   384   345   401    1
   385   346   347    2
   386   346   348    1
   387   348   349    1
   388   348   402    1
   389   348   403    1
   390   349   350    2
   391   349   351    1
   392   351   352    1
   393   351   360    1
   394   352   353    1
   395   352   404    1
   396   352   405    1
   397   353   354    1
   398   353   406    1
   399   353   407    1
   400   354   355    1
   401   354   408    1
   402   354   409    1
   403   355   356    1
   404   355   410    1
   405   355   411    1
   406   356   357    1
   407   356   412    1
   408   356   413    1
   409   357   358    1
   410   357   414    1
   411   357   415    1
   412   358   359    1
   413   358   416    1
   414   358   417    1
   415   359   418    1
   416   359   419    1
   417   359   420    1
   418   360   361    1
   419   360   421    1
   420   360   422    1
   421   361   362    1
   422   361   423    1
   423   361   424    1
   424   362   363    1
   425   362   425    1
   426   362   426    1
   427   363   364    1
   428   363   427    1
   429   363   428    1
   430   364   365    1
   431   364   429    1
   432   364   430    1
   433   365   366    1
   434   365   431    1
   435   365   432    1
   436   366   367    1
   437   366   433    1
   438   366   434    1
   439   367   435    1
   440   367   436    1
   441   367   437    1
   442   438   439    1
   443   438   440    1
@<TRIPOS>SUBSTRUCTURE
     1 RES1      440 GROUP             0 ****  ****    0  
