@<TRIPOS>MOLECULE
am_c3_9H2O_c0_0_nunpairedes_0_charge_3 Charge: 3 Unpaired_Electrons: 3 XTB_Unpaired_Electrons: 0 XTB_Charge: 3
   340   345     1     0     0
SMALL
NoCharges
****
Generated from Architector

@<TRIPOS>ATOM
     1 Nd1      -0.3808    0.0652    0.2092   Nd        1 RES1   0.0000
     2 C1        0.7219    2.6078    7.4655   C.3       1 RES1   0.0000
     3 C2        1.6929    2.2043    6.3607   C.3       1 RES1   0.0000
     4 C3        1.2624    2.6739    4.9684   C.3       1 RES1   0.0000
     5 C4        1.2203    4.1983    4.8572   C.3       1 RES1   0.0000
     6 C5        1.0763    4.7688    3.4325   C.3       1 RES1   0.0000
     7 C6        1.2238    6.3009    3.4630   C.3       1 RES1   0.0000
     8 C7        2.5151    6.8130    4.1070   C.3       1 RES1   0.0000
     9 C8       -0.2824    4.3170    2.8718   C.3       1 RES1   0.0000
    10 N1       -0.5486    4.4318    1.4294   N.am      1 RES1   0.0000
    11 C9       -1.0271    5.7312    0.9675   C.3       1 RES1   0.0000
    12 C10      -0.4077    6.3336   -0.3084   C.3       1 RES1   0.0000
    13 C11      -0.9405    7.7697   -0.4577   C.3       1 RES1   0.0000
    14 C12      -2.4482    7.8361   -0.6827   C.3       1 RES1   0.0000
    15 C13       1.1287    6.2937   -0.3084   C.3       1 RES1   0.0000
    16 C14       1.7288    6.6378   -1.6757   C.3       1 RES1   0.0000
    17 C15       3.2613    6.6352   -1.7053   C.3       1 RES1   0.0000
    18 C16       3.8740    5.2471   -1.8510   C.3       1 RES1   0.0000
    19 C17      -0.7261    3.3022    0.7500   C.2       1 RES1   0.0000
    20 O1       -0.4056    2.1851    1.2060   O.2       1 RES1   0.0000
    21 C18      -1.4148    3.3349   -0.6224   C.3       1 RES1   0.0000
    22 O2       -1.6375    1.9938   -1.0264   O.3       1 RES1   0.0000
    23 C19      -2.9414    1.6932   -1.5109   C.3       1 RES1   0.0000
    24 C20      -3.3325    0.3236   -0.9417   C.2       1 RES1   0.0000
    25 O3       -2.6638   -0.0747    0.0354   O.2       1 RES1   0.0000
    26 N2       -4.2967   -0.3990   -1.4964   N.am      1 RES1   0.0000
    27 C21      -5.1733    0.0218   -2.5953   C.3       1 RES1   0.0000
    28 C22      -6.0892    1.2528   -2.3648   C.3       1 RES1   0.0000
    29 C23      -5.6587    2.4644   -3.2164   C.3       1 RES1   0.0000
    30 C24      -5.8849    3.8064   -2.5295   C.3       1 RES1   0.0000
    31 C25      -7.5591    0.9433   -2.7219   C.3       1 RES1   0.0000
    32 C26      -8.3434    0.0531   -1.7436   C.3       1 RES1   0.0000
    33 C27      -8.5292   -1.4073   -2.1671   C.3       1 RES1   0.0000
    34 C28      -9.3943   -1.5710   -3.4096   C.3       1 RES1   0.0000
    35 C29      -4.3244   -1.8311   -1.1753   C.3       1 RES1   0.0000
    36 C30      -5.3379   -2.2749   -0.1090   C.3       1 RES1   0.0000
    37 C31      -5.8637   -3.6624   -0.5026   C.3       1 RES1   0.0000
    38 C32      -6.9932   -4.1537    0.3924   C.3       1 RES1   0.0000
    39 C33      -4.7056   -2.2698    1.2937   C.3       1 RES1   0.0000
    40 C34      -5.5872   -1.6710    2.3954   C.3       1 RES1   0.0000
    41 C35      -5.5337   -0.1422    2.4876   C.3       1 RES1   0.0000
    42 C36      -6.4622    0.6095    1.5477   C.3       1 RES1   0.0000
    43 H1        1.0239    2.1605    8.4085   H         1 RES1   0.0000
    44 H2        0.7007    3.6860    7.6019   H         1 RES1   0.0000
    45 H3       -0.2869    2.2655    7.2403   H         1 RES1   0.0000
    46 H4        2.6830    2.6043    6.5913   H         1 RES1   0.0000
    47 H5        1.7707    1.1137    6.3472   H         1 RES1   0.0000
    48 H6        1.9670    2.2822    4.2376   H         1 RES1   0.0000
    49 H7        0.2924    2.2352    4.7424   H         1 RES1   0.0000
    50 H8        0.3954    4.5874    5.4549   H         1 RES1   0.0000
    51 H9        2.1482    4.5869    5.2761   H         1 RES1   0.0000
    52 H10       1.8646    4.3625    2.7916   H         1 RES1   0.0000
    53 H11       1.2029    6.6717    2.4382   H         1 RES1   0.0000
    54 H12       0.3780    6.7295    4.0036   H         1 RES1   0.0000
    55 H13       3.3823    6.2560    3.7542   H         1 RES1   0.0000
    56 H14       2.6506    7.8600    3.8446   H         1 RES1   0.0000
    57 H15       2.4799    6.7551    5.1921   H         1 RES1   0.0000
    58 H16      -0.3905    3.2562    3.1004   H         1 RES1   0.0000
    59 H17      -1.0668    4.8741    3.3882   H         1 RES1   0.0000
    60 H18      -2.1098    5.6739    0.8186   H         1 RES1   0.0000
    61 H19      -0.8490    6.4302    1.7831   H         1 RES1   0.0000
    62 H20      -0.7526    5.7783   -1.1850   H         1 RES1   0.0000
    63 H21      -0.6737    8.3512    0.4238   H         1 RES1   0.0000
    64 H22      -0.4521    8.2320   -1.3143   H         1 RES1   0.0000
    65 H23      -3.0048    7.6359    0.2291   H         1 RES1   0.0000
    66 H24      -2.7277    8.8290   -1.0202   H         1 RES1   0.0000
    67 H25      -2.7525    7.1251   -1.4480   H         1 RES1   0.0000
    68 H26       1.5189    7.0059    0.4193   H         1 RES1   0.0000
    69 H27       1.4582    5.2947   -0.0080   H         1 RES1   0.0000
    70 H28       1.3518    5.9444   -2.4325   H         1 RES1   0.0000
    71 H29       1.4006    7.6355   -1.9610   H         1 RES1   0.0000
    72 H30       3.5955    7.2399   -2.5504   H         1 RES1   0.0000
    73 H31       3.6434    7.1121   -0.8014   H         1 RES1   0.0000
    74 H32       3.5285    4.7739   -2.7664   H         1 RES1   0.0000
    75 H33       4.9572    5.3202   -1.9051   H         1 RES1   0.0000
    76 H34       3.6112    4.6109   -1.0090   H         1 RES1   0.0000
    77 H35      -2.3666    3.8753   -0.5305   H         1 RES1   0.0000
    78 H36      -0.8117    3.8364   -1.3895   H         1 RES1   0.0000
    79 H37      -3.6686    2.4492   -1.1923   H         1 RES1   0.0000
    80 H38      -2.9174    1.6708   -2.6101   H         1 RES1   0.0000
    81 H39      -4.5571    0.1818   -3.4884   H         1 RES1   0.0000
    82 H40      -5.8172   -0.8325   -2.7959   H         1 RES1   0.0000
    83 H41      -6.0416    1.5289   -1.3079   H         1 RES1   0.0000
    84 H42      -4.6109    2.3830   -3.4966   H         1 RES1   0.0000
    85 H43      -6.2250    2.4536   -4.1462   H         1 RES1   0.0000
    86 H44      -5.3152    3.8868   -1.6032   H         1 RES1   0.0000
    87 H45      -5.5840    4.6159   -3.1914   H         1 RES1   0.0000
    88 H46      -6.9337    3.9502   -2.2854   H         1 RES1   0.0000
    89 H47      -8.0690    1.9065   -2.7741   H         1 RES1   0.0000
    90 H48      -7.5914    0.5143   -3.7234   H         1 RES1   0.0000
    91 H49      -7.8703    0.0901   -0.7626   H         1 RES1   0.0000
    92 H50      -9.3427    0.4742   -1.6223   H         1 RES1   0.0000
    93 H51      -7.5664   -1.8937   -2.3359   H         1 RES1   0.0000
    94 H52      -9.0181   -1.9293   -1.3424   H         1 RES1   0.0000
    95 H53      -8.9109   -1.1615   -4.2916   H         1 RES1   0.0000
    96 H54      -9.5959   -2.6223   -3.5932   H         1 RES1   0.0000
    97 H55     -10.3460   -1.0654   -3.2789   H         1 RES1   0.0000
    98 H56      -4.5374   -2.3503   -2.1086   H         1 RES1   0.0000
    99 H57      -3.3122   -2.1059   -0.8646   H         1 RES1   0.0000
   100 H58      -6.1831   -1.5856   -0.1321   H         1 RES1   0.0000
   101 H59      -6.2501   -3.6135   -1.5231   H         1 RES1   0.0000
   102 H60      -5.0413   -4.3842   -0.4934   H         1 RES1   0.0000
   103 H61      -7.8144   -3.4409    0.3953   H         1 RES1   0.0000
   104 H62      -7.3753   -5.1005    0.0184   H         1 RES1   0.0000
   105 H63      -6.6607   -4.3008    1.4152   H         1 RES1   0.0000
   106 H64      -4.4582   -3.2991    1.5670   H         1 RES1   0.0000
   107 H65      -3.7662   -1.7075    1.2741   H         1 RES1   0.0000
   108 H66      -6.6210   -1.9913    2.2771   H         1 RES1   0.0000
   109 H67      -5.2365   -2.0707    3.3511   H         1 RES1   0.0000
   110 H68      -5.8211    0.1400    3.5012   H         1 RES1   0.0000
   111 H69      -4.5085    0.1826    2.3063   H         1 RES1   0.0000
   112 H70      -7.4805    0.2494    1.6516   H         1 RES1   0.0000
   113 H71      -6.4651    1.6690    1.7925   H         1 RES1   0.0000
   114 H72      -6.1387    0.4968    0.5196   H         1 RES1   0.0000
   115 C37       2.7390   -4.5553   -7.6187   C.3       1 RES1   0.0000
   116 C38       1.4708   -3.8336   -8.0586   C.3       1 RES1   0.0000
   117 C39       0.9024   -2.8432   -7.0285   C.3       1 RES1   0.0000
   118 C40       1.5922   -1.4743   -7.0333   C.3       1 RES1   0.0000
   119 C41       0.8640   -0.3432   -6.2434   C.3       1 RES1   0.0000
   120 C42       0.6723    0.8517   -7.1894   C.3       1 RES1   0.0000
   121 C43      -0.5094    0.6069   -8.1326   C.3       1 RES1   0.0000
   122 C44       1.6151   -0.0811   -4.9047   C.3       1 RES1   0.0000
   123 N3        1.5763    1.2027   -4.1749   N.am      1 RES1   0.0000
   124 C45       2.3364    2.2880   -4.7951   C.3       1 RES1   0.0000
   125 C46       1.6797    3.6833   -4.8871   C.3       1 RES1   0.0000
   126 C47       2.3793    4.4736   -6.0096   C.3       1 RES1   0.0000
   127 C48       3.7852    4.9483   -5.6627   C.3       1 RES1   0.0000
   128 C49       0.1683    3.6348   -5.1546   C.3       1 RES1   0.0000
   129 C50      -0.5658    4.9150   -4.7450   C.3       1 RES1   0.0000
   130 C51      -1.9011    5.0656   -5.4785   C.3       1 RES1   0.0000
   131 C52      -2.8917    3.9626   -5.1279   C.3       1 RES1   0.0000
   132 C53       1.2671    1.1897   -2.8713   C.2       1 RES1   0.0000
   133 O4        0.6196    0.2885   -2.3111   O.2       1 RES1   0.0000
   134 C54       1.8228    2.3041   -1.9647   C.3       1 RES1   0.0000
   135 O5        1.5998    1.8717   -0.6270   O.3       1 RES1   0.0000
   136 C55       2.6275    2.1525    0.3095   C.3       1 RES1   0.0000
   137 C56       2.6121    1.0532    1.3777   C.2       1 RES1   0.0000
   138 O6        1.8166    0.1038    1.2111   O.2       1 RES1   0.0000
   139 N4        3.4654    1.1342    2.3971   N.am      1 RES1   0.0000
   140 C57       4.1166    2.3770    2.8583   C.3       1 RES1   0.0000
   141 C58       5.4050    2.9302    2.1898   C.3       1 RES1   0.0000
   142 C59       5.1038    4.3196    1.5914   C.3       1 RES1   0.0000
   143 C60       6.2323    4.9553    0.7861   C.3       1 RES1   0.0000
   144 C61       6.5491    3.1249    3.2014   C.3       1 RES1   0.0000
   145 C62       7.1552    1.8890    3.8777   C.3       1 RES1   0.0000
   146 C63       6.6124    1.5449    5.2696   C.3       1 RES1   0.0000
   147 C64       6.6324    2.7127    6.2526   C.3       1 RES1   0.0000
   148 C65       3.4852    0.0072    3.3410   C.3       1 RES1   0.0000
   149 C66       4.6317   -0.9942    3.1016   C.3       1 RES1   0.0000
   150 C67       4.9665   -1.6848    4.4351   C.3       1 RES1   0.0000
   151 C68       6.2486   -2.5071    4.4033   C.3       1 RES1   0.0000
   152 C69       4.2463   -2.0149    2.0133   C.3       1 RES1   0.0000
   153 C70       5.3695   -2.4166    1.0485   C.3       1 RES1   0.0000
   154 C71       5.3440   -1.6527   -0.2754   C.3       1 RES1   0.0000
   155 C72       5.8728   -0.2294   -0.1764   C.3       1 RES1   0.0000
   156 H73       3.0831   -5.1981   -8.4230   H         1 RES1   0.0000
   157 H74       3.5388   -3.8576   -7.3791   H         1 RES1   0.0000
   158 H75       2.5507   -5.1884   -6.7513   H         1 RES1   0.0000
   159 H76       1.6680   -3.3036   -8.9918   H         1 RES1   0.0000
   160 H77       0.7066   -4.5880   -8.2630   H         1 RES1   0.0000
   161 H78      -0.1549   -2.6966   -7.2610   H         1 RES1   0.0000
   162 H79       0.9803   -3.3065   -6.0418   H         1 RES1   0.0000
   163 H80       2.6190   -1.5821   -6.6806   H         1 RES1   0.0000
   164 H81       1.6577   -1.1641   -8.0785   H         1 RES1   0.0000
   165 H82      -0.1474   -0.6793   -5.9902   H         1 RES1   0.0000
   166 H83       0.4631    1.7479   -6.6173   H         1 RES1   0.0000
   167 H84       1.5744    1.0207   -7.7833   H         1 RES1   0.0000
   168 H85      -1.4481    0.6063   -7.5769   H         1 RES1   0.0000
   169 H86      -0.5607    1.3863   -8.8905   H         1 RES1   0.0000
   170 H87      -0.4088   -0.3500   -8.6389   H         1 RES1   0.0000
   171 H88       1.2533   -0.8167   -4.1824   H         1 RES1   0.0000
   172 H89       2.6778   -0.2619   -5.0919   H         1 RES1   0.0000
   173 H90       3.3001    2.3907   -4.2846   H         1 RES1   0.0000
   174 H91       2.5486    1.9672   -5.8133   H         1 RES1   0.0000
   175 H92       1.8368    4.2225   -3.9483   H         1 RES1   0.0000
   176 H93       2.4177    3.8563   -6.9090   H         1 RES1   0.0000
   177 H94       1.7719    5.3448   -6.2553   H         1 RES1   0.0000
   178 H95       4.4247    4.1269   -5.3512   H         1 RES1   0.0000
   179 H96       4.2448    5.4085   -6.5325   H         1 RES1   0.0000
   180 H97       3.7537    5.6905   -4.8703   H         1 RES1   0.0000
   181 H98      -0.0044    3.5104   -6.2255   H         1 RES1   0.0000
   182 H99      -0.2750    2.7807   -4.6353   H         1 RES1   0.0000
   183 H100     -0.7396    4.9219   -3.6638   H         1 RES1   0.0000
   184 H101      0.0528    5.7806   -4.9852   H         1 RES1   0.0000
   185 H102     -2.3400    6.0322   -5.2245   H         1 RES1   0.0000
   186 H103     -1.7237    5.0612   -6.5549   H         1 RES1   0.0000
   187 H104     -3.0794    3.9624   -4.0557   H         1 RES1   0.0000
   188 H105     -3.8356    4.1250   -5.6422   H         1 RES1   0.0000
   189 H106     -2.5110    2.9865   -5.4229   H         1 RES1   0.0000
   190 H107      2.8935    2.4340   -2.1540   H         1 RES1   0.0000
   191 H108      1.3222    3.2659   -2.1286   H         1 RES1   0.0000
   192 H109      3.6133    2.1534   -0.1741   H         1 RES1   0.0000
   193 H110      2.4632    3.1297    0.7833   H         1 RES1   0.0000
   194 H111      3.3635    3.1684    2.8287   H         1 RES1   0.0000
   195 H112      4.3568    2.2064    3.9042   H         1 RES1   0.0000
   196 H113      5.7377    2.2513    1.4023   H         1 RES1   0.0000
   197 H114      4.2300    4.2547    0.9436   H         1 RES1   0.0000
   198 H115      4.8461    4.9894    2.4136   H         1 RES1   0.0000
   199 H116      6.5976    4.2792    0.0181   H         1 RES1   0.0000
   200 H117      5.8661    5.8583    0.3049   H         1 RES1   0.0000
   201 H118      7.0648    5.2441    1.4180   H         1 RES1   0.0000
   202 H119      7.3517    3.6100    2.6492   H         1 RES1   0.0000
   203 H120      6.2227    3.8320    3.9624   H         1 RES1   0.0000
   204 H121      7.0661    1.0207    3.2202   H         1 RES1   0.0000
   205 H122      8.2241    2.0721    3.9930   H         1 RES1   0.0000
   206 H123      5.5950    1.1549    5.2037   H         1 RES1   0.0000
   207 H124      7.2445    0.7489    5.6681   H         1 RES1   0.0000
   208 H125      5.8056    3.4009    6.0856   H         1 RES1   0.0000
   209 H126      6.5473    2.3417    7.2704   H         1 RES1   0.0000
   210 H127      7.5628    3.2703    6.1727   H         1 RES1   0.0000
   211 H128      3.5620    0.4144    4.3478   H         1 RES1   0.0000
   212 H129      2.5202   -0.5032    3.2738   H         1 RES1   0.0000
   213 H130      5.5115   -0.4302    2.7813   H         1 RES1   0.0000
   214 H131      5.0834   -0.9236    5.2075   H         1 RES1   0.0000
   215 H132      4.1323   -2.3272    4.7265   H         1 RES1   0.0000
   216 H133      7.0956   -1.8909    4.1130   H         1 RES1   0.0000
   217 H134      6.4509   -2.9000    5.3965   H         1 RES1   0.0000
   218 H135      6.1751   -3.3426    3.7140   H         1 RES1   0.0000
   219 H136      3.8842   -2.9127    2.5177   H         1 RES1   0.0000
   220 H137      3.4153   -1.6130    1.4285   H         1 RES1   0.0000
   221 H138      6.3389   -2.2831    1.5237   H         1 RES1   0.0000
   222 H139      5.2662   -3.4784    0.8221   H         1 RES1   0.0000
   223 H140      5.9503   -2.1921   -1.0024   H         1 RES1   0.0000
   224 H141      4.3163   -1.6290   -0.6483   H         1 RES1   0.0000
   225 H142      6.9131   -0.2291    0.1374   H         1 RES1   0.0000
   226 H143      5.8216    0.2666   -1.1446   H         1 RES1   0.0000
   227 H144      5.2904    0.3407    0.5426   H         1 RES1   0.0000
   228 C73      -3.8338   -4.6867   -7.3405   C.3       1 RES1   0.0000
   229 C74      -2.6733   -3.7197   -7.1414   C.3       1 RES1   0.0000
   230 C75      -2.9158   -2.7220   -6.0094   C.3       1 RES1   0.0000
   231 C76      -3.0167   -3.3519   -4.6223   C.3       1 RES1   0.0000
   232 C77      -1.7210   -3.9760   -4.0827   C.3       1 RES1   0.0000
   233 C78      -2.0280   -4.8957   -2.8893   C.3       1 RES1   0.0000
   234 C79      -2.9237   -6.0739   -3.2723   C.3       1 RES1   0.0000
   235 C80      -0.7282   -2.8467   -3.7214   C.3       1 RES1   0.0000
   236 N5        0.1887   -3.2011   -2.6434   N.am      1 RES1   0.0000
   237 C81       1.1913   -4.2398   -2.8763   C.3       1 RES1   0.0000
   238 C82       2.6559   -3.7735   -2.7301   C.3       1 RES1   0.0000
   239 C83       3.1509   -3.0782   -4.0081   C.3       1 RES1   0.0000
   240 C84       4.3110   -2.1263   -3.7487   C.3       1 RES1   0.0000
   241 C85       3.6078   -4.9437   -2.4269   C.3       1 RES1   0.0000
   242 C86       3.3252   -5.7907   -1.1744   C.3       1 RES1   0.0000
   243 C87       2.9518   -7.2359   -1.5154   C.3       1 RES1   0.0000
   244 C88       2.9308   -8.1315   -0.2831   C.3       1 RES1   0.0000
   245 C89      -0.0432   -2.6433   -1.4640   C.2       1 RES1   0.0000
   246 O7       -0.8563   -1.7124   -1.2950   O.2       1 RES1   0.0000
   247 C90       0.6296   -3.2005   -0.2088   C.3       1 RES1   0.0000
   248 O8        0.3089   -2.2852    0.8236   O.3       1 RES1   0.0000
   249 C91       0.2327   -2.8610    2.1146   C.3       1 RES1   0.0000
   250 C92      -0.6868   -1.9530    2.9635   C.2       1 RES1   0.0000
   251 O9       -1.1405   -0.9395    2.4033   O.2       1 RES1   0.0000
   252 N6       -0.9307   -2.3534    4.2058   N.am      1 RES1   0.0000
   253 C93      -2.0356   -1.9508    5.1015   C.3       1 RES1   0.0000
   254 C94      -2.8062   -0.6185    5.0490   C.3       1 RES1   0.0000
   255 C95      -3.6357   -0.6580    6.3596   C.3       1 RES1   0.0000
   256 C96      -4.9909    0.0449    6.3593   C.3       1 RES1   0.0000
   257 C97      -1.8775    0.5980    4.9633   C.3       1 RES1   0.0000
   258 C98      -2.5550    1.9582    5.1691   C.3       1 RES1   0.0000
   259 C99      -3.7025    2.2871    4.2120   C.3       1 RES1   0.0000
   260 C100     -3.2702    2.5666    2.7750   C.3       1 RES1   0.0000
   261 C101     -0.1923   -3.4838    4.7885   C.3       1 RES1   0.0000
   262 C102      1.1762   -3.1192    5.4196   C.3       1 RES1   0.0000
   263 C103      0.9974   -2.3440    6.7362   C.3       1 RES1   0.0000
   264 C104      2.2900   -1.8100    7.3470   C.3       1 RES1   0.0000
   265 C105      1.9691   -4.4182    5.6612   C.3       1 RES1   0.0000
   266 C106      2.6164   -5.0391    4.4103   C.3       1 RES1   0.0000
   267 C107      2.0404   -6.4052    4.0222   C.3       1 RES1   0.0000
   268 C108      2.5425   -7.5459    4.9014   C.3       1 RES1   0.0000
   269 H145     -3.7167   -5.2025   -8.2878   H         1 RES1   0.0000
   270 H146     -3.8818   -5.4432   -6.5602   H         1 RES1   0.0000
   271 H147     -4.7806   -4.1493   -7.3605   H         1 RES1   0.0000
   272 H148     -1.7617   -4.2901   -6.9638   H         1 RES1   0.0000
   273 H149     -2.5380   -3.1529   -8.0636   H         1 RES1   0.0000
   274 H150     -2.1325   -1.9604   -6.0089   H         1 RES1   0.0000
   275 H151     -3.8604   -2.2152   -6.2188   H         1 RES1   0.0000
   276 H152     -3.3379   -2.5836   -3.9114   H         1 RES1   0.0000
   277 H153     -3.7887   -4.1165   -4.6610   H         1 RES1   0.0000
   278 H154     -1.2742   -4.6041   -4.8582   H         1 RES1   0.0000
   279 H155     -1.0932   -5.3188   -2.5214   H         1 RES1   0.0000
   280 H156     -2.4795   -4.3101   -2.0833   H         1 RES1   0.0000
   281 H157     -2.6174   -6.4874   -4.2345   H         1 RES1   0.0000
   282 H158     -2.8420   -6.8615   -2.5323   H         1 RES1   0.0000
   283 H159     -3.9714   -5.7898   -3.3273   H         1 RES1   0.0000
   284 H160     -0.1581   -2.5605   -4.6061   H         1 RES1   0.0000
   285 H161     -1.2848   -1.9769   -3.3673   H         1 RES1   0.0000
   286 H162      1.0158   -5.0743   -2.1941   H         1 RES1   0.0000
   287 H163      1.0417   -4.6068   -3.8934   H         1 RES1   0.0000
   288 H164      2.7185   -3.0403   -1.9194   H         1 RES1   0.0000
   289 H165      3.4643   -3.8284   -4.7341   H         1 RES1   0.0000
   290 H166      2.3262   -2.5214   -4.4451   H         1 RES1   0.0000
   291 H167      5.1706   -2.6610   -3.3573   H         1 RES1   0.0000
   292 H168      4.6246   -1.6392   -4.6673   H         1 RES1   0.0000
   293 H169      4.0263   -1.3662   -3.0271   H         1 RES1   0.0000
   294 H170      3.6220   -5.6015   -3.2969   H         1 RES1   0.0000
   295 H171      4.6066   -4.5114   -2.3427   H         1 RES1   0.0000
   296 H172      4.2218   -5.8162   -0.5518   H         1 RES1   0.0000
   297 H173      2.5334   -5.3421   -0.5688   H         1 RES1   0.0000
   298 H174      1.9730   -7.2676   -1.9992   H         1 RES1   0.0000
   299 H175      3.6789   -7.6308   -2.2246   H         1 RES1   0.0000
   300 H176      2.1982   -7.7849    0.4424   H         1 RES1   0.0000
   301 H177      2.6773   -9.1507   -0.5616   H         1 RES1   0.0000
   302 H178      3.9068   -8.1503    0.1955   H         1 RES1   0.0000
   303 H179      0.1753   -4.1879   -0.0164   H         1 RES1   0.0000
   304 H180      1.7152   -3.3222   -0.3008   H         1 RES1   0.0000
   305 H181      1.2292   -2.9599    2.5594   H         1 RES1   0.0000
   306 H182     -0.2244   -3.8617    2.0437   H         1 RES1   0.0000
   307 H183     -2.7862   -2.7473    5.0030   H         1 RES1   0.0000
   308 H184     -1.6185   -2.0173    6.1070   H         1 RES1   0.0000
   309 H185     -3.4655   -0.6249    4.1805   H         1 RES1   0.0000
   310 H186     -3.8424   -1.7049    6.6085   H         1 RES1   0.0000
   311 H187     -3.0250   -0.2539    7.1696   H         1 RES1   0.0000
   312 H188     -5.6126   -0.3240    5.5420   H         1 RES1   0.0000
   313 H189     -5.5034   -0.1818    7.2904   H         1 RES1   0.0000
   314 H190     -4.9110    1.1279    6.2840   H         1 RES1   0.0000
   315 H191     -1.1007    0.5014    5.7296   H         1 RES1   0.0000
   316 H192     -1.3885    0.5808    3.9857   H         1 RES1   0.0000
   317 H193     -2.9365    2.0066    6.1897   H         1 RES1   0.0000
   318 H194     -1.7954    2.7386    5.0832   H         1 RES1   0.0000
   319 H195     -4.4191    1.4756    4.2159   H         1 RES1   0.0000
   320 H196     -4.2155    3.1721    4.5940   H         1 RES1   0.0000
   321 H197     -2.5846    1.7991    2.4058   H         1 RES1   0.0000
   322 H198     -4.1447    2.5900    2.1274   H         1 RES1   0.0000
   323 H199     -2.7896    3.5397    2.7199   H         1 RES1   0.0000
   324 H200     -0.8154   -3.9251    5.5683   H         1 RES1   0.0000
   325 H201     -0.0375   -4.2590    4.0386   H         1 RES1   0.0000
   326 H202      1.7301   -2.4736    4.7271   H         1 RES1   0.0000
   327 H203      0.3443   -1.4909    6.5476   H         1 RES1   0.0000
   328 H204      0.5120   -2.9943    7.4647   H         1 RES1   0.0000
   329 H205      2.8368   -1.1972    6.6355   H         1 RES1   0.0000
   330 H206      2.0476   -1.2004    8.2129   H         1 RES1   0.0000
   331 H207      2.9453   -2.6073    7.6846   H         1 RES1   0.0000
   332 H208      2.7499   -4.1985    6.3856   H         1 RES1   0.0000
   333 H209      1.3026   -5.1468    6.1213   H         1 RES1   0.0000
   334 H210      3.6883   -5.1559    4.5753   H         1 RES1   0.0000
   335 H211      2.4993   -4.3569    3.5623   H         1 RES1   0.0000
   336 H212      0.9492   -6.3723    4.0726   H         1 RES1   0.0000
   337 H213      2.3165   -6.6219    2.9871   H         1 RES1   0.0000
   338 H214      2.2938   -7.3815    5.9469   H         1 RES1   0.0000
   339 H215      2.0936   -8.4852    4.5868   H         1 RES1   0.0000
   340 H216      3.6218   -7.6467    4.8215   H         1 RES1   0.0000
@<TRIPOS>BOND
     1     1    20    1
     2     1    22    1
     3     1    25    1
     4     1   133    1
     5     1   135    1
     6     1   138    1
     7     1   246    1
     8     1   248    1
     9     1   251    1
    10     2     3    1
    11     2    43    1
    12     2    44    1
    13     2    45    1
    14     3     4    1
    15     3    46    1
    16     3    47    1
    17     4     5    1
    18     4    48    1
    19     4    49    1
    20     5     6    1
    21     5    50    1
    22     5    51    1
    23     6     7    1
    24     6     9    1
    25     6    52    1
    26     7     8    1
    27     7    53    1
    28     7    54    1
    29     8    55    1
    30     8    56    1
    31     8    57    1
    32     9    10    1
    33     9    58    1
    34     9    59    1
    35    10    11    1
    36    10    19    1
    37    11    12    1
    38    11    60    1
    39    11    61    1
    40    12    13    1
    41    12    15    1
    42    12    62    1
    43    13    14    1
    44    13    63    1
    45    13    64    1
    46    14    65    1
    47    14    66    1
    48    14    67    1
    49    15    16    1
    50    15    68    1
    51    15    69    1
    52    16    17    1
    53    16    70    1
    54    16    71    1
    55    17    18    1
    56    17    72    1
    57    17    73    1
    58    18    74    1
    59    18    75    1
    60    18    76    1
    61    19    20    2
    62    19    21    1
    63    21    22    1
    64    21    77    1
    65    21    78    1
    66    22    23    1
    67    23    24    1
    68    23    79    1
    69    23    80    1
    70    24    25    2
    71    24    26    1
    72    26    27    1
    73    26    35    1
    74    27    28    1
    75    27    81    1
    76    27    82    1
    77    28    29    1
    78    28    31    1
    79    28    83    1
    80    29    30    1
    81    29    84    1
    82    29    85    1
    83    30    86    1
    84    30    87    1
    85    30    88    1
    86    31    32    1
    87    31    89    1
    88    31    90    1
    89    32    33    1
    90    32    91    1
    91    32    92    1
    92    33    34    1
    93    33    93    1
    94    33    94    1
    95    34    95    1
    96    34    96    1
    97    34    97    1
    98    35    36    1
    99    35    98    1
   100    35    99    1
   101    36    37    1
   102    36    39    1
   103    36   100    1
   104    37    38    1
   105    37   101    1
   106    37   102    1
   107    38   103    1
   108    38   104    1
   109    38   105    1
   110    39    40    1
   111    39   106    1
   112    39   107    1
   113    40    41    1
   114    40   108    1
   115    40   109    1
   116    41    42    1
   117    41   110    1
   118    41   111    1
   119    42   112    1
   120    42   113    1
   121    42   114    1
   122   115   116    1
   123   115   156    1
   124   115   157    1
   125   115   158    1
   126   116   117    1
   127   116   159    1
   128   116   160    1
   129   117   118    1
   130   117   161    1
   131   117   162    1
   132   118   119    1
   133   118   163    1
   134   118   164    1
   135   119   120    1
   136   119   122    1
   137   119   165    1
   138   120   121    1
   139   120   166    1
   140   120   167    1
   141   121   168    1
   142   121   169    1
   143   121   170    1
   144   122   123    1
   145   122   171    1
   146   122   172    1
   147   123   124    1
   148   123   132    1
   149   124   125    1
   150   124   173    1
   151   124   174    1
   152   125   126    1
   153   125   128    1
   154   125   175    1
   155   126   127    1
   156   126   176    1
   157   126   177    1
   158   127   178    1
   159   127   179    1
   160   127   180    1
   161   128   129    1
   162   128   181    1
   163   128   182    1
   164   129   130    1
   165   129   183    1
   166   129   184    1
   167   130   131    1
   168   130   185    1
   169   130   186    1
   170   131   187    1
   171   131   188    1
   172   131   189    1
   173   132   133    2
   174   132   134    1
   175   134   135    1
   176   134   190    1
   177   134   191    1
   178   135   136    1
   179   136   137    1
   180   136   192    1
   181   136   193    1
   182   137   138    2
   183   137   139    1
   184   139   140    1
   185   139   148    1
   186   140   141    1
   187   140   194    1
   188   140   195    1
   189   141   142    1
   190   141   144    1
   191   141   196    1
   192   142   143    1
   193   142   197    1
   194   142   198    1
   195   143   199    1
   196   143   200    1
   197   143   201    1
   198   144   145    1
   199   144   202    1
   200   144   203    1
   201   145   146    1
   202   145   204    1
   203   145   205    1
   204   146   147    1
   205   146   206    1
   206   146   207    1
   207   147   208    1
   208   147   209    1
   209   147   210    1
   210   148   149    1
   211   148   211    1
   212   148   212    1
   213   149   150    1
   214   149   152    1
   215   149   213    1
   216   150   151    1
   217   150   214    1
   218   150   215    1
   219   151   216    1
   220   151   217    1
   221   151   218    1
   222   152   153    1
   223   152   219    1
   224   152   220    1
   225   153   154    1
   226   153   221    1
   227   153   222    1
   228   154   155    1
   229   154   223    1
   230   154   224    1
   231   155   225    1
   232   155   226    1
   233   155   227    1
   234   228   229    1
   235   228   269    1
   236   228   270    1
   237   228   271    1
   238   229   230    1
   239   229   272    1
   240   229   273    1
   241   230   231    1
   242   230   274    1
   243   230   275    1
   244   231   232    1
   245   231   276    1
   246   231   277    1
   247   232   233    1
   248   232   235    1
   249   232   278    1
   250   233   234    1
   251   233   279    1
   252   233   280    1
   253   234   281    1
   254   234   282    1
   255   234   283    1
   256   235   236    1
   257   235   284    1
   258   235   285    1
   259   236   237    1
   260   236   245    1
   261   237   238    1
   262   237   286    1
   263   237   287    1
   264   238   239    1
   265   238   241    1
   266   238   288    1
   267   239   240    1
   268   239   289    1
   269   239   290    1
   270   240   291    1
   271   240   292    1
   272   240   293    1
   273   241   242    1
   274   241   294    1
   275   241   295    1
   276   242   243    1
   277   242   296    1
   278   242   297    1
   279   243   244    1
   280   243   298    1
   281   243   299    1
   282   244   300    1
   283   244   301    1
   284   244   302    1
   285   245   246    2
   286   245   247    1
   287   247   248    1
   288   247   303    1
   289   247   304    1
   290   248   249    1
   291   249   250    1
   292   249   305    1
   293   249   306    1
   294   250   251    2
   295   250   252    1
   296   252   253    1
   297   252   261    1
   298   253   254    1
   299   253   307    1
   300   253   308    1
   301   254   255    1
   302   254   257    1
   303   254   309    1
   304   255   256    1
   305   255   310    1
   306   255   311    1
   307   256   312    1
   308   256   313    1
   309   256   314    1
   310   257   258    1
   311   257   315    1
   312   257   316    1
   313   258   259    1
   314   258   317    1
   315   258   318    1
   316   259   260    1
   317   259   319    1
   318   259   320    1
   319   260   321    1
   320   260   322    1
   321   260   323    1
   322   261   262    1
   323   261   324    1
   324   261   325    1
   325   262   263    1
   326   262   265    1
   327   262   326    1
   328   263   264    1
   329   263   327    1
   330   263   328    1
   331   264   329    1
   332   264   330    1
   333   264   331    1
   334   265   266    1
   335   265   332    1
   336   265   333    1
   337   266   267    1
   338   266   334    1
   339   266   335    1
   340   267   268    1
   341   267   336    1
   342   267   337    1
   343   268   338    1
   344   268   339    1
   345   268   340    1
@<TRIPOS>SUBSTRUCTURE
     1 RES1      340 GROUP             0 ****  ****    0  
