@<TRIPOS>MOLECULE
am_c3_9H2O_c0_0_nunpairedes_0_charge_3 Charge: 3 Unpaired_Electrons: 3 XTB_Unpaired_Electrons: 0 XTB_Charge: 3
   104   119     1     0     0
SMALL
NoCharges
****
Generated from Architector

@<TRIPOS>ATOM
     1 Nd1       0.0746    0.1053    0.0162   Nd        1 RES1   0.0000
     2 O1       -0.2796   -0.5595   -2.2468   O.2       1 RES1   0.0000
     3 C1       -1.0695   -1.4531   -2.6492   C.2       1 RES1   0.0000
     4 C2       -2.1181   -1.8804   -1.6667   C.ar      1 RES1   0.0000
     5 C3       -3.2292   -2.6906   -1.9022   C.ar      1 RES1   0.0000
     6 C4       -4.1568   -2.8679   -0.8844   C.ar      1 RES1   0.0000
     7 Cl1      -5.5101   -3.8703   -1.1439   Cl        1 RES1   0.0000
     8 C5       -4.0015   -2.1814    0.3453   C.ar      1 RES1   0.0000
     9 C6       -4.9459   -2.2477    1.4061   C.ar      1 RES1   0.0000
    10 C7       -4.7608   -1.5431    2.5516   C.ar      1 RES1   0.0000
    11 C8       -3.6369   -0.6874    2.7141   C.ar      1 RES1   0.0000
    12 C9       -3.4105    0.1029    3.8681   C.ar      1 RES1   0.0000
    13 Cl2      -4.5439    0.1025    5.1447   Cl        1 RES1   0.0000
    14 C10      -2.2550    0.8655    3.9717   C.ar      1 RES1   0.0000
    15 C11      -1.3496    0.8819    2.9057   C.ar      1 RES1   0.0000
    16 C12       0.0149    1.5232    2.8490   C.2       1 RES1   0.0000
    17 O2        0.6618    1.3807    1.7800   O.2       1 RES1   0.0000
    18 N1        0.5732    2.1894    3.8434   N.am      1 RES1   0.0000
    19 C13       1.8786    2.8004    3.5827   C.3       1 RES1   0.0000
    20 C14       2.1025    3.7192    4.7694   C.3       1 RES1   0.0000
    21 C15       1.4295    2.9422    5.8952   C.3       1 RES1   0.0000
    22 C16       0.1617    2.4145    5.2218   C.3       1 RES1   0.0000
    23 N2       -1.6155    0.2303    1.7751   N.ar      1 RES1   0.0000
    24 C17      -2.6791   -0.5768    1.6802   C.ar      1 RES1   0.0000
    25 C18      -2.8480   -1.3728    0.4771   C.ar      1 RES1   0.0000
    26 N3       -1.9225   -1.2846   -0.4879   N.ar      1 RES1   0.0000
    27 N4       -0.9429   -1.8980   -3.8852   N.am      1 RES1   0.0000
    28 C19      -1.7239   -2.8508   -4.6588   C.3       1 RES1   0.0000
    29 C20      -0.9393   -2.9927   -5.9634   C.3       1 RES1   0.0000
    30 C21      -0.3142   -1.6118   -6.1319   C.3       1 RES1   0.0000
    31 C22       0.0989   -1.2851   -4.7092   C.3       1 RES1   0.0000
    32 H1       -3.4035   -3.1720   -2.8463   H         1 RES1   0.0000
    33 H2       -5.8182   -2.8666    1.2767   H         1 RES1   0.0000
    34 H3       -5.4747   -1.6102    3.3548   H         1 RES1   0.0000
    35 H4       -2.0993    1.4374    4.8667   H         1 RES1   0.0000
    36 H5        1.8535    3.3107    2.6196   H         1 RES1   0.0000
    37 H6        2.6300    2.0076    3.5294   H         1 RES1   0.0000
    38 H7        1.5966    4.6713    4.6195   H         1 RES1   0.0000
    39 H8        3.1551    3.9093    4.9496   H         1 RES1   0.0000
    40 H9        1.2034    3.5473    6.7680   H         1 RES1   0.0000
    41 H10       2.0633    2.1103    6.2030   H         1 RES1   0.0000
    42 H11      -0.6316    3.1685    5.2435   H         1 RES1   0.0000
    43 H12      -0.1784    1.4886    5.6860   H         1 RES1   0.0000
    44 H13      -2.7109   -2.4178   -4.8488   H         1 RES1   0.0000
    45 H14      -1.8187   -3.8044   -4.1394   H         1 RES1   0.0000
    46 H15      -1.5861   -3.2724   -6.7888   H         1 RES1   0.0000
    47 H16      -0.1547   -3.7414   -5.8556   H         1 RES1   0.0000
    48 H17      -1.0607   -0.9019   -6.4838   H         1 RES1   0.0000
    49 H18       0.5306   -1.5995   -6.8126   H         1 RES1   0.0000
    50 H19       0.1581   -0.2188   -4.4866   H         1 RES1   0.0000
    51 H20       1.0561   -1.7442   -4.4461   H         1 RES1   0.0000
    52 O3        0.1138   -1.5952    1.8073   O.2       1 RES1   0.0000
    53 C23       0.7223   -2.6852    1.8658   C.2       1 RES1   0.0000
    54 C24       1.6857   -2.9319    0.7468   C.ar      1 RES1   0.0000
    55 C25       2.4206   -4.0880    0.4910   C.ar      1 RES1   0.0000
    56 C26       3.3198   -4.0984   -0.5661   C.ar      1 RES1   0.0000
    57 Cl3       4.2230   -5.5081   -0.8926   Cl        1 RES1   0.0000
    58 C27       3.4878   -2.9303   -1.3504   C.ar      1 RES1   0.0000
    59 C28       4.4006   -2.8510   -2.4339   C.ar      1 RES1   0.0000
    60 C29       4.5423   -1.7000   -3.1405   C.ar      1 RES1   0.0000
    61 C30       3.7838   -0.5434   -2.8174   C.ar      1 RES1   0.0000
    62 C31       3.9089    0.6821   -3.5123   C.ar      1 RES1   0.0000
    63 Cl4       5.0685    0.8678   -4.7491   Cl        1 RES1   0.0000
    64 C32       3.0692    1.7380   -3.1926   C.ar      1 RES1   0.0000
    65 C33       2.1376    1.5963   -2.1626   C.ar      1 RES1   0.0000
    66 C34       1.0651    2.5829   -1.7854   C.2       1 RES1   0.0000
    67 O4        0.2975    2.2513   -0.8485   O.2       1 RES1   0.0000
    68 N5        0.8282    3.7172   -2.4244   N.am      1 RES1   0.0000
    69 C35       1.5396    4.3945   -3.5011   C.3       1 RES1   0.0000
    70 C36       0.7772    5.7083   -3.6910   C.3       1 RES1   0.0000
    71 C37      -0.6381    5.3468   -3.2559   C.3       1 RES1   0.0000
    72 C38      -0.3570    4.4866   -2.0397   C.3       1 RES1   0.0000
    73 N6        2.0707    0.4757   -1.4386   N.ar      1 RES1   0.0000
    74 C39       2.8403   -0.5761   -1.7633   C.ar      1 RES1   0.0000
    75 C40       2.6896   -1.8096   -1.0125   C.ar      1 RES1   0.0000
    76 N7        1.8014   -1.8354   -0.0100   N.ar      1 RES1   0.0000
    77 N8        0.5155   -3.4845    2.9014   N.am      1 RES1   0.0000
    78 C41       1.0551   -4.7910    3.2517   C.3       1 RES1   0.0000
    79 C42       0.3506   -5.1382    4.5658   C.3       1 RES1   0.0000
    80 C43       0.1053   -3.7693    5.1902   C.3       1 RES1   0.0000
    81 C44      -0.3196   -2.9585    3.9808   C.3       1 RES1   0.0000
    82 H21       2.3031   -4.9820    1.0733   H         1 RES1   0.0000
    83 H22       4.9837   -3.7212   -2.6812   H         1 RES1   0.0000
    84 H23       5.2429   -1.6482   -3.9553   H         1 RES1   0.0000
    85 H24       3.1700    2.6423   -3.7585   H         1 RES1   0.0000
    86 H25       1.4850    3.7841   -4.4076   H         1 RES1   0.0000
    87 H26       2.5774    4.5804   -3.2212   H         1 RES1   0.0000
    88 H27       0.8348    6.0615   -4.7157   H         1 RES1   0.0000
    89 H28       1.1764    6.4766   -3.0295   H         1 RES1   0.0000
    90 H29      -1.1411    4.7673   -4.0299   H         1 RES1   0.0000
    91 H30      -1.2475    6.2121   -3.0173   H         1 RES1   0.0000
    92 H31      -1.1730    3.8156   -1.7754   H         1 RES1   0.0000
    93 H32      -0.1091    5.0992   -1.1698   H         1 RES1   0.0000
    94 H33       2.1370   -4.7078    3.3927   H         1 RES1   0.0000
    95 H34       0.8313   -5.5309    2.4816   H         1 RES1   0.0000
    96 H35       0.9524   -5.7946    5.1870   H         1 RES1   0.0000
    97 H36      -0.6043   -5.6239    4.3647   H         1 RES1   0.0000
    98 H37       1.0310   -3.3740    5.6053   H         1 RES1   0.0000
    99 H38      -0.6514   -3.7796    5.9675   H         1 RES1   0.0000
   100 H39      -0.1502   -1.8858    4.0778   H         1 RES1   0.0000
   101 H40      -1.3705   -3.1234    3.7280   H         1 RES1   0.0000
   102 O5       -2.2165    1.4108   -0.6814   O.3       1 RES1   0.0000
   103 H41      -2.2216    1.6390   -1.6202   H         1 RES1   0.0000
   104 H42      -2.2243    2.2495   -0.1985   H         1 RES1   0.0000
@<TRIPOS>BOND
     1     1     2    1
     2     1    17    1
     3     1    23    1
     4     1    26    1
     5     1    52    1
     6     1    67    1
     7     1    73    1
     8     1    76    1
     9     1   102    1
    10     2     3    2
    11     3     4    1
    12     3    27    1
    13     4     5    1
    14     4    26    2
    15     5     6    2
    16     5    32    1
    17     6     7    1
    18     6     8    1
    19     8     9    1
    20     8    25    2
    21     9    10    2
    22     9    33    1
    23    10    11    1
    24    10    34    1
    25    11    12    1
    26    11    24    2
    27    12    13    1
    28    12    14    2
    29    14    15    1
    30    14    35    1
    31    15    16    1
    32    15    23    2
    33    16    17    2
    34    16    18    1
    35    18    19    1
    36    18    22    1
    37    19    20    1
    38    19    36    1
    39    19    37    1
    40    20    21    1
    41    20    38    1
    42    20    39    1
    43    21    22    1
    44    21    40    1
    45    21    41    1
    46    22    42    1
    47    22    43    1
    48    23    24    1
    49    24    25    1
    50    25    26    1
    51    27    28    1
    52    27    31    1
    53    28    29    1
    54    28    44    1
    55    28    45    1
    56    29    30    1
    57    29    46    1
    58    29    47    1
    59    30    31    1
    60    30    48    1
    61    30    49    1
    62    31    50    1
    63    31    51    1
    64    52    53    2
    65    53    54    1
    66    53    77    1
    67    54    55    1
    68    54    76    2
    69    55    56    2
    70    55    82    1
    71    56    57    1
    72    56    58    1
    73    58    59    1
    74    58    75    2
    75    59    60    2
    76    59    83    1
    77    60    61    1
    78    60    84    1
    79    61    62    1
    80    61    74    2
    81    62    63    1
    82    62    64    2
    83    64    65    1
    84    64    85    1
    85    65    66    1
    86    65    73    2
    87    66    67    2
    88    66    68    1
    89    68    69    1
    90    68    72    1
    91    69    70    1
    92    69    86    1
    93    69    87    1
    94    70    71    1
    95    70    88    1
    96    70    89    1
    97    71    72    1
    98    71    90    1
    99    71    91    1
   100    72    92    1
   101    72    93    1
   102    73    74    1
   103    74    75    1
   104    75    76    1
   105    77    78    1
   106    77    81    1
   107    78    79    1
   108    78    94    1
   109    78    95    1
   110    79    80    1
   111    79    96    1
   112    79    97    1
   113    80    81    1
   114    80    98    1
   115    80    99    1
   116    81   100    1
   117    81   101    1
   118   102   103    1
   119   102   104    1
@<TRIPOS>SUBSTRUCTURE
     1 RES1      104 GROUP             0 ****  ****    0  
