@<TRIPOS>MOLECULE
am_c3_9H2O_c0_0_nunpairedes_0_charge_3 Charge: 3 Unpaired_Electrons: 3 XTB_Unpaired_Electrons: 0 XTB_Charge: 3
   286   291     1     0     0
SMALL
NoCharges
****
Generated from Architector

@<TRIPOS>ATOM
     1 Nd1      -0.1462    0.2082    0.2735   Nd        1 RES1   0.0000
     2 C1        4.5889    4.2483   -4.2942   C.3       1 RES1   0.0000
     3 C2        3.2720    4.1303   -5.0600   C.3       1 RES1   0.0000
     4 C3        3.5102    3.5513   -6.4523   C.3       1 RES1   0.0000
     5 C4        2.5366    5.4686   -5.1836   C.3       1 RES1   0.0000
     6 C5        2.3010    6.1399   -3.8324   C.3       1 RES1   0.0000
     7 C6        1.2643    7.2636   -3.8822   C.3       1 RES1   0.0000
     8 C7       -0.1711    6.7380   -4.0732   C.3       1 RES1   0.0000
     9 C8       -0.7231    7.1842   -5.4280   C.3       1 RES1   0.0000
    10 C9       -1.1108    7.1884   -2.9476   C.3       1 RES1   0.0000
    11 C10      -0.7665    6.6691   -1.5460   C.3       1 RES1   0.0000
    12 C11      -0.8442    5.1360   -1.3929   C.3       1 RES1   0.0000
    13 C12      -1.7293    4.6801   -0.2094   C.3       1 RES1   0.0000
    14 N1       -1.0930    3.7183    0.6742   N.am      1 RES1   0.0000
    15 C13       0.1535    4.1612    1.2962   C.3       1 RES1   0.0000
    16 C14      -1.4718    2.4954    1.0224   C.2       1 RES1   0.0000
    17 O1       -0.6991    1.8057    1.7242   O.2       1 RES1   0.0000
    18 C15      -2.8136    1.8164    0.7471   C.3       1 RES1   0.0000
    19 O2       -2.5020    0.4512    0.4329   O.3       1 RES1   0.0000
    20 C16      -3.2768   -0.2071   -0.5628   C.3       1 RES1   0.0000
    21 C17      -2.3385   -0.6880   -1.6908   C.2       1 RES1   0.0000
    22 O3       -1.0965   -0.6604   -1.5334   O.2       1 RES1   0.0000
    23 N2       -2.8928   -1.1206   -2.8094   N.am      1 RES1   0.0000
    24 C18      -4.3102   -1.3977   -2.8659   C.3       1 RES1   0.0000
    25 C19      -2.0521   -1.4134   -3.9763   C.3       1 RES1   0.0000
    26 C20      -2.7773   -1.2497   -5.3180   C.3       1 RES1   0.0000
    27 C21      -3.4082    0.1358   -5.5414   C.3       1 RES1   0.0000
    28 C22      -4.6372    0.1000   -6.4689   C.3       1 RES1   0.0000
    29 C23      -6.0130   -0.1337   -5.8131   C.3       1 RES1   0.0000
    30 C24      -7.0309   -0.3605   -6.9265   C.3       1 RES1   0.0000
    31 C25      -6.4543    1.0465   -4.9324   C.3       1 RES1   0.0000
    32 C26      -7.6720    0.7806   -4.0337   C.3       1 RES1   0.0000
    33 C27      -7.3739   -0.1394   -2.8491   C.3       1 RES1   0.0000
    34 C28      -8.5443   -0.3242   -1.8676   C.3       1 RES1   0.0000
    35 C29      -8.4093   -1.6533   -1.1184   C.3       1 RES1   0.0000
    36 C30      -8.5842    0.8281   -0.8640   C.3       1 RES1   0.0000
    37 H1        5.1279    3.3034   -4.3291   H         1 RES1   0.0000
    38 H2        4.4288    4.5059   -3.2490   H         1 RES1   0.0000
    39 H3        5.2165    5.0138   -4.7409   H         1 RES1   0.0000
    40 H4        2.6166    3.4390   -4.5049   H         1 RES1   0.0000
    41 H5        4.1932    4.1926   -7.0018   H         1 RES1   0.0000
    42 H6        2.5783    3.4868   -7.0114   H         1 RES1   0.0000
    43 H7        3.9431    2.5546   -6.3996   H         1 RES1   0.0000
    44 H8        1.5818    5.2817   -5.6795   H         1 RES1   0.0000
    45 H9        3.1034    6.1382   -5.8304   H         1 RES1   0.0000
    46 H10       3.2514    6.5421   -3.4806   H         1 RES1   0.0000
    47 H11       1.9678    5.3866   -3.1082   H         1 RES1   0.0000
    48 H12       1.5230    7.9538   -4.6853   H         1 RES1   0.0000
    49 H13       1.3301    7.8285   -2.9530   H         1 RES1   0.0000
    50 H14      -0.1329    5.6445   -4.0635   H         1 RES1   0.0000
    51 H15      -0.7613    8.2678   -5.4668   H         1 RES1   0.0000
    52 H16      -1.7334    6.8136   -5.5985   H         1 RES1   0.0000
    53 H17      -0.0823    6.8439   -6.2403   H         1 RES1   0.0000
    54 H18      -2.1328    6.8965   -3.2029   H         1 RES1   0.0000
    55 H19      -1.0907    8.2775   -2.9202   H         1 RES1   0.0000
    56 H20      -1.4720    7.1383   -0.8576   H         1 RES1   0.0000
    57 H21       0.2337    7.0088   -1.2848   H         1 RES1   0.0000
    58 H22       0.1566    4.7186   -1.2885   H         1 RES1   0.0000
    59 H23      -1.2475    4.7240   -2.3117   H         1 RES1   0.0000
    60 H24      -2.6547    4.2539   -0.5788   H         1 RES1   0.0000
    61 H25      -1.9783    5.5483    0.4065   H         1 RES1   0.0000
    62 H26       0.2785    5.2237    1.0983   H         1 RES1   0.0000
    63 H27       1.0162    3.5851    0.9289   H         1 RES1   0.0000
    64 H28       0.0850    3.9948    2.3755   H         1 RES1   0.0000
    65 H29      -3.3741    2.2954   -0.0459   H         1 RES1   0.0000
    66 H30      -3.3916    1.8412    1.6855   H         1 RES1   0.0000
    67 H31      -4.0450    0.4552   -0.9708   H         1 RES1   0.0000
    68 H32      -3.7672   -1.0660   -0.0817   H         1 RES1   0.0000
    69 H33      -4.6377   -1.9220   -1.9708   H         1 RES1   0.0000
    70 H34      -4.5302   -2.0362   -3.7128   H         1 RES1   0.0000
    71 H35      -4.8737   -0.4755   -2.9737   H         1 RES1   0.0000
    72 H36      -1.6728   -2.4394   -3.8968   H         1 RES1   0.0000
    73 H37      -1.1895   -0.7410   -3.9191   H         1 RES1   0.0000
    74 H38      -3.5348   -2.0267   -5.4246   H         1 RES1   0.0000
    75 H39      -2.0375   -1.4334   -6.1020   H         1 RES1   0.0000
    76 H40      -2.6533    0.7746   -6.0075   H         1 RES1   0.0000
    77 H41      -3.6763    0.5905   -4.5857   H         1 RES1   0.0000
    78 H42      -4.4755   -0.6847   -7.2125   H         1 RES1   0.0000
    79 H43      -4.6872    1.0413   -7.0188   H         1 RES1   0.0000
    80 H44      -5.9658   -1.0403   -5.2051   H         1 RES1   0.0000
    81 H45      -7.1334    0.5306   -7.5370   H         1 RES1   0.0000
    82 H46      -8.0045   -0.6012   -6.5187   H         1 RES1   0.0000
    83 H47      -6.7283   -1.1825   -7.5656   H         1 RES1   0.0000
    84 H48      -6.6982    1.8861   -5.5851   H         1 RES1   0.0000
    85 H49      -5.6210    1.3656   -4.2982   H         1 RES1   0.0000
    86 H50      -8.4802    0.3489   -4.6213   H         1 RES1   0.0000
    87 H51      -8.0365    1.7352   -3.6482   H         1 RES1   0.0000
    88 H52      -6.5402    0.2756   -2.2706   H         1 RES1   0.0000
    89 H53      -7.0798   -1.1221   -3.2201   H         1 RES1   0.0000
    90 H54      -9.4828   -0.3393   -2.4293   H         1 RES1   0.0000
    91 H55      -7.4495   -1.7097   -0.6008   H         1 RES1   0.0000
    92 H56      -8.4869   -2.4944   -1.8037   H         1 RES1   0.0000
    93 H57      -9.2002   -1.7508   -0.3783   H         1 RES1   0.0000
    94 H58      -7.6917    0.8090   -0.2346   H         1 RES1   0.0000
    95 H59      -9.4562    0.7447   -0.2210   H         1 RES1   0.0000
    96 H60      -8.6337    1.7848   -1.3796   H         1 RES1   0.0000
    97 C31       1.7372   -7.2096   -0.6925   C.3       1 RES1   0.0000
    98 C32       3.0650   -6.5526   -1.0687   C.3       1 RES1   0.0000
    99 C33       3.2959   -5.3102   -0.2070   C.3       1 RES1   0.0000
   100 C34       3.0831   -6.2303   -2.5677   C.3       1 RES1   0.0000
   101 C35       4.4533   -5.7640   -3.0649   C.3       1 RES1   0.0000
   102 C36       4.6797   -5.8912   -4.5770   C.3       1 RES1   0.0000
   103 C37       3.7981   -5.0485   -5.5190   C.3       1 RES1   0.0000
   104 C38       2.4841   -5.7580   -5.8479   C.3       1 RES1   0.0000
   105 C39       3.4781   -3.6581   -4.9626   C.3       1 RES1   0.0000
   106 C40       4.6639   -2.6913   -4.8982   C.3       1 RES1   0.0000
   107 C41       4.5199   -1.6340   -3.7995   C.3       1 RES1   0.0000
   108 C42       3.1772   -0.8739   -3.8359   C.3       1 RES1   0.0000
   109 N3        2.4891   -0.9440   -2.5537   N.am      1 RES1   0.0000
   110 C43       2.1401   -2.2703   -2.0693   C.3       1 RES1   0.0000
   111 C44       2.1810    0.0802   -1.7812   C.2       1 RES1   0.0000
   112 O4        1.8040   -0.0859   -0.5965   O.2       1 RES1   0.0000
   113 C45       2.0184    1.5076   -2.3026   C.3       1 RES1   0.0000
   114 O5        0.6062    1.7260   -2.1581   O.3       1 RES1   0.0000
   115 C46      -0.0769    2.0861   -3.3591   C.3       1 RES1   0.0000
   116 C47      -1.5112    2.4341   -2.9151   C.2       1 RES1   0.0000
   117 O6       -1.8373    2.0032   -1.8006   O.2       1 RES1   0.0000
   118 N4       -2.2854    3.1482   -3.7344   N.am      1 RES1   0.0000
   119 C48      -1.8373    3.5060   -5.0729   C.3       1 RES1   0.0000
   120 C49      -3.5859    3.7966   -3.4265   C.3       1 RES1   0.0000
   121 C50      -4.4545    3.2436   -2.2915   C.3       1 RES1   0.0000
   122 C51      -5.2461    4.3079   -1.5110   C.3       1 RES1   0.0000
   123 C52      -5.8781    3.6935   -0.2556   C.3       1 RES1   0.0000
   124 C53      -6.2815    4.6828    0.8554   C.3       1 RES1   0.0000
   125 C54      -7.5192    5.4805    0.4499   C.3       1 RES1   0.0000
   126 C55      -5.1419    5.6165    1.3179   C.3       1 RES1   0.0000
   127 C56      -4.9670    5.6869    2.8401   C.3       1 RES1   0.0000
   128 C57      -3.7877    6.5893    3.2171   C.3       1 RES1   0.0000
   129 C58      -3.3871    6.6000    4.7042   C.3       1 RES1   0.0000
   130 C59      -2.7182    5.2940    5.1332   C.3       1 RES1   0.0000
   131 C60      -4.5499    6.9192    5.6411   C.3       1 RES1   0.0000
   132 H61       1.7230   -7.4719    0.3635   H         1 RES1   0.0000
   133 H62       1.5885   -8.1185   -1.2699   H         1 RES1   0.0000
   134 H63       0.9056   -6.5329   -0.8944   H         1 RES1   0.0000
   135 H64       3.8714   -7.2632   -0.8661   H         1 RES1   0.0000
   136 H65       2.4648   -4.6107   -0.3094   H         1 RES1   0.0000
   137 H66       4.2212   -4.8106   -0.4840   H         1 RES1   0.0000
   138 H67       3.3730   -5.5897    0.8412   H         1 RES1   0.0000
   139 H68       2.3110   -5.4811   -2.7690   H         1 RES1   0.0000
   140 H69       2.8116   -7.1379   -3.1078   H         1 RES1   0.0000
   141 H70       5.2134   -6.3855   -2.5851   H         1 RES1   0.0000
   142 H71       4.6445   -4.7361   -2.7502   H         1 RES1   0.0000
   143 H72       4.5587   -6.9382   -4.8589   H         1 RES1   0.0000
   144 H73       5.7249   -5.6379   -4.7627   H         1 RES1   0.0000
   145 H74       4.3486   -4.9272   -6.4568   H         1 RES1   0.0000
   146 H75       1.8555   -5.8595   -4.9685   H         1 RES1   0.0000
   147 H76       2.6759   -6.7513   -6.2389   H         1 RES1   0.0000
   148 H77       1.9315   -5.2011   -6.6012   H         1 RES1   0.0000
   149 H78       3.0840   -3.8090   -3.9638   H         1 RES1   0.0000
   150 H79       2.6827   -3.2312   -5.5803   H         1 RES1   0.0000
   151 H80       4.7867   -2.1930   -5.8580   H         1 RES1   0.0000
   152 H81       5.5809   -3.2453   -4.7024   H         1 RES1   0.0000
   153 H82       5.3406   -0.9216   -3.8775   H         1 RES1   0.0000
   154 H83       4.6206   -2.1180   -2.8303   H         1 RES1   0.0000
   155 H84       2.5180   -1.2989   -4.5979   H         1 RES1   0.0000
   156 H85       3.3501    0.1721   -4.0746   H         1 RES1   0.0000
   157 H86       1.6964   -2.8241   -2.8952   H         1 RES1   0.0000
   158 H87       1.4069   -2.1770   -1.2617   H         1 RES1   0.0000
   159 H88       3.0032   -2.8141   -1.6877   H         1 RES1   0.0000
   160 H89       2.3404    1.6956   -3.3247   H         1 RES1   0.0000
   161 H90       2.5342    2.2113   -1.6384   H         1 RES1   0.0000
   162 H91      -0.1040    1.2482   -4.0677   H         1 RES1   0.0000
   163 H92       0.4367    2.9318   -3.8281   H         1 RES1   0.0000
   164 H93      -0.7706    3.7004   -5.1345   H         1 RES1   0.0000
   165 H94      -2.3478    4.4060   -5.4024   H         1 RES1   0.0000
   166 H95      -2.0884    2.7125   -5.7738   H         1 RES1   0.0000
   167 H96      -4.1677    3.7537   -4.3445   H         1 RES1   0.0000
   168 H97      -3.3697    4.8542   -3.2300   H         1 RES1   0.0000
   169 H98      -3.7858    2.7169   -1.6265   H         1 RES1   0.0000
   170 H99      -5.1711    2.5233   -2.6814   H         1 RES1   0.0000
   171 H100     -6.0286    4.7141   -2.1488   H         1 RES1   0.0000
   172 H101     -4.6029    5.1452   -1.2382   H         1 RES1   0.0000
   173 H102     -5.1914    2.9723    0.1869   H         1 RES1   0.0000
   174 H103     -6.7693    3.1383   -0.5454   H         1 RES1   0.0000
   175 H104     -6.5594    4.0532    1.7092   H         1 RES1   0.0000
   176 H105     -7.3175    6.1510   -0.3834   H         1 RES1   0.0000
   177 H106     -7.8656    6.0749    1.2902   H         1 RES1   0.0000
   178 H107     -8.3210    4.8027    0.1662   H         1 RES1   0.0000
   179 H108     -5.3299    6.6245    0.9443   H         1 RES1   0.0000
   180 H109     -4.1905    5.2865    0.8991   H         1 RES1   0.0000
   181 H110     -4.7883    4.6835    3.2328   H         1 RES1   0.0000
   182 H111     -5.8806    6.0703    3.2920   H         1 RES1   0.0000
   183 H112     -4.0203    7.6130    2.9214   H         1 RES1   0.0000
   184 H113     -2.9078    6.2821    2.6378   H         1 RES1   0.0000
   185 H114     -2.6406    7.3969    4.8156   H         1 RES1   0.0000
   186 H115     -3.4233    4.4662    5.1142   H         1 RES1   0.0000
   187 H116     -2.3449    5.3938    6.1495   H         1 RES1   0.0000
   188 H117     -1.8784    5.0559    4.4808   H         1 RES1   0.0000
   189 H118     -5.2864    6.1194    5.6556   H         1 RES1   0.0000
   190 H119     -5.0405    7.8430    5.3498   H         1 RES1   0.0000
   191 H120     -4.1809    7.0462    6.6558   H         1 RES1   0.0000
   192 C61       1.6389    8.3186    0.8895   C.3       1 RES1   0.0000
   193 C62       2.9180    7.4887    1.0036   C.3       1 RES1   0.0000
   194 C63       3.0117    6.4661   -0.1298   C.3       1 RES1   0.0000
   195 C64       2.9764    6.8391    2.3916   C.3       1 RES1   0.0000
   196 C65       4.2492    6.0261    2.6374   C.3       1 RES1   0.0000
   197 C66       4.7033    5.9720    4.1006   C.3       1 RES1   0.0000
   198 C67       3.8012    5.2611    5.1235   C.3       1 RES1   0.0000
   199 C68       2.5615    6.0705    5.5071   C.3       1 RES1   0.0000
   200 C69       3.3840    3.8492    4.6922   C.3       1 RES1   0.0000
   201 C70       4.5341    2.8454    4.6973   C.3       1 RES1   0.0000
   202 C71       4.2273    1.4726    4.0853   C.3       1 RES1   0.0000
   203 C72       3.2432    0.5592    4.8587   C.3       1 RES1   0.0000
   204 N5        1.9826    0.4441    4.1354   N.am      1 RES1   0.0000
   205 C73       1.0516    1.5401    4.3370   C.3       1 RES1   0.0000
   206 C74       1.8466   -0.2299    2.9897   C.2       1 RES1   0.0000
   207 O7        1.1442    0.2109    2.0624   O.2       1 RES1   0.0000
   208 C75       2.4151   -1.6322    2.7883   C.3       1 RES1   0.0000
   209 O8        1.5807   -2.3306    1.8698   O.3       1 RES1   0.0000
   210 C76       0.5536   -3.1495    2.4046   C.3       1 RES1   0.0000
   211 C77      -0.8125   -2.4517    2.3072   C.2       1 RES1   0.0000
   212 O9       -0.9509   -1.5165    1.4856   O.2       1 RES1   0.0000
   213 N6       -1.8114   -2.8104    3.1070   N.am      1 RES1   0.0000
   214 C78      -2.9224   -1.8856    3.2747   C.3       1 RES1   0.0000
   215 C79      -1.9646   -4.1218    3.7288   C.3       1 RES1   0.0000
   216 C80      -3.2214   -4.8754    3.2574   C.3       1 RES1   0.0000
   217 C81      -3.2520   -5.3033    1.7857   C.3       1 RES1   0.0000
   218 C82      -3.4681   -4.1372    0.8205   C.3       1 RES1   0.0000
   219 C83      -3.8382   -4.5043   -0.6254   C.3       1 RES1   0.0000
   220 C84      -5.2723   -5.0188   -0.7254   C.3       1 RES1   0.0000
   221 C85      -2.8190   -5.4532   -1.2644   C.3       1 RES1   0.0000
   222 C86      -2.8636   -5.3882   -2.7931   C.3       1 RES1   0.0000
   223 C87      -1.8064   -6.2955   -3.4213   C.3       1 RES1   0.0000
   224 C88      -1.7470   -6.2916   -4.9573   C.3       1 RES1   0.0000
   225 C89      -1.4524   -4.9070   -5.5319   C.3       1 RES1   0.0000
   226 C90      -3.0086   -6.8628   -5.5981   C.3       1 RES1   0.0000
   227 H121      1.5488    8.7600   -0.1004   H         1 RES1   0.0000
   228 H122      1.6540    9.1303    1.6114   H         1 RES1   0.0000
   229 H123      0.7560    7.7088    1.0873   H         1 RES1   0.0000
   230 H124      3.7712    8.1678    0.9070   H         1 RES1   0.0000
   231 H125      2.2448    5.6974   -0.0303   H         1 RES1   0.0000
   232 H126      3.9855    5.9822   -0.1283   H         1 RES1   0.0000
   233 H127      2.8841    6.9660   -1.0879   H         1 RES1   0.0000
   234 H128      2.0955    6.2027    2.5241   H         1 RES1   0.0000
   235 H129      2.9240    7.6394    3.1302   H         1 RES1   0.0000
   236 H130      5.0663    6.4878    2.0796   H         1 RES1   0.0000
   237 H131      4.1309    5.0133    2.2454   H         1 RES1   0.0000
   238 H132      4.8582    6.9929    4.4524   H         1 RES1   0.0000
   239 H133      5.6800    5.4820    4.1217   H         1 RES1   0.0000
   240 H134      4.3983    5.1595    6.0354   H         1 RES1   0.0000
   241 H135      1.8150    6.0738    4.7198   H         1 RES1   0.0000
   242 H136      2.8336    7.0984    5.7187   H         1 RES1   0.0000
   243 H137      2.1050    5.6585    6.4041   H         1 RES1   0.0000
   244 H138      2.9545    3.8962    3.6900   H         1 RES1   0.0000
   245 H139      2.6135    3.5124    5.3839   H         1 RES1   0.0000
   246 H140      4.8926    2.7095    5.7159   H         1 RES1   0.0000
   247 H141      5.3594    3.2667    4.1234   H         1 RES1   0.0000
   248 H142      5.1779    0.9494    3.9944   H         1 RES1   0.0000
   249 H143      3.8342    1.6147    3.0755   H         1 RES1   0.0000
   250 H144      3.0292    0.9674    5.8481   H         1 RES1   0.0000
   251 H145      3.6639   -0.4368    4.9932   H         1 RES1   0.0000
   252 H146      0.9690    1.7203    5.4056   H         1 RES1   0.0000
   253 H147      0.0768    1.2573    3.9424   H         1 RES1   0.0000
   254 H148      1.3797    2.4514    3.8385   H         1 RES1   0.0000
   255 H149      2.5187   -2.1543    3.7441   H         1 RES1   0.0000
   256 H150      3.3883   -1.5877    2.2903   H         1 RES1   0.0000
   257 H151      0.7643   -3.4260    3.4445   H         1 RES1   0.0000
   258 H152      0.5604   -4.0566    1.7848   H         1 RES1   0.0000
   259 H153     -2.5781   -0.8684    3.0784   H         1 RES1   0.0000
   260 H154     -3.2737   -1.9581    4.3011   H         1 RES1   0.0000
   261 H155     -3.7535   -2.1143    2.6114   H         1 RES1   0.0000
   262 H156     -2.0278   -3.9895    4.8141   H         1 RES1   0.0000
   263 H157     -1.0859   -4.7232    3.5038   H         1 RES1   0.0000
   264 H158     -4.1104   -4.2855    3.4760   H         1 RES1   0.0000
   265 H159     -3.2742   -5.7726    3.8756   H         1 RES1   0.0000
   266 H160     -4.0803   -6.0032    1.6792   H         1 RES1   0.0000
   267 H161     -2.3355   -5.8394    1.5446   H         1 RES1   0.0000
   268 H162     -2.5684   -3.5160    0.7820   H         1 RES1   0.0000
   269 H163     -4.2874   -3.5323    1.2183   H         1 RES1   0.0000
   270 H164     -3.7828   -3.5621   -1.1867   H         1 RES1   0.0000
   271 H165     -5.3697   -5.9873   -0.2464   H         1 RES1   0.0000
   272 H166     -5.5708   -5.1280   -1.7637   H         1 RES1   0.0000
   273 H167     -5.9662   -4.3248   -0.2522   H         1 RES1   0.0000
   274 H168     -3.0052   -6.4755   -0.9339   H         1 RES1   0.0000
   275 H169     -1.8154   -5.1666   -0.9305   H         1 RES1   0.0000
   276 H170     -2.6939   -4.3514   -3.1027   H         1 RES1   0.0000
   277 H171     -3.8542   -5.6853   -3.1365   H         1 RES1   0.0000
   278 H172     -1.9918   -7.3201   -3.0942   H         1 RES1   0.0000
   279 H173     -0.8229   -6.0019   -3.0394   H         1 RES1   0.0000
   280 H174     -0.9120   -6.9448   -5.2301   H         1 RES1   0.0000
   281 H175     -2.3122   -4.2513   -5.4194   H         1 RES1   0.0000
   282 H176     -1.2337   -4.9882   -6.5930   H         1 RES1   0.0000
   283 H177     -0.5920   -4.4551   -5.0410   H         1 RES1   0.0000
   284 H178     -3.8719   -6.2267   -5.4186   H         1 RES1   0.0000
   285 H179     -3.2246   -7.8522   -5.2070   H         1 RES1   0.0000
   286 H180     -2.8730   -6.9470   -6.6734   H         1 RES1   0.0000
@<TRIPOS>BOND
     1     1    17    1
     2     1    19    1
     3     1    22    1
     4     1   112    1
     5     1   114    1
     6     1   117    1
     7     1   207    1
     8     1   209    1
     9     1   212    1
    10     2     3    1
    11     2    37    1
    12     2    38    1
    13     2    39    1
    14     3     4    1
    15     3     5    1
    16     3    40    1
    17     4    41    1
    18     4    42    1
    19     4    43    1
    20     5     6    1
    21     5    44    1
    22     5    45    1
    23     6     7    1
    24     6    46    1
    25     6    47    1
    26     7     8    1
    27     7    48    1
    28     7    49    1
    29     8     9    1
    30     8    10    1
    31     8    50    1
    32     9    51    1
    33     9    52    1
    34     9    53    1
    35    10    11    1
    36    10    54    1
    37    10    55    1
    38    11    12    1
    39    11    56    1
    40    11    57    1
    41    12    13    1
    42    12    58    1
    43    12    59    1
    44    13    14    1
    45    13    60    1
    46    13    61    1
    47    14    15    1
    48    14    16    1
    49    15    62    1
    50    15    63    1
    51    15    64    1
    52    16    17    2
    53    16    18    1
    54    18    19    1
    55    18    65    1
    56    18    66    1
    57    19    20    1
    58    20    21    1
    59    20    67    1
    60    20    68    1
    61    21    22    2
    62    21    23    1
    63    23    24    1
    64    23    25    1
    65    24    69    1
    66    24    70    1
    67    24    71    1
    68    25    26    1
    69    25    72    1
    70    25    73    1
    71    26    27    1
    72    26    74    1
    73    26    75    1
    74    27    28    1
    75    27    76    1
    76    27    77    1
    77    28    29    1
    78    28    78    1
    79    28    79    1
    80    29    30    1
    81    29    31    1
    82    29    80    1
    83    30    81    1
    84    30    82    1
    85    30    83    1
    86    31    32    1
    87    31    84    1
    88    31    85    1
    89    32    33    1
    90    32    86    1
    91    32    87    1
    92    33    34    1
    93    33    88    1
    94    33    89    1
    95    34    35    1
    96    34    36    1
    97    34    90    1
    98    35    91    1
    99    35    92    1
   100    35    93    1
   101    36    94    1
   102    36    95    1
   103    36    96    1
   104    97    98    1
   105    97   132    1
   106    97   133    1
   107    97   134    1
   108    98    99    1
   109    98   100    1
   110    98   135    1
   111    99   136    1
   112    99   137    1
   113    99   138    1
   114   100   101    1
   115   100   139    1
   116   100   140    1
   117   101   102    1
   118   101   141    1
   119   101   142    1
   120   102   103    1
   121   102   143    1
   122   102   144    1
   123   103   104    1
   124   103   105    1
   125   103   145    1
   126   104   146    1
   127   104   147    1
   128   104   148    1
   129   105   106    1
   130   105   149    1
   131   105   150    1
   132   106   107    1
   133   106   151    1
   134   106   152    1
   135   107   108    1
   136   107   153    1
   137   107   154    1
   138   108   109    1
   139   108   155    1
   140   108   156    1
   141   109   110    1
   142   109   111    1
   143   110   157    1
   144   110   158    1
   145   110   159    1
   146   111   112    2
   147   111   113    1
   148   113   114    1
   149   113   160    1
   150   113   161    1
   151   114   115    1
   152   115   116    1
   153   115   162    1
   154   115   163    1
   155   116   117    2
   156   116   118    1
   157   118   119    1
   158   118   120    1
   159   119   164    1
   160   119   165    1
   161   119   166    1
   162   120   121    1
   163   120   167    1
   164   120   168    1
   165   121   122    1
   166   121   169    1
   167   121   170    1
   168   122   123    1
   169   122   171    1
   170   122   172    1
   171   123   124    1
   172   123   173    1
   173   123   174    1
   174   124   125    1
   175   124   126    1
   176   124   175    1
   177   125   176    1
   178   125   177    1
   179   125   178    1
   180   126   127    1
   181   126   179    1
   182   126   180    1
   183   127   128    1
   184   127   181    1
   185   127   182    1
   186   128   129    1
   187   128   183    1
   188   128   184    1
   189   129   130    1
   190   129   131    1
   191   129   185    1
   192   130   186    1
   193   130   187    1
   194   130   188    1
   195   131   189    1
   196   131   190    1
   197   131   191    1
   198   192   193    1
   199   192   227    1
   200   192   228    1
   201   192   229    1
   202   193   194    1
   203   193   195    1
   204   193   230    1
   205   194   231    1
   206   194   232    1
   207   194   233    1
   208   195   196    1
   209   195   234    1
   210   195   235    1
   211   196   197    1
   212   196   236    1
   213   196   237    1
   214   197   198    1
   215   197   238    1
   216   197   239    1
   217   198   199    1
   218   198   200    1
   219   198   240    1
   220   199   241    1
   221   199   242    1
   222   199   243    1
   223   200   201    1
   224   200   244    1
   225   200   245    1
   226   201   202    1
   227   201   246    1
   228   201   247    1
   229   202   203    1
   230   202   248    1
   231   202   249    1
   232   203   204    1
   233   203   250    1
   234   203   251    1
   235   204   205    1
   236   204   206    1
   237   205   252    1
   238   205   253    1
   239   205   254    1
   240   206   207    2
   241   206   208    1
   242   208   209    1
   243   208   255    1
   244   208   256    1
   245   209   210    1
   246   210   211    1
   247   210   257    1
   248   210   258    1
   249   211   212    2
   250   211   213    1
   251   213   214    1
   252   213   215    1
   253   214   259    1
   254   214   260    1
   255   214   261    1
   256   215   216    1
   257   215   262    1
   258   215   263    1
   259   216   217    1
   260   216   264    1
   261   216   265    1
   262   217   218    1
   263   217   266    1
   264   217   267    1
   265   218   219    1
   266   218   268    1
   267   218   269    1
   268   219   220    1
   269   219   221    1
   270   219   270    1
   271   220   271    1
   272   220   272    1
   273   220   273    1
   274   221   222    1
   275   221   274    1
   276   221   275    1
   277   222   223    1
   278   222   276    1
   279   222   277    1
   280   223   224    1
   281   223   278    1
   282   223   279    1
   283   224   225    1
   284   224   226    1
   285   224   280    1
   286   225   281    1
   287   225   282    1
   288   225   283    1
   289   226   284    1
   290   226   285    1
   291   226   286    1
@<TRIPOS>SUBSTRUCTURE
     1 RES1      286 GROUP             0 ****  ****    0  
