@<TRIPOS>MOLECULE
cn9_YICLED_0_nunpairedes_0_charge_3 Charge: 3 Unpaired_Electrons: 3 XTB_Unpaired_Electrons: 0 XTB_Charge: 3
   344   347     1     0     0
SMALL
NoCharges
****
Generated from Architector

@<TRIPOS>ATOM
     1 Nd1      -0.3660   -0.0593   -0.2997   Nd        1 RES1   0.0000
     2 C1       -3.8313   -4.9818   -9.7994   C.3       1 RES1   0.0000
     3 C2       -3.0950   -5.7235   -8.6911   C.3       1 RES1   0.0000
     4 C3       -2.5737   -4.7917   -7.5968   C.3       1 RES1   0.0000
     5 C4       -3.6968   -4.1465   -6.7831   C.3       1 RES1   0.0000
     6 C5       -3.1819   -3.3453   -5.5833   C.3       1 RES1   0.0000
     7 C6       -2.3846   -2.1117   -5.9982   C.3       1 RES1   0.0000
     8 C7       -1.9405   -1.2452   -4.8198   C.3       1 RES1   0.0000
     9 C8       -0.7655   -1.8030   -4.0166   C.3       1 RES1   0.0000
    10 N1       -1.1534   -2.8680   -3.0947   N.am      1 RES1   0.0000
    11 C9       -0.3212   -4.0521   -3.1495   C.3       1 RES1   0.0000
    12 C10      -1.9262   -2.5512   -2.0517   C.2       1 RES1   0.0000
    13 O1       -2.1248   -1.3652   -1.7187   O.2       1 RES1   0.0000
    14 C11      -2.5782   -3.6597   -1.1957   C.3       1 RES1   0.0000
    15 C12      -2.8892   -4.9838   -1.9434   C.3       1 RES1   0.0000
    16 C13      -4.3433   -5.4927   -1.9165   C.3       1 RES1   0.0000
    17 C14      -5.3401   -4.7555   -2.8138   C.3       1 RES1   0.0000
    18 C15      -5.7327   -3.3587   -2.3391   C.3       1 RES1   0.0000
    19 C16      -6.9112   -2.8016   -3.1372   C.3       1 RES1   0.0000
    20 C17      -7.3373   -1.4201   -2.6471   C.3       1 RES1   0.0000
    21 C18      -1.6538   -3.7253    0.0187   C.2       1 RES1   0.0000
    22 O2       -0.7046   -2.8951    0.0568   O.2       1 RES1   0.0000
    23 N2       -1.8135   -4.6201    0.9851   N.am      1 RES1   0.0000
    24 C19      -0.7576   -4.7793    1.9650   C.3       1 RES1   0.0000
    25 C20      -2.9549   -5.4995    1.2211   C.3       1 RES1   0.0000
    26 C21      -4.2850   -4.8204    1.5600   C.3       1 RES1   0.0000
    27 C22      -4.2913   -3.9092    2.7846   C.3       1 RES1   0.0000
    28 C23      -3.7766   -2.4993    2.5034   C.3       1 RES1   0.0000
    29 C24      -4.6723   -1.6934    1.5610   C.3       1 RES1   0.0000
    30 C25      -3.8919   -0.5080    1.0129   C.3       1 RES1   0.0000
    31 C26      -4.6891    0.3846    0.0765   C.3       1 RES1   0.0000
    32 C27      -3.8672    1.6132   -0.2739   C.3       1 RES1   0.0000
    33 H1       -4.0794   -5.6665  -10.6053   H         1 RES1   0.0000
    34 H2       -3.2072   -4.1883  -10.2058   H         1 RES1   0.0000
    35 H3       -4.7566   -4.5434   -9.4353   H         1 RES1   0.0000
    36 H4       -2.2433   -6.2496   -9.1254   H         1 RES1   0.0000
    37 H5       -3.7551   -6.4719   -8.2479   H         1 RES1   0.0000
    38 H6       -1.9664   -4.0136   -8.0653   H         1 RES1   0.0000
    39 H7       -1.9316   -5.3633   -6.9175   H         1 RES1   0.0000
    40 H8       -4.3679   -4.9348   -6.4257   H         1 RES1   0.0000
    41 H9       -4.2785   -3.4810   -7.4224   H         1 RES1   0.0000
    42 H10      -2.5696   -4.0048   -4.9636   H         1 RES1   0.0000
    43 H11      -4.0357   -3.0144   -4.9856   H         1 RES1   0.0000
    44 H12      -3.0225   -1.5143   -6.6570   H         1 RES1   0.0000
    45 H13      -1.5098   -2.4184   -6.5731   H         1 RES1   0.0000
    46 H14      -2.7859   -1.0639   -4.1569   H         1 RES1   0.0000
    47 H15      -1.6175   -0.2827   -5.2133   H         1 RES1   0.0000
    48 H16      -0.3171   -0.9906   -3.4328   H         1 RES1   0.0000
    49 H17      -0.0248   -2.2097   -4.7054   H         1 RES1   0.0000
    50 H18       0.7212   -3.7322   -3.2288   H         1 RES1   0.0000
    51 H19      -0.5270   -4.6688   -4.0253   H         1 RES1   0.0000
    52 H20      -0.4282   -4.6482   -2.2466   H         1 RES1   0.0000
    53 H21      -3.5179   -3.2254   -0.8426   H         1 RES1   0.0000
    54 H22      -2.2435   -5.7831   -1.5631   H         1 RES1   0.0000
    55 H23      -2.6422   -4.8571   -2.9973   H         1 RES1   0.0000
    56 H24      -4.7473   -5.5218   -0.9070   H         1 RES1   0.0000
    57 H25      -4.3005   -6.5278   -2.2657   H         1 RES1   0.0000
    58 H26      -6.2474   -5.3599   -2.8450   H         1 RES1   0.0000
    59 H27      -4.9617   -4.7098   -3.8341   H         1 RES1   0.0000
    60 H28      -4.8942   -2.6648   -2.4328   H         1 RES1   0.0000
    61 H29      -6.0264   -3.4044   -1.2872   H         1 RES1   0.0000
    62 H30      -7.7586   -3.4832   -3.0541   H         1 RES1   0.0000
    63 H31      -6.6412   -2.7470   -4.1938   H         1 RES1   0.0000
    64 H32      -7.6540   -1.4622   -1.6048   H         1 RES1   0.0000
    65 H33      -8.1715   -1.0506   -3.2409   H         1 RES1   0.0000
    66 H34      -6.5167   -0.7061   -2.7320   H         1 RES1   0.0000
    67 H35       0.0353   -4.0687    1.7584   H         1 RES1   0.0000
    68 H36      -0.3509   -5.7849    1.8754   H         1 RES1   0.0000
    69 H37      -1.1354   -4.6461    2.9767   H         1 RES1   0.0000
    70 H38      -2.6732   -6.1449    2.0535   H         1 RES1   0.0000
    71 H39      -3.1006   -6.1441    0.3570   H         1 RES1   0.0000
    72 H40      -4.9945   -5.6312    1.7266   H         1 RES1   0.0000
    73 H41      -4.6470   -4.2574    0.7051   H         1 RES1   0.0000
    74 H42      -3.7148   -4.3657    3.5887   H         1 RES1   0.0000
    75 H43      -5.3154   -3.8293    3.1492   H         1 RES1   0.0000
    76 H44      -2.7656   -2.5327    2.0885   H         1 RES1   0.0000
    77 H45      -3.7214   -1.9554    3.4484   H         1 RES1   0.0000
    78 H46      -5.5535   -1.3487    2.1073   H         1 RES1   0.0000
    79 H47      -5.0348   -2.2955    0.7272   H         1 RES1   0.0000
    80 H48      -2.9899   -0.8781    0.4808   H         1 RES1   0.0000
    81 H49      -3.5477    0.0921    1.8515   H         1 RES1   0.0000
    82 H50      -5.6188    0.6848    0.5651   H         1 RES1   0.0000
    83 H51      -4.9496   -0.1581   -0.8329   H         1 RES1   0.0000
    84 H52      -3.7485    2.2616    0.5887   H         1 RES1   0.0000
    85 H53      -4.3557    2.1905   -1.0502   H         1 RES1   0.0000
    86 H54      -2.8675    1.3036   -0.6175   H         1 RES1   0.0000
    87 C28      -7.1247    6.5142   -7.3232   C.3       1 RES1   0.0000
    88 C29      -5.6240    6.7230   -7.1659   C.3       1 RES1   0.0000
    89 C30      -4.9560    5.5897   -6.3912   C.3       1 RES1   0.0000
    90 C31      -5.0638    4.2561   -7.1289   C.3       1 RES1   0.0000
    91 C32      -4.1857    3.1655   -6.5194   C.3       1 RES1   0.0000
    92 C33      -4.5264    2.8487   -5.0621   C.3       1 RES1   0.0000
    93 C34      -3.6330    1.7249   -4.5117   C.3       1 RES1   0.0000
    94 C35      -2.7418    2.0825   -3.3158   C.3       1 RES1   0.0000
    95 N3       -1.4070    2.5511   -3.6882   N.am      1 RES1   0.0000
    96 C36      -1.4347    3.8416   -4.3459   C.3       1 RES1   0.0000
    97 C37      -0.3519    1.8605   -3.2475   C.2       1 RES1   0.0000
    98 O3       -0.5420    0.8695   -2.5045   O.2       1 RES1   0.0000
    99 C38       1.1132    2.0757   -3.7260   C.3       1 RES1   0.0000
   100 C39       1.5687    3.4597   -4.2598   C.3       1 RES1   0.0000
   101 C40       2.0056    3.5253   -5.7414   C.3       1 RES1   0.0000
   102 C41       0.9860    3.3615   -6.8791   C.3       1 RES1   0.0000
   103 C42       0.3684    1.9697   -7.0185   C.3       1 RES1   0.0000
   104 C43      -0.3865    1.8013   -8.3391   C.3       1 RES1   0.0000
   105 C44      -0.9511    0.3934   -8.4901   C.3       1 RES1   0.0000
   106 C45       2.0521    1.5330   -2.6173   C.2       1 RES1   0.0000
   107 O4        1.6349    1.3117   -1.4647   O.2       1 RES1   0.0000
   108 N4        3.3242    1.2233   -2.9081   N.am      1 RES1   0.0000
   109 C46       4.1282    0.5824   -1.8850   C.3       1 RES1   0.0000
   110 C47       4.1442    1.6078   -4.0457   C.3       1 RES1   0.0000
   111 C48       4.1128    0.6631   -5.2525   C.3       1 RES1   0.0000
   112 C49       5.0812   -0.5207   -5.1717   C.3       1 RES1   0.0000
   113 C50       4.4874   -1.7857   -4.5531   C.3       1 RES1   0.0000
   114 C51       3.4554   -2.4602   -5.4571   C.3       1 RES1   0.0000
   115 C52       3.1219   -3.8662   -4.9645   C.3       1 RES1   0.0000
   116 C53       2.0811   -4.5593   -5.8400   C.3       1 RES1   0.0000
   117 C54       1.7865   -5.9657   -5.3342   C.3       1 RES1   0.0000
   118 H55      -7.5821    7.4050   -7.7432   H         1 RES1   0.0000
   119 H56      -7.5850    6.3139   -6.3573   H         1 RES1   0.0000
   120 H57      -7.3374    5.6811   -7.9883   H         1 RES1   0.0000
   121 H58      -5.4439    7.6596   -6.6355   H         1 RES1   0.0000
   122 H59      -5.1609    6.8044   -8.1511   H         1 RES1   0.0000
   123 H60      -5.4278    5.5080   -5.4080   H         1 RES1   0.0000
   124 H61      -3.8973    5.8307   -6.2439   H         1 RES1   0.0000
   125 H62      -4.7551    4.4030   -8.1679   H         1 RES1   0.0000
   126 H63      -6.1011    3.9188   -7.1310   H         1 RES1   0.0000
   127 H64      -3.1391    3.4712   -6.6044   H         1 RES1   0.0000
   128 H65      -4.3090    2.2520   -7.1052   H         1 RES1   0.0000
   129 H66      -5.5762    2.5545   -5.0142   H         1 RES1   0.0000
   130 H67      -4.4427    3.7494   -4.4534   H         1 RES1   0.0000
   131 H68      -3.0088    1.3417   -5.3182   H         1 RES1   0.0000
   132 H69      -4.2770    0.9090   -4.1911   H         1 RES1   0.0000
   133 H70      -2.6097    1.1961   -2.6970   H         1 RES1   0.0000
   134 H71      -3.2185    2.8635   -2.7231   H         1 RES1   0.0000
   135 H72      -2.4577    4.0502   -4.6336   H         1 RES1   0.0000
   136 H73      -0.8380    3.8622   -5.2490   H         1 RES1   0.0000
   137 H74      -1.1138    4.6364   -3.6692   H         1 RES1   0.0000
   138 H75       1.2287    1.3525   -4.5418   H         1 RES1   0.0000
   139 H76       2.4235    3.7846   -3.6611   H         1 RES1   0.0000
   140 H77       0.8199    4.2194   -4.0844   H         1 RES1   0.0000
   141 H78       2.7926    2.7978   -5.9308   H         1 RES1   0.0000
   142 H79       2.4553    4.5136   -5.8678   H         1 RES1   0.0000
   143 H80       1.5426    3.5646   -7.7973   H         1 RES1   0.0000
   144 H81       0.2034    4.1219   -6.8365   H         1 RES1   0.0000
   145 H82      -0.3218    1.7671   -6.1959   H         1 RES1   0.0000
   146 H83       1.1686    1.2253   -6.9835   H         1 RES1   0.0000
   147 H84       0.2879    2.0063   -9.1707   H         1 RES1   0.0000
   148 H85      -1.2016    2.5246   -8.3980   H         1 RES1   0.0000
   149 H86      -0.1546   -0.3469   -8.4373   H         1 RES1   0.0000
   150 H87      -1.4502    0.2839   -9.4493   H         1 RES1   0.0000
   151 H88      -1.6742    0.1794   -7.7054   H         1 RES1   0.0000
   152 H89       3.4966    0.0084   -1.2127   H         1 RES1   0.0000
   153 H90       4.6709    1.3322   -1.3073   H         1 RES1   0.0000
   154 H91       4.8485   -0.0690   -2.3719   H         1 RES1   0.0000
   155 H92       5.1676    1.6563   -3.6709   H         1 RES1   0.0000
   156 H93       3.8878    2.6165   -4.3434   H         1 RES1   0.0000
   157 H94       4.3991    1.2601   -6.1165   H         1 RES1   0.0000
   158 H95       3.1040    0.2927   -5.4277   H         1 RES1   0.0000
   159 H96       5.9797   -0.2292   -4.6258   H         1 RES1   0.0000
   160 H97       5.4138   -0.7687   -6.1801   H         1 RES1   0.0000
   161 H98       4.0100   -1.5706   -3.5939   H         1 RES1   0.0000
   162 H99       5.3034   -2.4894   -4.3712   H         1 RES1   0.0000
   163 H100      3.8484   -2.5271   -6.4726   H         1 RES1   0.0000
   164 H101      2.5384   -1.8624   -5.4957   H         1 RES1   0.0000
   165 H102      2.7626   -3.8152   -3.9289   H         1 RES1   0.0000
   166 H103      4.0327   -4.4683   -4.9635   H         1 RES1   0.0000
   167 H104      2.4577   -4.6166   -6.8619   H         1 RES1   0.0000
   168 H105      1.1631   -3.9642   -5.8665   H         1 RES1   0.0000
   169 H106      2.6853   -6.5750   -5.3801   H         1 RES1   0.0000
   170 H107      1.0216   -6.4402   -5.9424   H         1 RES1   0.0000
   171 H108      1.4491   -5.9449   -4.2989   H         1 RES1   0.0000
   172 C55      -7.8930    3.3579   -1.9787   C.3       1 RES1   0.0000
   173 C56      -7.1538    3.2701   -0.6496   C.3       1 RES1   0.0000
   174 C57      -8.0872    3.4499    0.5452   C.3       1 RES1   0.0000
   175 C58      -7.4156    3.1904    1.9040   C.3       1 RES1   0.0000
   176 C59      -6.6434    4.3823    2.5039   C.3       1 RES1   0.0000
   177 C60      -5.1267    4.4154    2.2625   C.3       1 RES1   0.0000
   178 C61      -4.4003    3.3171    3.0429   C.3       1 RES1   0.0000
   179 C62      -2.8721    3.5080    3.1099   C.3       1 RES1   0.0000
   180 N5       -2.1772    2.2223    3.0962   N.am      1 RES1   0.0000
   181 C63      -2.7011    1.1799    3.9662   C.3       1 RES1   0.0000
   182 C64      -1.2857    1.8971    2.1364   C.2       1 RES1   0.0000
   183 O5       -1.3435    0.8141    1.5324   O.2       1 RES1   0.0000
   184 C65      -0.1931    2.9163    1.7934   C.3       1 RES1   0.0000
   185 C66       1.1124    2.2165    1.3054   C.3       1 RES1   0.0000
   186 C67       2.3650    2.0019    2.1697   C.3       1 RES1   0.0000
   187 C68       3.1934    0.9856    1.3601   C.3       1 RES1   0.0000
   188 C69       4.5852    0.5115    1.8095   C.3       1 RES1   0.0000
   189 C70       4.6050   -0.6337    2.8114   C.3       1 RES1   0.0000
   190 C71       5.9939   -1.2352    2.9672   C.3       1 RES1   0.0000
   191 C72      -0.6510    3.6021    0.5026   C.2       1 RES1   0.0000
   192 O6       -0.9136    2.8701   -0.4597   O.2       1 RES1   0.0000
   193 N6       -0.6472    4.9364    0.4315   N.am      1 RES1   0.0000
   194 C73      -0.4730    5.8269    1.5625   C.3       1 RES1   0.0000
   195 C74      -0.6607    5.5543   -0.8898   C.3       1 RES1   0.0000
   196 C75       0.7543    5.6010   -1.4719   C.3       1 RES1   0.0000
   197 C76       1.6805    6.4999   -0.6571   C.3       1 RES1   0.0000
   198 C77       3.1077    6.5757   -1.1974   C.3       1 RES1   0.0000
   199 C78       3.9359    7.6526   -0.4808   C.3       1 RES1   0.0000
   200 C79       4.0895    7.4198    1.0243   C.3       1 RES1   0.0000
   201 C80       5.0370    8.4163    1.6978   C.3       1 RES1   0.0000
   202 C81       6.5052    8.1478    1.3943   C.3       1 RES1   0.0000
   203 H109     -8.6757    2.6048   -2.0328   H         1 RES1   0.0000
   204 H110     -8.3536    4.3341   -2.0990   H         1 RES1   0.0000
   205 H111     -7.2059    3.1922   -2.8060   H         1 RES1   0.0000
   206 H112     -6.3660    4.0264   -0.6165   H         1 RES1   0.0000
   207 H113     -6.6888    2.2863   -0.5743   H         1 RES1   0.0000
   208 H114     -8.9181    2.7471    0.4374   H         1 RES1   0.0000
   209 H115     -8.5129    4.4548    0.5329   H         1 RES1   0.0000
   210 H116     -6.7628    2.3173    1.8138   H         1 RES1   0.0000
   211 H117     -8.2029    2.9200    2.6127   H         1 RES1   0.0000
   212 H118     -6.7979    4.3802    3.5861   H         1 RES1   0.0000
   213 H119     -7.0810    5.3078    2.1209   H         1 RES1   0.0000
   214 H120     -4.7624    5.3908    2.5873   H         1 RES1   0.0000
   215 H121     -4.9169    4.3167    1.1963   H         1 RES1   0.0000
   216 H122     -4.6305    2.3677    2.5650   H         1 RES1   0.0000
   217 H123     -4.7990    3.2835    4.0557   H         1 RES1   0.0000
   218 H124     -2.6227    4.0790    4.0081   H         1 RES1   0.0000
   219 H125     -2.5477    4.0628    2.2296   H         1 RES1   0.0000
   220 H126     -2.5956    1.5199    5.0002   H         1 RES1   0.0000
   221 H127     -2.1098    0.2791    3.8064   H         1 RES1   0.0000
   222 H128     -3.7542    0.9607    3.8001   H         1 RES1   0.0000
   223 H129     -0.0224    3.5983    2.6222   H         1 RES1   0.0000
   224 H130      1.4607    2.7484    0.4131   H         1 RES1   0.0000
   225 H131      0.8004    1.2052    0.9655   H         1 RES1   0.0000
   226 H132      2.9245    2.9322    2.2861   H         1 RES1   0.0000
   227 H133      2.1277    1.6140    3.1492   H         1 RES1   0.0000
   228 H134      3.3082    1.4465    0.3797   H         1 RES1   0.0000
   229 H135      2.5690    0.0954    1.2359   H         1 RES1   0.0000
   230 H136      5.1705    1.3259    2.2214   H         1 RES1   0.0000
   231 H137      5.1022    0.1608    0.9116   H         1 RES1   0.0000
   232 H138      3.9192   -1.4008    2.4800   H         1 RES1   0.0000
   233 H139      4.2540   -0.2807    3.7730   H         1 RES1   0.0000
   234 H140      6.2947   -1.7661    2.0683   H         1 RES1   0.0000
   235 H141      6.0196   -1.9287    3.8028   H         1 RES1   0.0000
   236 H142      6.7281   -0.4604    3.1569   H         1 RES1   0.0000
   237 H143     -1.2592    5.6938    2.3072   H         1 RES1   0.0000
   238 H144     -0.5466    6.8498    1.2008   H         1 RES1   0.0000
   239 H145      0.5012    5.7128    2.0415   H         1 RES1   0.0000
   240 H146     -1.0685    6.5622   -0.8096   H         1 RES1   0.0000
   241 H147     -1.3215    4.9557   -1.5152   H         1 RES1   0.0000
   242 H148      0.7038    5.9753   -2.4949   H         1 RES1   0.0000
   243 H149      1.1457    4.5823   -1.4976   H         1 RES1   0.0000
   244 H150      1.7469    6.1292    0.3621   H         1 RES1   0.0000
   245 H151      1.2633    7.5083   -0.6350   H         1 RES1   0.0000
   246 H152      3.0842    6.8135   -2.2634   H         1 RES1   0.0000
   247 H153      3.6007    5.6042   -1.0814   H         1 RES1   0.0000
   248 H154      3.4690    8.6274   -0.6424   H         1 RES1   0.0000
   249 H155      4.9255    7.6838   -0.9412   H         1 RES1   0.0000
   250 H156      4.4652    6.4092    1.1928   H         1 RES1   0.0000
   251 H157      3.1098    7.5036    1.5024   H         1 RES1   0.0000
   252 H158      4.8888    8.3557    2.7784   H         1 RES1   0.0000
   253 H159      4.7751    9.4290    1.3876   H         1 RES1   0.0000
   254 H160      6.8094    7.1908    1.8142   H         1 RES1   0.0000
   255 H161      7.1259    8.9215    1.8371   H         1 RES1   0.0000
   256 H162      6.6921    8.1351    0.3232   H         1 RES1   0.0000
   257 C82       6.5866    4.3243    0.3454   C.3       1 RES1   0.0000
   258 C83       5.6097    3.8207    1.4051   C.3       1 RES1   0.0000
   259 C84       6.1654    3.7388    2.8399   C.3       1 RES1   0.0000
   260 C85       5.1517    4.1594    3.9261   C.3       1 RES1   0.0000
   261 C86       5.2641    3.3394    5.2221   C.3       1 RES1   0.0000
   262 C87       4.6601    1.9213    5.1190   C.3       1 RES1   0.0000
   263 C88       3.4451    1.7195    6.0309   C.3       1 RES1   0.0000
   264 C89       2.6611    0.3882    5.8714   C.3       1 RES1   0.0000
   265 N7        1.5538    0.4459    4.9127   N.am      1 RES1   0.0000
   266 C90       0.6117    1.5100    5.2376   C.3       1 RES1   0.0000
   267 C91       1.1532   -0.3913    3.9199   C.2       1 RES1   0.0000
   268 O7        0.2918   -0.0197    3.1241   O.2       1 RES1   0.0000
   269 C92       1.5963   -1.8455    3.8366   C.3       1 RES1   0.0000
   270 C93       0.3193   -2.6358    4.2298   C.3       1 RES1   0.0000
   271 C94      -0.3131   -2.2535    5.5660   C.3       1 RES1   0.0000
   272 C95      -1.5734   -3.0871    5.8157   C.3       1 RES1   0.0000
   273 C96      -2.1605   -2.8613    7.2097   C.3       1 RES1   0.0000
   274 C97      -2.8476   -1.5058    7.3792   C.3       1 RES1   0.0000
   275 C98      -4.1382   -1.3973    6.5743   C.3       1 RES1   0.0000
   276 C99       1.9145   -2.2699    2.3941   C.2       1 RES1   0.0000
   277 O8        1.4743   -1.6734    1.3963   O.2       1 RES1   0.0000
   278 N8        2.7032   -3.3520    2.2301   N.am      1 RES1   0.0000
   279 C100      3.1890   -4.2310    3.2749   C.3       1 RES1   0.0000
   280 C101      3.3587   -3.5505    0.9409   C.3       1 RES1   0.0000
   281 C102      2.5408   -4.3306   -0.0853   C.3       1 RES1   0.0000
   282 C103      2.4973   -5.8423    0.1406   C.3       1 RES1   0.0000
   283 C104      1.7994   -6.5052   -1.0514   C.3       1 RES1   0.0000
   284 C105      1.3236   -7.9394   -0.8099   C.3       1 RES1   0.0000
   285 C106      0.1366   -8.0023    0.1526   C.3       1 RES1   0.0000
   286 C107     -0.5450   -9.3700    0.1956   C.3       1 RES1   0.0000
   287 C108     -1.3902   -9.6458   -1.0409   C.3       1 RES1   0.0000
   288 H163      6.0901    4.3429   -0.6254   H         1 RES1   0.0000
   289 H164      6.9312    5.3309    0.5598   H         1 RES1   0.0000
   290 H165      7.4567    3.6789    0.2582   H         1 RES1   0.0000
   291 H166      5.2724    2.8367    1.0864   H         1 RES1   0.0000
   292 H167      4.7333    4.4723    1.3977   H         1 RES1   0.0000
   293 H168      7.0484    4.3717    2.9145   H         1 RES1   0.0000
   294 H169      6.5023    2.7227    3.0574   H         1 RES1   0.0000
   295 H170      4.1330    4.0704    3.5396   H         1 RES1   0.0000
   296 H171      5.3075    5.2152    4.1624   H         1 RES1   0.0000
   297 H172      4.7657    3.8810    6.0289   H         1 RES1   0.0000
   298 H173      6.3231    3.2786    5.4730   H         1 RES1   0.0000
   299 H174      5.4180    1.1844    5.3811   H         1 RES1   0.0000
   300 H175      4.3770    1.7514    4.0872   H         1 RES1   0.0000
   301 H176      2.7735    2.5627    5.8959   H         1 RES1   0.0000
   302 H177      3.7948    1.7672    7.0633   H         1 RES1   0.0000
   303 H178      2.2220    0.1539    6.8474   H         1 RES1   0.0000
   304 H179      3.3589   -0.4094    5.6229   H         1 RES1   0.0000
   305 H180      0.4305    1.4941    6.3123   H         1 RES1   0.0000
   306 H181     -0.3152    1.3243    4.7072   H         1 RES1   0.0000
   307 H182      0.9754    2.4989    4.9625   H         1 RES1   0.0000
   308 H183      2.4362   -2.0589    4.4969   H         1 RES1   0.0000
   309 H184      0.5495   -3.7025    4.2448   H         1 RES1   0.0000
   310 H185     -0.4153   -2.4440    3.4420   H         1 RES1   0.0000
   311 H186      0.3943   -2.4162    6.3814   H         1 RES1   0.0000
   312 H187     -0.5834   -1.1971    5.5496   H         1 RES1   0.0000
   313 H188     -1.3257   -4.1464    5.7064   H         1 RES1   0.0000
   314 H189     -2.3218   -2.8415    5.0610   H         1 RES1   0.0000
   315 H190     -1.3571   -2.9566    7.9428   H         1 RES1   0.0000
   316 H191     -2.8901   -3.6470    7.4162   H         1 RES1   0.0000
   317 H192     -2.1651   -0.7008    7.0956   H         1 RES1   0.0000
   318 H193     -3.0835   -1.3746    8.4352   H         1 RES1   0.0000
   319 H194     -3.9382   -1.3212    5.5075   H         1 RES1   0.0000
   320 H195     -4.7022   -0.5185    6.8745   H         1 RES1   0.0000
   321 H196     -4.7612   -2.2722    6.7422   H         1 RES1   0.0000
   322 H197      4.2028   -3.9627    3.5808   H         1 RES1   0.0000
   323 H198      3.2258   -5.2494    2.8874   H         1 RES1   0.0000
   324 H199      2.5438   -4.2200    4.1449   H         1 RES1   0.0000
   325 H200      4.2922   -4.0784    1.1316   H         1 RES1   0.0000
   326 H201      3.6071   -2.5648    0.5346   H         1 RES1   0.0000
   327 H202      2.9767   -4.1583   -1.0733   H         1 RES1   0.0000
   328 H203      1.5186   -3.9485   -0.0785   H         1 RES1   0.0000
   329 H204      1.9553   -6.0674    1.0590   H         1 RES1   0.0000
   330 H205      3.5060   -6.2506    0.2330   H         1 RES1   0.0000
   331 H206      2.4823   -6.4905   -1.9048   H         1 RES1   0.0000
   332 H207      0.9235   -5.9049   -1.3167   H         1 RES1   0.0000
   333 H208      2.1436   -8.5466   -0.4248   H         1 RES1   0.0000
   334 H209      1.0256   -8.3595   -1.7726   H         1 RES1   0.0000
   335 H210     -0.6031   -7.2510   -0.1496   H         1 RES1   0.0000
   336 H211      0.4822   -7.7573    1.1604   H         1 RES1   0.0000
   337 H212     -1.1880   -9.4091    1.0774   H         1 RES1   0.0000
   338 H213      0.2097  -10.1490    0.3052   H         1 RES1   0.0000
   339 H214     -2.1227   -8.8532   -1.1913   H         1 RES1   0.0000
   340 H215     -1.9249  -10.5836   -0.9238   H         1 RES1   0.0000
   341 H216     -0.7742   -9.7190   -1.9331   H         1 RES1   0.0000
   342 O9        1.2292   -1.5659   -1.4037   O.3       1 RES1   0.0000
   343 H217      2.1873   -1.6824   -1.3100   H         1 RES1   0.0000
   344 H218      0.8215   -2.2717   -0.8615   H         1 RES1   0.0000
@<TRIPOS>BOND
     1     1    13    1
     2     1    22    1
     3     1    98    1
     4     1   107    1
     5     1   183    1
     6     1   192    1
     7     1   268    1
     8     1   277    1
     9     1   342    1
    10     2     3    1
    11     2    33    1
    12     2    34    1
    13     2    35    1
    14     3     4    1
    15     3    36    1
    16     3    37    1
    17     4     5    1
    18     4    38    1
    19     4    39    1
    20     5     6    1
    21     5    40    1
    22     5    41    1
    23     6     7    1
    24     6    42    1
    25     6    43    1
    26     7     8    1
    27     7    44    1
    28     7    45    1
    29     8     9    1
    30     8    46    1
    31     8    47    1
    32     9    10    1
    33     9    48    1
    34     9    49    1
    35    10    11    1
    36    10    12    1
    37    11    50    1
    38    11    51    1
    39    11    52    1
    40    12    13    2
    41    12    14    1
    42    14    15    1
    43    14    21    1
    44    14    53    1
    45    15    16    1
    46    15    54    1
    47    15    55    1
    48    16    17    1
    49    16    56    1
    50    16    57    1
    51    17    18    1
    52    17    58    1
    53    17    59    1
    54    18    19    1
    55    18    60    1
    56    18    61    1
    57    19    20    1
    58    19    62    1
    59    19    63    1
    60    20    64    1
    61    20    65    1
    62    20    66    1
    63    21    22    2
    64    21    23    1
    65    23    24    1
    66    23    25    1
    67    24    67    1
    68    24    68    1
    69    24    69    1
    70    25    26    1
    71    25    70    1
    72    25    71    1
    73    26    27    1
    74    26    72    1
    75    26    73    1
    76    27    28    1
    77    27    74    1
    78    27    75    1
    79    28    29    1
    80    28    76    1
    81    28    77    1
    82    29    30    1
    83    29    78    1
    84    29    79    1
    85    30    31    1
    86    30    80    1
    87    30    81    1
    88    31    32    1
    89    31    82    1
    90    31    83    1
    91    32    84    1
    92    32    85    1
    93    32    86    1
    94    87    88    1
    95    87   118    1
    96    87   119    1
    97    87   120    1
    98    88    89    1
    99    88   121    1
   100    88   122    1
   101    89    90    1
   102    89   123    1
   103    89   124    1
   104    90    91    1
   105    90   125    1
   106    90   126    1
   107    91    92    1
   108    91   127    1
   109    91   128    1
   110    92    93    1
   111    92   129    1
   112    92   130    1
   113    93    94    1
   114    93   131    1
   115    93   132    1
   116    94    95    1
   117    94   133    1
   118    94   134    1
   119    95    96    1
   120    95    97    1
   121    96   135    1
   122    96   136    1
   123    96   137    1
   124    97    98    2
   125    97    99    1
   126    99   100    1
   127    99   106    1
   128    99   138    1
   129   100   101    1
   130   100   139    1
   131   100   140    1
   132   101   102    1
   133   101   141    1
   134   101   142    1
   135   102   103    1
   136   102   143    1
   137   102   144    1
   138   103   104    1
   139   103   145    1
   140   103   146    1
   141   104   105    1
   142   104   147    1
   143   104   148    1
   144   105   149    1
   145   105   150    1
   146   105   151    1
   147   106   107    2
   148   106   108    1
   149   108   109    1
   150   108   110    1
   151   109   152    1
   152   109   153    1
   153   109   154    1
   154   110   111    1
   155   110   155    1
   156   110   156    1
   157   111   112    1
   158   111   157    1
   159   111   158    1
   160   112   113    1
   161   112   159    1
   162   112   160    1
   163   113   114    1
   164   113   161    1
   165   113   162    1
   166   114   115    1
   167   114   163    1
   168   114   164    1
   169   115   116    1
   170   115   165    1
   171   115   166    1
   172   116   117    1
   173   116   167    1
   174   116   168    1
   175   117   169    1
   176   117   170    1
   177   117   171    1
   178   172   173    1
   179   172   203    1
   180   172   204    1
   181   172   205    1
   182   173   174    1
   183   173   206    1
   184   173   207    1
   185   174   175    1
   186   174   208    1
   187   174   209    1
   188   175   176    1
   189   175   210    1
   190   175   211    1
   191   176   177    1
   192   176   212    1
   193   176   213    1
   194   177   178    1
   195   177   214    1
   196   177   215    1
   197   178   179    1
   198   178   216    1
   199   178   217    1
   200   179   180    1
   201   179   218    1
   202   179   219    1
   203   180   181    1
   204   180   182    1
   205   181   220    1
   206   181   221    1
   207   181   222    1
   208   182   183    2
   209   182   184    1
   210   184   185    1
   211   184   191    1
   212   184   223    1
   213   185   186    1
   214   185   224    1
   215   185   225    1
   216   186   187    1
   217   186   226    1
   218   186   227    1
   219   187   188    1
   220   187   228    1
   221   187   229    1
   222   188   189    1
   223   188   230    1
   224   188   231    1
   225   189   190    1
   226   189   232    1
   227   189   233    1
   228   190   234    1
   229   190   235    1
   230   190   236    1
   231   191   192    2
   232   191   193    1
   233   193   194    1
   234   193   195    1
   235   194   237    1
   236   194   238    1
   237   194   239    1
   238   195   196    1
   239   195   240    1
   240   195   241    1
   241   196   197    1
   242   196   242    1
   243   196   243    1
   244   197   198    1
   245   197   244    1
   246   197   245    1
   247   198   199    1
   248   198   246    1
   249   198   247    1
   250   199   200    1
   251   199   248    1
   252   199   249    1
   253   200   201    1
   254   200   250    1
   255   200   251    1
   256   201   202    1
   257   201   252    1
   258   201   253    1
   259   202   254    1
   260   202   255    1
   261   202   256    1
   262   257   258    1
   263   257   288    1
   264   257   289    1
   265   257   290    1
   266   258   259    1
   267   258   291    1
   268   258   292    1
   269   259   260    1
   270   259   293    1
   271   259   294    1
   272   260   261    1
   273   260   295    1
   274   260   296    1
   275   261   262    1
   276   261   297    1
   277   261   298    1
   278   262   263    1
   279   262   299    1
   280   262   300    1
   281   263   264    1
   282   263   301    1
   283   263   302    1
   284   264   265    1
   285   264   303    1
   286   264   304    1
   287   265   266    1
   288   265   267    1
   289   266   305    1
   290   266   306    1
   291   266   307    1
   292   267   268    2
   293   267   269    1
   294   269   270    1
   295   269   276    1
   296   269   308    1
   297   270   271    1
   298   270   309    1
   299   270   310    1
   300   271   272    1
   301   271   311    1
   302   271   312    1
   303   272   273    1
   304   272   313    1
   305   272   314    1
   306   273   274    1
   307   273   315    1
   308   273   316    1
   309   274   275    1
   310   274   317    1
   311   274   318    1
   312   275   319    1
   313   275   320    1
   314   275   321    1
   315   276   277    2
   316   276   278    1
   317   278   279    1
   318   278   280    1
   319   279   322    1
   320   279   323    1
   321   279   324    1
   322   280   281    1
   323   280   325    1
   324   280   326    1
   325   281   282    1
   326   281   327    1
   327   281   328    1
   328   282   283    1
   329   282   329    1
   330   282   330    1
   331   283   284    1
   332   283   331    1
   333   283   332    1
   334   284   285    1
   335   284   333    1
   336   284   334    1
   337   285   286    1
   338   285   335    1
   339   285   336    1
   340   286   287    1
   341   286   337    1
   342   286   338    1
   343   287   339    1
   344   287   340    1
   345   287   341    1
   346   342   343    1
   347   342   344    1
@<TRIPOS>SUBSTRUCTURE
     1 RES1      344 GROUP             0 ****  ****    0  
