@<TRIPOS>MOLECULE
am_c3_9H2O_c0_0_nunpairedes_0_charge_3 Charge: 3 Unpaired_Electrons: 3 XTB_Unpaired_Electrons: 0 XTB_Charge: 3
   328   333     1     0     0
SMALL
NoCharges
****
Generated from Architector

@<TRIPOS>ATOM
     1 Nd1      -0.0430   -0.0323   -0.2482   Nd        1 RES1   0.0000
     2 C1       -4.0990    0.1690    5.8937   C.3       1 RES1   0.0000
     3 C2       -3.1365   -0.9730    5.5946   C.3       1 RES1   0.0000
     4 C3       -3.6670   -1.8679    4.4765   C.3       1 RES1   0.0000
     5 C4       -2.6679   -2.9586    4.0768   C.3       1 RES1   0.0000
     6 C5       -3.3101   -4.1720    3.3817   C.3       1 RES1   0.0000
     7 C6       -3.3638   -4.1264    1.8409   C.3       1 RES1   0.0000
     8 N1       -2.0839   -3.7442    1.2670   N.am      1 RES1   0.0000
     9 C7       -0.9402   -4.6071    1.5418   C.3       1 RES1   0.0000
    10 C8       -0.9554   -5.8503    0.6406   C.3       1 RES1   0.0000
    11 C9        0.3504   -6.6601    0.6546   C.3       1 RES1   0.0000
    12 C10       0.0977   -8.0253    0.0245   C.3       1 RES1   0.0000
    13 C11       1.4944   -5.9546   -0.0782   C.3       1 RES1   0.0000
    14 C12       2.8605   -6.4945    0.3562   C.3       1 RES1   0.0000
    15 C13       4.0074   -5.6636   -0.1231   C.2       1 RES1   0.0000
    16 C14       5.0606   -5.2871    0.5981   C.2       1 RES1   0.0000
    17 C15       6.2126   -4.5567   -0.0255   C.3       1 RES1   0.0000
    18 C16       5.2737   -5.6421    2.0394   C.3       1 RES1   0.0000
    19 C17      -1.8786   -2.5963    0.6273   C.2       1 RES1   0.0000
    20 O1       -0.7969   -1.9770    0.6782   O.2       1 RES1   0.0000
    21 C18      -2.9538   -2.0569   -0.3191   C.3       1 RES1   0.0000
    22 O2       -2.2685   -1.1961   -1.2172   O.3       1 RES1   0.0000
    23 C19      -3.0909   -0.6827   -2.2546   C.3       1 RES1   0.0000
    24 C20      -2.2088    0.3080   -3.0211   C.2       1 RES1   0.0000
    25 O3       -0.9917    0.2652   -2.7696   O.2       1 RES1   0.0000
    26 N2       -2.7093    1.0938   -3.9875   N.am      1 RES1   0.0000
    27 C21      -1.8444    1.2348   -5.1555   C.3       1 RES1   0.0000
    28 C22      -2.3253    0.3896   -6.3421   C.3       1 RES1   0.0000
    29 C23      -2.6938   -1.0807   -6.0695   C.3       1 RES1   0.0000
    30 C24      -1.6400   -1.9963   -5.4325   C.3       1 RES1   0.0000
    31 C25      -2.2009   -3.3683   -5.0173   C.3       1 RES1   0.0000
    32 C26      -2.2717   -4.4353   -6.1046   C.3       1 RES1   0.0000
    33 C27      -4.1073    1.5405   -4.0627   C.3       1 RES1   0.0000
    34 C28      -4.4308    2.9799   -4.5877   C.3       1 RES1   0.0000
    35 C29      -4.3091    4.1906   -3.6146   C.3       1 RES1   0.0000
    36 C30      -3.0169    4.9605   -3.9210   C.3       1 RES1   0.0000
    37 C31      -5.4830    5.2059   -3.6685   C.3       1 RES1   0.0000
    38 C32      -6.8820    4.8468   -3.1216   C.3       1 RES1   0.0000
    39 C33      -7.1221    4.4461   -1.6853   C.2       1 RES1   0.0000
    40 C34      -6.9671    5.1041   -0.5398   C.2       1 RES1   0.0000
    41 C35      -7.4095    4.4742    0.7620   C.3       1 RES1   0.0000
    42 C36      -6.3455    6.4557   -0.3882   C.3       1 RES1   0.0000
    43 H1       -3.7285    0.7782    6.7120   H         1 RES1   0.0000
    44 H2       -5.0764   -0.2152    6.1738   H         1 RES1   0.0000
    45 H3       -4.2236    0.8127    5.0246   H         1 RES1   0.0000
    46 H4       -3.0062   -1.5683    6.4980   H         1 RES1   0.0000
    47 H5       -2.1600   -0.5797    5.3044   H         1 RES1   0.0000
    48 H6       -3.8939   -1.2453    3.6097   H         1 RES1   0.0000
    49 H7       -4.6006   -2.3250    4.8106   H         1 RES1   0.0000
    50 H8       -2.1799   -3.3064    4.9892   H         1 RES1   0.0000
    51 H9       -1.8859   -2.5197    3.4493   H         1 RES1   0.0000
    52 H10      -4.3343   -4.2705    3.7453   H         1 RES1   0.0000
    53 H11      -2.7863   -5.0791    3.6841   H         1 RES1   0.0000
    54 H12      -4.1150   -3.4133    1.5149   H         1 RES1   0.0000
    55 H13      -3.6471   -5.1132    1.4771   H         1 RES1   0.0000
    56 H14      -0.9388   -4.8873    2.5896   H         1 RES1   0.0000
    57 H15      -0.0455   -4.0340    1.3233   H         1 RES1   0.0000
    58 H16      -1.1650   -5.5336   -0.3807   H         1 RES1   0.0000
    59 H17      -1.7567   -6.5118    0.9608   H         1 RES1   0.0000
    60 H18       0.6461   -6.8082    1.6944   H         1 RES1   0.0000
    61 H19      -0.3787   -7.9069   -0.9438   H         1 RES1   0.0000
    62 H20      -0.5430   -8.6350    0.6524   H         1 RES1   0.0000
    63 H21       1.0323   -8.5551   -0.1212   H         1 RES1   0.0000
    64 H22       1.4563   -4.8826    0.1101   H         1 RES1   0.0000
    65 H23       1.3788   -6.1011   -1.1523   H         1 RES1   0.0000
    66 H24       2.9969   -7.5102   -0.0243   H         1 RES1   0.0000
    67 H25       2.8934   -6.5545    1.4410   H         1 RES1   0.0000
    68 H26       3.9990   -5.4154   -1.1779   H         1 RES1   0.0000
    69 H27       6.0185   -4.3079   -1.0674   H         1 RES1   0.0000
    70 H28       7.0899   -5.2016    0.0025   H         1 RES1   0.0000
    71 H29       6.4646   -3.6491    0.5273   H         1 RES1   0.0000
    72 H30       4.3466   -5.8087    2.5813   H         1 RES1   0.0000
    73 H31       5.8297   -4.8628    2.5557   H         1 RES1   0.0000
    74 H32       5.8574   -6.5609    2.0970   H         1 RES1   0.0000
    75 H33      -3.7140   -1.4900    0.2211   H         1 RES1   0.0000
    76 H34      -3.4166   -2.8894   -0.8620   H         1 RES1   0.0000
    77 H35      -4.0163   -0.2692   -1.8466   H         1 RES1   0.0000
    78 H36      -3.3628   -1.4900   -2.9564   H         1 RES1   0.0000
    79 H37      -0.8574    0.8898   -4.8582   H         1 RES1   0.0000
    80 H38      -1.7718    2.2834   -5.4305   H         1 RES1   0.0000
    81 H39      -1.5284    0.4233   -7.0835   H         1 RES1   0.0000
    82 H40      -3.2040    0.8618   -6.7853   H         1 RES1   0.0000
    83 H41      -2.9654   -1.4945   -7.0408   H         1 RES1   0.0000
    84 H42      -3.5935   -1.1123   -5.4503   H         1 RES1   0.0000
    85 H43      -1.2434   -1.5303   -4.5296   H         1 RES1   0.0000
    86 H44      -0.8107   -2.1462   -6.1241   H         1 RES1   0.0000
    87 H45      -3.2066   -3.2394   -4.6105   H         1 RES1   0.0000
    88 H46      -1.5766   -3.7613   -4.2109   H         1 RES1   0.0000
    89 H47      -2.9566   -4.1599   -6.9006   H         1 RES1   0.0000
    90 H48      -2.6332   -5.3649   -5.6667   H         1 RES1   0.0000
    91 H49      -1.2936   -4.6267   -6.5406   H         1 RES1   0.0000
    92 H50      -4.5197    1.4643   -3.0587   H         1 RES1   0.0000
    93 H51      -4.6684    0.8470   -4.6992   H         1 RES1   0.0000
    94 H52      -5.4719    2.9118   -4.9028   H         1 RES1   0.0000
    95 H53      -3.8589    3.2008   -5.4898   H         1 RES1   0.0000
    96 H54      -4.2577    3.8308   -2.5846   H         1 RES1   0.0000
    97 H55      -3.0612    5.3894   -4.9190   H         1 RES1   0.0000
    98 H56      -2.1356    4.3225   -3.8708   H         1 RES1   0.0000
    99 H57      -2.8874    5.7838   -3.2252   H         1 RES1   0.0000
   100 H58      -5.6403    5.4804   -4.7111   H         1 RES1   0.0000
   101 H59      -5.1464    6.1077   -3.1592   H         1 RES1   0.0000
   102 H60      -7.2920    4.0574   -3.7497   H         1 RES1   0.0000
   103 H61      -7.5150    5.7217   -3.2954   H         1 RES1   0.0000
   104 H62      -7.6457    3.5084   -1.5880   H         1 RES1   0.0000
   105 H63      -8.1211    3.6657    0.5972   H         1 RES1   0.0000
   106 H64      -7.8926    5.2163    1.3951   H         1 RES1   0.0000
   107 H65      -6.5513    4.0848    1.3190   H         1 RES1   0.0000
   108 H66      -6.1914    6.9316   -1.3520   H         1 RES1   0.0000
   109 H67      -5.3903    6.3844    0.1375   H         1 RES1   0.0000
   110 H68      -6.9994    7.0867    0.2134   H         1 RES1   0.0000
   111 C37       6.7522   -0.5047   -4.9564   C.3       1 RES1   0.0000
   112 C38       6.4821   -1.7124   -5.8464   C.3       1 RES1   0.0000
   113 C39       6.3018   -3.0015   -5.0394   C.3       1 RES1   0.0000
   114 C40       5.0258   -3.0727   -4.1868   C.3       1 RES1   0.0000
   115 C41       3.7664   -3.3270   -5.0128   C.3       1 RES1   0.0000
   116 C42       2.4736   -3.2382   -4.1937   C.3       1 RES1   0.0000
   117 N3        2.1723   -1.9243   -3.6228   N.am      1 RES1   0.0000
   118 C43       1.7396   -0.9180   -4.5995   C.3       1 RES1   0.0000
   119 C44       2.8674   -0.0776   -5.2315   C.3       1 RES1   0.0000
   120 C45       2.4878    0.3394   -6.6607   C.3       1 RES1   0.0000
   121 C46       2.5601   -0.8175   -7.6600   C.3       1 RES1   0.0000
   122 C47       3.3505    1.4875   -7.1940   C.3       1 RES1   0.0000
   123 C48       3.2234    2.8173   -6.4484   C.3       1 RES1   0.0000
   124 C49       1.8136    3.3277   -6.3886   C.2       1 RES1   0.0000
   125 C50       1.4636    4.5504   -6.0086   C.2       1 RES1   0.0000
   126 C51       2.4658    5.6118   -5.6559   C.3       1 RES1   0.0000
   127 C52       0.0352    5.0073   -6.0171   C.3       1 RES1   0.0000
   128 C53       2.0205   -1.6462   -2.3329   C.2       1 RES1   0.0000
   129 O4        1.4910   -0.5811   -1.9368   O.2       1 RES1   0.0000
   130 C54       2.5341   -2.5875   -1.2466   C.3       1 RES1   0.0000
   131 O5        1.6705   -2.4914   -0.1180   O.3       1 RES1   0.0000
   132 C55       2.3274   -2.6006    1.1432   C.3       1 RES1   0.0000
   133 C56       2.6178   -1.1910    1.6798   C.2       1 RES1   0.0000
   134 O6        2.1174   -0.2364    1.0596   O.2       1 RES1   0.0000
   135 N4        3.5035   -1.0402    2.6920   N.am      1 RES1   0.0000
   136 C57       4.6926   -0.2524    2.3123   C.3       1 RES1   0.0000
   137 C58       5.5464    0.4334    3.3764   C.3       1 RES1   0.0000
   138 C59       7.0366    0.3140    3.0160   C.3       1 RES1   0.0000
   139 C60       7.4451    0.9471    1.6775   C.3       1 RES1   0.0000
   140 C61       7.1972    0.0847    0.4367   C.3       1 RES1   0.0000
   141 C62       8.0003    0.5813   -0.7574   C.3       1 RES1   0.0000
   142 C63       3.7322   -2.1013    3.6727   C.3       1 RES1   0.0000
   143 C64       2.5343   -2.3479    4.6256   C.3       1 RES1   0.0000
   144 C65       2.6748   -1.9798    6.1353   C.3       1 RES1   0.0000
   145 C66       4.1002   -1.9510    6.6947   C.3       1 RES1   0.0000
   146 C67       1.9018   -0.7240    6.5878   C.3       1 RES1   0.0000
   147 C68       2.1624    0.5927    5.8362   C.3       1 RES1   0.0000
   148 C69       1.2491    0.7830    4.6629   C.2       1 RES1   0.0000
   149 C70       0.0619    1.3778    4.6889   C.2       1 RES1   0.0000
   150 C71      -0.5407    1.9986    5.9208   C.3       1 RES1   0.0000
   151 C72      -0.7440    1.5232    3.4218   C.3       1 RES1   0.0000
   152 H69       6.8623    0.3939   -5.5535   H         1 RES1   0.0000
   153 H70       7.6730   -0.6450   -4.3973   H         1 RES1   0.0000
   154 H71       5.9430   -0.3385   -4.2490   H         1 RES1   0.0000
   155 H72       7.3368   -1.8508   -6.5088   H         1 RES1   0.0000
   156 H73       5.6166   -1.5239   -6.4859   H         1 RES1   0.0000
   157 H74       7.1588   -3.0955   -4.3689   H         1 RES1   0.0000
   158 H75       6.3319   -3.8624   -5.7117   H         1 RES1   0.0000
   159 H76       4.9026   -2.1482   -3.6145   H         1 RES1   0.0000
   160 H77       5.1483   -3.8921   -3.4735   H         1 RES1   0.0000
   161 H78       3.8094   -4.3376   -5.4248   H         1 RES1   0.0000
   162 H79       3.7264   -2.6355   -5.8497   H         1 RES1   0.0000
   163 H80       2.5219   -3.9850   -3.4018   H         1 RES1   0.0000
   164 H81       1.6359   -3.4975   -4.8563   H         1 RES1   0.0000
   165 H82       1.0367   -0.2531   -4.0899   H         1 RES1   0.0000
   166 H83       1.1929   -1.4520   -5.3777   H         1 RES1   0.0000
   167 H84       3.7988   -0.6330   -5.2549   H         1 RES1   0.0000
   168 H85       3.0321    0.8080   -4.6132   H         1 RES1   0.0000
   169 H86       1.4485    0.6788   -6.6169   H         1 RES1   0.0000
   170 H87       3.5864   -1.1004   -7.8853   H         1 RES1   0.0000
   171 H88       2.1034   -0.5161   -8.5986   H         1 RES1   0.0000
   172 H89       2.0277   -1.6964   -7.3060   H         1 RES1   0.0000
   173 H90       3.0585    1.6483   -8.2313   H         1 RES1   0.0000
   174 H91       4.4016    1.1938   -7.2086   H         1 RES1   0.0000
   175 H92       3.8369    3.5579   -6.9684   H         1 RES1   0.0000
   176 H93       3.6405    2.7233   -5.4366   H         1 RES1   0.0000
   177 H94       1.0399    2.6455   -6.7088   H         1 RES1   0.0000
   178 H95       3.3400    5.2139   -5.1390   H         1 RES1   0.0000
   179 H96       2.0155    6.3981   -5.0519   H         1 RES1   0.0000
   180 H97       2.8021    6.0761   -6.5845   H         1 RES1   0.0000
   181 H98      -0.6516    4.1910   -6.2432   H         1 RES1   0.0000
   182 H99      -0.0794    5.7754   -6.7824   H         1 RES1   0.0000
   183 H100     -0.2449    5.4522   -5.0628   H         1 RES1   0.0000
   184 H101      3.5507   -2.2634   -0.9990   H         1 RES1   0.0000
   185 H102      2.5986   -3.6308   -1.5566   H         1 RES1   0.0000
   186 H103      3.2812   -3.1396    1.0230   H         1 RES1   0.0000
   187 H104      1.6883   -3.1920    1.8038   H         1 RES1   0.0000
   188 H105      4.3490    0.4837    1.5823   H         1 RES1   0.0000
   189 H106      5.3512   -0.9786    1.8183   H         1 RES1   0.0000
   190 H107      5.3934    0.0213    4.3753   H         1 RES1   0.0000
   191 H108      5.2691    1.4827    3.4405   H         1 RES1   0.0000
   192 H109      7.3233   -0.7419    3.0226   H         1 RES1   0.0000
   193 H110      7.6034    0.8002    3.8125   H         1 RES1   0.0000
   194 H111      8.5160    1.1456    1.7354   H         1 RES1   0.0000
   195 H112      6.9511    1.9152    1.5661   H         1 RES1   0.0000
   196 H113      6.1395    0.0941    0.1639   H         1 RES1   0.0000
   197 H114      7.4931   -0.9460    0.6487   H         1 RES1   0.0000
   198 H115      7.7648    1.6195   -0.9766   H         1 RES1   0.0000
   199 H116      7.7819   -0.0205   -1.6352   H         1 RES1   0.0000
   200 H117      9.0661    0.5119   -0.5664   H         1 RES1   0.0000
   201 H118      4.6007   -1.8025    4.2592   H         1 RES1   0.0000
   202 H119      3.9910   -3.0411    3.1628   H         1 RES1   0.0000
   203 H120      2.3328   -3.4216    4.5778   H         1 RES1   0.0000
   204 H121      1.6485   -1.8348    4.2458   H         1 RES1   0.0000
   205 H122      2.1827   -2.8051    6.6577   H         1 RES1   0.0000
   206 H123      4.6275   -1.0346    6.4381   H         1 RES1   0.0000
   207 H124      4.6878   -2.8063    6.3651   H         1 RES1   0.0000
   208 H125      4.0331   -1.9940    7.7813   H         1 RES1   0.0000
   209 H126      2.1752   -0.5777    7.6330   H         1 RES1   0.0000
   210 H127      0.8311   -0.9403    6.5698   H         1 RES1   0.0000
   211 H128      3.2013    0.6266    5.5136   H         1 RES1   0.0000
   212 H129      2.0265    1.4189    6.5348   H         1 RES1   0.0000
   213 H130      1.6038    0.4090    3.7102   H         1 RES1   0.0000
   214 H131     -0.1874    1.5114    6.8254   H         1 RES1   0.0000
   215 H132     -1.6271    1.9370    5.8986   H         1 RES1   0.0000
   216 H133     -0.2691    3.0548    5.9803   H         1 RES1   0.0000
   217 H134     -0.2803    0.9620    2.5821   H         1 RES1   0.0000
   218 H135     -0.7971    2.5808    3.1517   H         1 RES1   0.0000
   219 H136     -1.7649    1.1630    3.5694   H         1 RES1   0.0000
   220 C73      -0.6333    7.7025   -0.4610   C.3       1 RES1   0.0000
   221 C74       0.6750    7.7631   -1.2403   C.3       1 RES1   0.0000
   222 C75       1.7380    6.8304   -0.6604   C.3       1 RES1   0.0000
   223 C76       2.9399    6.7005   -1.6049   C.3       1 RES1   0.0000
   224 C77       3.5525    5.2989   -1.6515   C.3       1 RES1   0.0000
   225 C78       2.5186    4.1791   -1.8388   C.3       1 RES1   0.0000
   226 N5        2.0746    3.4977   -0.6199   N.am      1 RES1   0.0000
   227 C79       3.1296    3.0789    0.3111   C.3       1 RES1   0.0000
   228 C80       3.3849    4.0657    1.4631   C.3       1 RES1   0.0000
   229 C81       2.3400    4.0188    2.5976   C.3       1 RES1   0.0000
   230 C82       1.6456    5.3684    2.7868   C.3       1 RES1   0.0000
   231 C83       2.9594    3.5163    3.9086   C.3       1 RES1   0.0000
   232 C84       3.9930    4.4370    4.5700   C.3       1 RES1   0.0000
   233 C85       5.3696    4.3486    3.9864   C.2       1 RES1   0.0000
   234 C86       6.1813    5.3293    3.6050   C.2       1 RES1   0.0000
   235 C87       7.5830    5.0135    3.1503   C.3       1 RES1   0.0000
   236 C88       5.8498    6.7875    3.6206   C.3       1 RES1   0.0000
   237 C89       0.8911    2.9215   -0.4709   C.2       1 RES1   0.0000
   238 O7        0.6715    2.0670    0.4179   O.2       1 RES1   0.0000
   239 C90      -0.3333    3.2663   -1.3408   C.3       1 RES1   0.0000
   240 O8       -1.2610    2.2103   -1.0767   O.3       1 RES1   0.0000
   241 C91      -2.6348    2.5215   -0.8730   C.3       1 RES1   0.0000
   242 C92      -3.2088    1.4049    0.0183   C.2       1 RES1   0.0000
   243 O9       -2.3711    0.7050    0.6186   O.2       1 RES1   0.0000
   244 N6       -4.5319    1.2260    0.1658   N.am      1 RES1   0.0000
   245 C93      -5.6125    1.8498   -0.6050   C.3       1 RES1   0.0000
   246 C94      -6.4371    0.8451   -1.4585   C.3       1 RES1   0.0000
   247 C95      -7.0971    1.3475   -2.7446   C.3       1 RES1   0.0000
   248 C96      -7.4305    0.1665   -3.6591   C.3       1 RES1   0.0000
   249 C97      -8.0939    0.6133   -4.9744   C.3       1 RES1   0.0000
   250 C98      -7.3121    0.1801   -6.2083   C.3       1 RES1   0.0000
   251 C99      -4.9830    0.4811    1.3528   C.3       1 RES1   0.0000
   252 C100     -6.1367   -0.4818    1.0827   C.3       1 RES1   0.0000
   253 C101     -6.4099   -1.4685    2.2156   C.3       1 RES1   0.0000
   254 C102     -6.9637   -0.6934    3.4075   C.3       1 RES1   0.0000
   255 C103     -7.4149   -2.5842    1.8315   C.3       1 RES1   0.0000
   256 C104     -7.6341   -2.9145    0.3407   C.3       1 RES1   0.0000
   257 C105     -6.4953   -3.4991   -0.4510   C.2       1 RES1   0.0000
   258 C106     -6.1254   -4.7759   -0.4874   C.2       1 RES1   0.0000
   259 C107     -6.7037   -5.8525    0.3762   C.3       1 RES1   0.0000
   260 C108     -5.0668   -5.2787   -1.4265   C.3       1 RES1   0.0000
   261 H137     -1.3653    8.3770   -0.8972   H         1 RES1   0.0000
   262 H138     -0.4933    7.9831    0.5806   H         1 RES1   0.0000
   263 H139     -1.0427    6.6909   -0.4902   H         1 RES1   0.0000
   264 H140      1.0556    8.7838   -1.2430   H         1 RES1   0.0000
   265 H141      0.4830    7.4810   -2.2804   H         1 RES1   0.0000
   266 H142      1.2815    5.8516   -0.4864   H         1 RES1   0.0000
   267 H143      2.0647    7.2172    0.3051   H         1 RES1   0.0000
   268 H144      3.7170    7.4094   -1.3136   H         1 RES1   0.0000
   269 H145      2.6307    6.9639   -2.6190   H         1 RES1   0.0000
   270 H146      4.1584    5.1238   -0.7704   H         1 RES1   0.0000
   271 H147      4.2354    5.2630   -2.5008   H         1 RES1   0.0000
   272 H148      2.9726    3.4070   -2.4692   H         1 RES1   0.0000
   273 H149      1.6591    4.5883   -2.3656   H         1 RES1   0.0000
   274 H150      4.0404    2.9286   -0.2785   H         1 RES1   0.0000
   275 H151      2.8156    2.1237    0.7497   H         1 RES1   0.0000
   276 H152      3.4651    5.0897    1.1070   H         1 RES1   0.0000
   277 H153      4.3615    3.8056    1.8718   H         1 RES1   0.0000
   278 H154      1.5626    3.2941    2.3346   H         1 RES1   0.0000
   279 H155      2.3652    6.1780    2.8673   H         1 RES1   0.0000
   280 H156      1.0428    5.3604    3.6914   H         1 RES1   0.0000
   281 H157      0.9833    5.5814    1.9506   H         1 RES1   0.0000
   282 H158      3.4061    2.5377    3.7228   H         1 RES1   0.0000
   283 H159      2.1427    3.3588    4.6131   H         1 RES1   0.0000
   284 H160      4.0668    4.1230    5.6162   H         1 RES1   0.0000
   285 H161      3.6252    5.4595    4.5674   H         1 RES1   0.0000
   286 H162      5.7744    3.3429    3.9696   H         1 RES1   0.0000
   287 H163      7.6007    4.1826    2.4450   H         1 RES1   0.0000
   288 H164      8.1940    4.7266    4.0059   H         1 RES1   0.0000
   289 H165      8.0377    5.8834    2.6837   H         1 RES1   0.0000
   290 H166      4.8271    6.9833    3.9290   H         1 RES1   0.0000
   291 H167      6.0140    7.2227    2.6339   H         1 RES1   0.0000
   292 H168      6.5232    7.2898    4.3144   H         1 RES1   0.0000
   293 H169     -0.0802    3.2790   -2.4100   H         1 RES1   0.0000
   294 H170     -0.7483    4.2436   -1.0544   H         1 RES1   0.0000
   295 H171     -3.1406    2.6051   -1.8337   H         1 RES1   0.0000
   296 H172     -2.7724    3.4617   -0.3229   H         1 RES1   0.0000
   297 H173     -5.2242    2.6595   -1.2185   H         1 RES1   0.0000
   298 H174     -6.2950    2.3262    0.0972   H         1 RES1   0.0000
   299 H175     -7.2607    0.4482   -0.8736   H         1 RES1   0.0000
   300 H176     -5.8265   -0.0129   -1.7392   H         1 RES1   0.0000
   301 H177     -6.4775    2.0734   -3.2589   H         1 RES1   0.0000
   302 H178     -8.0442    1.8214   -2.4992   H         1 RES1   0.0000
   303 H179     -8.0942   -0.4990   -3.1012   H         1 RES1   0.0000
   304 H180     -6.5182   -0.3875   -3.8895   H         1 RES1   0.0000
   305 H181     -8.2081    1.6984   -4.9836   H         1 RES1   0.0000
   306 H182     -9.0947    0.1927   -5.0309   H         1 RES1   0.0000
   307 H183     -6.3319    0.6560   -6.2488   H         1 RES1   0.0000
   308 H184     -7.8540    0.4457   -7.1106   H         1 RES1   0.0000
   309 H185     -7.1767   -0.8974   -6.2049   H         1 RES1   0.0000
   310 H186     -5.2825    1.2102    2.1098   H         1 RES1   0.0000
   311 H187     -4.1236   -0.0578    1.7572   H         1 RES1   0.0000
   312 H188     -5.9136   -1.0477    0.1870   H         1 RES1   0.0000
   313 H189     -7.0546    0.0770    0.9287   H         1 RES1   0.0000
   314 H190     -5.4619   -1.9326    2.4955   H         1 RES1   0.0000
   315 H191     -7.8482   -0.1334    3.1098   H         1 RES1   0.0000
   316 H192     -6.2304    0.0102    3.7891   H         1 RES1   0.0000
   317 H193     -7.2531   -1.3609    4.2125   H         1 RES1   0.0000
   318 H194     -8.4012   -2.2975    2.2056   H         1 RES1   0.0000
   319 H195     -7.1258   -3.4949    2.3581   H         1 RES1   0.0000
   320 H196     -7.9790   -2.0100   -0.1615   H         1 RES1   0.0000
   321 H197     -8.4693   -3.6187    0.3096   H         1 RES1   0.0000
   322 H198     -6.0099   -2.8165   -1.1443   H         1 RES1   0.0000
   323 H199     -7.6861   -5.5928    0.7540   H         1 RES1   0.0000
   324 H200     -6.0552   -6.0390    1.2330   H         1 RES1   0.0000
   325 H201     -6.7824   -6.7823   -0.1830   H         1 RES1   0.0000
   326 H202     -4.5635   -4.4738   -1.9604   H         1 RES1   0.0000
   327 H203     -5.5351   -5.9276   -2.1656   H         1 RES1   0.0000
   328 H204     -4.3272   -5.8804   -0.8974   H         1 RES1   0.0000
@<TRIPOS>BOND
     1     1    20    1
     2     1    22    1
     3     1    25    1
     4     1   129    1
     5     1   131    1
     6     1   134    1
     7     1   238    1
     8     1   240    1
     9     1   243    1
    10     2     3    1
    11     2    43    1
    12     2    44    1
    13     2    45    1
    14     3     4    1
    15     3    46    1
    16     3    47    1
    17     4     5    1
    18     4    48    1
    19     4    49    1
    20     5     6    1
    21     5    50    1
    22     5    51    1
    23     6     7    1
    24     6    52    1
    25     6    53    1
    26     7     8    1
    27     7    54    1
    28     7    55    1
    29     8     9    1
    30     8    19    1
    31     9    10    1
    32     9    56    1
    33     9    57    1
    34    10    11    1
    35    10    58    1
    36    10    59    1
    37    11    12    1
    38    11    13    1
    39    11    60    1
    40    12    61    1
    41    12    62    1
    42    12    63    1
    43    13    14    1
    44    13    64    1
    45    13    65    1
    46    14    15    1
    47    14    66    1
    48    14    67    1
    49    15    16    2
    50    15    68    1
    51    16    17    1
    52    16    18    1
    53    17    69    1
    54    17    70    1
    55    17    71    1
    56    18    72    1
    57    18    73    1
    58    18    74    1
    59    19    20    2
    60    19    21    1
    61    21    22    1
    62    21    75    1
    63    21    76    1
    64    22    23    1
    65    23    24    1
    66    23    77    1
    67    23    78    1
    68    24    25    2
    69    24    26    1
    70    26    27    1
    71    26    33    1
    72    27    28    1
    73    27    79    1
    74    27    80    1
    75    28    29    1
    76    28    81    1
    77    28    82    1
    78    29    30    1
    79    29    83    1
    80    29    84    1
    81    30    31    1
    82    30    85    1
    83    30    86    1
    84    31    32    1
    85    31    87    1
    86    31    88    1
    87    32    89    1
    88    32    90    1
    89    32    91    1
    90    33    34    1
    91    33    92    1
    92    33    93    1
    93    34    35    1
    94    34    94    1
    95    34    95    1
    96    35    36    1
    97    35    37    1
    98    35    96    1
    99    36    97    1
   100    36    98    1
   101    36    99    1
   102    37    38    1
   103    37   100    1
   104    37   101    1
   105    38    39    1
   106    38   102    1
   107    38   103    1
   108    39    40    2
   109    39   104    1
   110    40    41    1
   111    40    42    1
   112    41   105    1
   113    41   106    1
   114    41   107    1
   115    42   108    1
   116    42   109    1
   117    42   110    1
   118   111   112    1
   119   111   152    1
   120   111   153    1
   121   111   154    1
   122   112   113    1
   123   112   155    1
   124   112   156    1
   125   113   114    1
   126   113   157    1
   127   113   158    1
   128   114   115    1
   129   114   159    1
   130   114   160    1
   131   115   116    1
   132   115   161    1
   133   115   162    1
   134   116   117    1
   135   116   163    1
   136   116   164    1
   137   117   118    1
   138   117   128    1
   139   118   119    1
   140   118   165    1
   141   118   166    1
   142   119   120    1
   143   119   167    1
   144   119   168    1
   145   120   121    1
   146   120   122    1
   147   120   169    1
   148   121   170    1
   149   121   171    1
   150   121   172    1
   151   122   123    1
   152   122   173    1
   153   122   174    1
   154   123   124    1
   155   123   175    1
   156   123   176    1
   157   124   125    2
   158   124   177    1
   159   125   126    1
   160   125   127    1
   161   126   178    1
   162   126   179    1
   163   126   180    1
   164   127   181    1
   165   127   182    1
   166   127   183    1
   167   128   129    2
   168   128   130    1
   169   130   131    1
   170   130   184    1
   171   130   185    1
   172   131   132    1
   173   132   133    1
   174   132   186    1
   175   132   187    1
   176   133   134    2
   177   133   135    1
   178   135   136    1
   179   135   142    1
   180   136   137    1
   181   136   188    1
   182   136   189    1
   183   137   138    1
   184   137   190    1
   185   137   191    1
   186   138   139    1
   187   138   192    1
   188   138   193    1
   189   139   140    1
   190   139   194    1
   191   139   195    1
   192   140   141    1
   193   140   196    1
   194   140   197    1
   195   141   198    1
   196   141   199    1
   197   141   200    1
   198   142   143    1
   199   142   201    1
   200   142   202    1
   201   143   144    1
   202   143   203    1
   203   143   204    1
   204   144   145    1
   205   144   146    1
   206   144   205    1
   207   145   206    1
   208   145   207    1
   209   145   208    1
   210   146   147    1
   211   146   209    1
   212   146   210    1
   213   147   148    1
   214   147   211    1
   215   147   212    1
   216   148   149    2
   217   148   213    1
   218   149   150    1
   219   149   151    1
   220   150   214    1
   221   150   215    1
   222   150   216    1
   223   151   217    1
   224   151   218    1
   225   151   219    1
   226   220   221    1
   227   220   261    1
   228   220   262    1
   229   220   263    1
   230   221   222    1
   231   221   264    1
   232   221   265    1
   233   222   223    1
   234   222   266    1
   235   222   267    1
   236   223   224    1
   237   223   268    1
   238   223   269    1
   239   224   225    1
   240   224   270    1
   241   224   271    1
   242   225   226    1
   243   225   272    1
   244   225   273    1
   245   226   227    1
   246   226   237    1
   247   227   228    1
   248   227   274    1
   249   227   275    1
   250   228   229    1
   251   228   276    1
   252   228   277    1
   253   229   230    1
   254   229   231    1
   255   229   278    1
   256   230   279    1
   257   230   280    1
   258   230   281    1
   259   231   232    1
   260   231   282    1
   261   231   283    1
   262   232   233    1
   263   232   284    1
   264   232   285    1
   265   233   234    2
   266   233   286    1
   267   234   235    1
   268   234   236    1
   269   235   287    1
   270   235   288    1
   271   235   289    1
   272   236   290    1
   273   236   291    1
   274   236   292    1
   275   237   238    2
   276   237   239    1
   277   239   240    1
   278   239   293    1
   279   239   294    1
   280   240   241    1
   281   241   242    1
   282   241   295    1
   283   241   296    1
   284   242   243    2
   285   242   244    1
   286   244   245    1
   287   244   251    1
   288   245   246    1
   289   245   297    1
   290   245   298    1
   291   246   247    1
   292   246   299    1
   293   246   300    1
   294   247   248    1
   295   247   301    1
   296   247   302    1
   297   248   249    1
   298   248   303    1
   299   248   304    1
   300   249   250    1
   301   249   305    1
   302   249   306    1
   303   250   307    1
   304   250   308    1
   305   250   309    1
   306   251   252    1
   307   251   310    1
   308   251   311    1
   309   252   253    1
   310   252   312    1
   311   252   313    1
   312   253   254    1
   313   253   255    1
   314   253   314    1
   315   254   315    1
   316   254   316    1
   317   254   317    1
   318   255   256    1
   319   255   318    1
   320   255   319    1
   321   256   257    1
   322   256   320    1
   323   256   321    1
   324   257   258    2
   325   257   322    1
   326   258   259    1
   327   258   260    1
   328   259   323    1
   329   259   324    1
   330   259   325    1
   331   260   326    1
   332   260   327    1
   333   260   328    1
@<TRIPOS>SUBSTRUCTURE
     1 RES1      328 GROUP             0 ****  ****    0  
