@<TRIPOS>MOLECULE
cn9_YICLED_0_nunpairedes_0_charge_3 Charge: 3 Unpaired_Electrons: 3 XTB_Unpaired_Electrons: 0 XTB_Charge: 3
   448   453     1     0     0
SMALL
NoCharges
****
Generated from Architector

@<TRIPOS>ATOM
     1 Nd1      -0.0105    0.1151   -0.1137   Nd        1 RES1   0.0000
     2 C1       -9.9708   -1.8935    0.2197   C.3       1 RES1   0.0000
     3 C2       -9.6980   -3.3919    0.2185   C.3       1 RES1   0.0000
     4 C3       -8.2919   -3.7055   -0.2817   C.3       1 RES1   0.0000
     5 C4       -7.9703   -5.1962   -0.2333   C.3       1 RES1   0.0000
     6 C5       -6.7034   -5.5768   -1.0096   C.3       1 RES1   0.0000
     7 C6       -5.3959   -5.5673   -0.2086   C.3       1 RES1   0.0000
     8 C7       -4.7910   -4.2046    0.1503   C.3       1 RES1   0.0000
     9 C8       -3.3961   -4.4523    0.7289   C.3       1 RES1   0.0000
    10 N1       -2.7043   -3.2790    1.2388   N.am      1 RES1   0.0000
    11 C9       -3.1041   -2.8336    2.5685   C.3       1 RES1   0.0000
    12 C10      -2.2910   -3.4384    3.7160   C.3       1 RES1   0.0000
    13 C11      -2.6612   -4.8875    4.0907   C.3       1 RES1   0.0000
    14 C12      -1.6584   -5.9638    3.6242   C.3       1 RES1   0.0000
    15 C13      -2.4222   -7.2797    3.3702   C.3       1 RES1   0.0000
    16 C14      -1.5904   -8.4631    2.8740   C.3       1 RES1   0.0000
    17 C15      -0.9426   -8.2465    1.5099   C.3       1 RES1   0.0000
    18 C16      -0.2318   -9.5101    1.0424   C.3       1 RES1   0.0000
    19 C17      -0.5682   -6.2000    4.6801   C.3       1 RES1   0.0000
    20 C18       0.3759   -5.0369    5.0233   C.3       1 RES1   0.0000
    21 C19       1.6779   -5.0490    4.2175   C.3       1 RES1   0.0000
    22 C20       1.5115   -4.7781    2.7250   C.3       1 RES1   0.0000
    23 C21       2.8561   -4.7057    2.0021   C.3       1 RES1   0.0000
    24 C22       3.6021   -6.0336    1.9684   C.3       1 RES1   0.0000
    25 C23      -1.7158   -2.6535    0.6070   C.2       1 RES1   0.0000
    26 O1       -0.9489   -1.8334    1.1457   O.2       1 RES1   0.0000
    27 C24      -1.5453   -2.9198   -0.9005   C.3       1 RES1   0.0000
    28 O2       -0.8985   -1.7764   -1.4554   O.3       1 RES1   0.0000
    29 C25      -1.3102   -1.3907   -2.7585   C.3       1 RES1   0.0000
    30 C26      -1.7213    0.0897   -2.7051   C.2       1 RES1   0.0000
    31 O3       -1.2998    0.7771   -1.7590   O.2       1 RES1   0.0000
    32 N2       -2.5110    0.6157   -3.6309   N.am      1 RES1   0.0000
    33 C27      -2.8875    2.0292   -3.5111   C.3       1 RES1   0.0000
    34 C28      -4.3951    2.2589   -3.3590   C.3       1 RES1   0.0000
    35 C29      -4.7927    3.7336   -3.2197   C.3       1 RES1   0.0000
    36 C30      -4.4645    4.4851   -1.9231   C.3       1 RES1   0.0000
    37 C31      -5.0644    3.9023   -0.6426   C.3       1 RES1   0.0000
    38 C32      -5.1893    4.9121    0.5053   C.3       1 RES1   0.0000
    39 C33      -3.8405    5.4550    0.9822   C.3       1 RES1   0.0000
    40 C34      -3.8619    5.9292    2.4312   C.3       1 RES1   0.0000
    41 C35      -2.8357   -0.0640   -4.8705   C.3       1 RES1   0.0000
    42 C36      -1.6421   -0.1165   -5.8282   C.3       1 RES1   0.0000
    43 C37      -1.9704   -0.8300   -7.1449   C.3       1 RES1   0.0000
    44 C38      -2.6250    0.0171   -8.2495   C.3       1 RES1   0.0000
    45 C39      -3.8529    0.7946   -7.7637   C.3       1 RES1   0.0000
    46 C40      -4.7449    1.2708   -8.9090   C.3       1 RES1   0.0000
    47 C41      -6.1296    1.6981   -8.4252   C.3       1 RES1   0.0000
    48 C42      -6.0856    2.9170   -7.5114   C.3       1 RES1   0.0000
    49 C43      -1.6248    0.8777   -9.0463   C.3       1 RES1   0.0000
    50 C44      -0.5585    1.7058   -8.3182   C.3       1 RES1   0.0000
    51 C45      -1.0303    2.9459   -7.5505   C.3       1 RES1   0.0000
    52 C46      -1.5687    4.0506   -8.4553   C.3       1 RES1   0.0000
    53 C47      -1.8396    5.3320   -7.6723   C.3       1 RES1   0.0000
    54 C48      -2.3164    6.4602   -8.5758   C.3       1 RES1   0.0000
    55 H1      -10.9716   -1.6890    0.5859   H         1 RES1   0.0000
    56 H2       -9.8813   -1.4794   -0.7826   H         1 RES1   0.0000
    57 H3       -9.2676   -1.3734    0.8675   H         1 RES1   0.0000
    58 H4      -10.4244   -3.8888   -0.4256   H         1 RES1   0.0000
    59 H5       -9.8233   -3.7850    1.2270   H         1 RES1   0.0000
    60 H6       -7.5639   -3.1398    0.3054   H         1 RES1   0.0000
    61 H7       -8.2201   -3.3786   -1.3197   H         1 RES1   0.0000
    62 H8       -8.8081   -5.7279   -0.6858   H         1 RES1   0.0000
    63 H9       -7.8896   -5.5406    0.7997   H         1 RES1   0.0000
    64 H10      -6.6149   -4.9375   -1.8917   H         1 RES1   0.0000
    65 H11      -6.8223   -6.5989   -1.3786   H         1 RES1   0.0000
    66 H12      -4.6534   -6.1086   -0.7999   H         1 RES1   0.0000
    67 H13      -5.5535   -6.1356    0.7108   H         1 RES1   0.0000
    68 H14      -5.4322   -3.6889    0.8644   H         1 RES1   0.0000
    69 H15      -4.7115   -3.5808   -0.7402   H         1 RES1   0.0000
    70 H16      -2.7786   -4.9360   -0.0245   H         1 RES1   0.0000
    71 H17      -3.4997   -5.1547    1.5562   H         1 RES1   0.0000
    72 H18      -4.1629   -3.0699    2.6992   H         1 RES1   0.0000
    73 H19      -2.9679   -1.7497    2.5865   H         1 RES1   0.0000
    74 H20      -2.4494   -2.8014    4.5886   H         1 RES1   0.0000
    75 H21      -1.2396   -3.3596    3.4390   H         1 RES1   0.0000
    76 H22      -3.6475   -5.1197    3.6804   H         1 RES1   0.0000
    77 H23      -2.7665   -4.9676    5.1759   H         1 RES1   0.0000
    78 H24      -1.2038   -5.6366    2.6830   H         1 RES1   0.0000
    79 H25      -3.2091   -7.0912    2.6329   H         1 RES1   0.0000
    80 H26      -2.9180   -7.5724    4.2983   H         1 RES1   0.0000
    81 H27      -2.2573   -9.3227    2.8033   H         1 RES1   0.0000
    82 H28      -0.8233   -8.7208    3.6027   H         1 RES1   0.0000
    83 H29      -0.2230   -7.4255    1.5630   H         1 RES1   0.0000
    84 H30      -1.7139   -7.9676    0.7871   H         1 RES1   0.0000
    85 H31       0.5476   -9.7902    1.7463   H         1 RES1   0.0000
    86 H32       0.2230   -9.3648    0.0666   H         1 RES1   0.0000
    87 H33      -0.9329  -10.3367    0.9702   H         1 RES1   0.0000
    88 H34       0.0516   -7.0331    4.3513   H         1 RES1   0.0000
    89 H35      -1.0760   -6.5185    5.5925   H         1 RES1   0.0000
    90 H36       0.6525   -5.1365    6.0757   H         1 RES1   0.0000
    91 H37      -0.1217   -4.0726    4.9246   H         1 RES1   0.0000
    92 H38       2.1481   -6.0239    4.3539   H         1 RES1   0.0000
    93 H39       2.3544   -4.2976    4.6357   H         1 RES1   0.0000
    94 H40       0.9724   -3.8333    2.5801   H         1 RES1   0.0000
    95 H41       0.9183   -5.5734    2.2722   H         1 RES1   0.0000
    96 H42       3.4843   -3.9430    2.4711   H         1 RES1   0.0000
    97 H43       2.6697   -4.4018    0.9707   H         1 RES1   0.0000
    98 H44       3.9189   -6.3365    2.9613   H         1 RES1   0.0000
    99 H45       4.4885   -5.9491    1.3431   H         1 RES1   0.0000
   100 H46       2.9637   -6.8106    1.5541   H         1 RES1   0.0000
   101 H47      -2.5079   -3.0864   -1.3952   H         1 RES1   0.0000
   102 H48      -0.8881   -3.7839   -1.0673   H         1 RES1   0.0000
   103 H49      -2.1064   -2.0433   -3.1255   H         1 RES1   0.0000
   104 H50      -0.4487   -1.4983   -3.4306   H         1 RES1   0.0000
   105 H51      -2.5168    2.5481   -4.3989   H         1 RES1   0.0000
   106 H52      -2.3622    2.4050   -2.6335   H         1 RES1   0.0000
   107 H53      -4.7700    1.7033   -2.5047   H         1 RES1   0.0000
   108 H54      -4.8978    1.8892   -4.2559   H         1 RES1   0.0000
   109 H55      -5.8726    3.7824   -3.3582   H         1 RES1   0.0000
   110 H56      -4.3419    4.2930   -4.0377   H         1 RES1   0.0000
   111 H57      -4.8589    5.4963   -2.0468   H         1 RES1   0.0000
   112 H58      -3.3821    4.5753   -1.8084   H         1 RES1   0.0000
   113 H59      -4.4390    3.0688   -0.3071   H         1 RES1   0.0000
   114 H60      -6.0651    3.5256   -0.8695   H         1 RES1   0.0000
   115 H61      -5.6939    4.4203    1.3402   H         1 RES1   0.0000
   116 H62      -5.8230    5.7401    0.1903   H         1 RES1   0.0000
   117 H63      -3.5264    6.2737    0.3346   H         1 RES1   0.0000
   118 H64      -3.0898    4.6662    0.8866   H         1 RES1   0.0000
   119 H65      -4.6040    6.7077    2.5773   H         1 RES1   0.0000
   120 H66      -2.8893    6.3247    2.7129   H         1 RES1   0.0000
   121 H67      -4.0980    5.1091    3.1077   H         1 RES1   0.0000
   122 H68      -3.6465    0.4947   -5.3272   H         1 RES1   0.0000
   123 H69      -3.1934   -1.0721   -4.6600   H         1 RES1   0.0000
   124 H70      -0.8177   -0.6429   -5.3426   H         1 RES1   0.0000
   125 H71      -1.3030    0.8933   -6.0342   H         1 RES1   0.0000
   126 H72      -2.6208   -1.6789   -6.9269   H         1 RES1   0.0000
   127 H73      -1.0461   -1.2448   -7.5493   H         1 RES1   0.0000
   128 H74      -3.0028   -0.7149   -8.9746   H         1 RES1   0.0000
   129 H75      -3.5536    1.6525   -7.1631   H         1 RES1   0.0000
   130 H76      -4.4526    0.1192   -7.1476   H         1 RES1   0.0000
   131 H77      -4.8584    0.4534   -9.6220   H         1 RES1   0.0000
   132 H78      -4.2830    2.1081   -9.4328   H         1 RES1   0.0000
   133 H79      -6.6072    0.8643   -7.9048   H         1 RES1   0.0000
   134 H80      -6.7406    1.9309   -9.2970   H         1 RES1   0.0000
   135 H81      -5.5885    2.6828   -6.5705   H         1 RES1   0.0000
   136 H82      -7.0916    3.2599   -7.2831   H         1 RES1   0.0000
   137 H83      -5.5489    3.7282   -7.9985   H         1 RES1   0.0000
   138 H84      -2.2019    1.5381   -9.6911   H         1 RES1   0.0000
   139 H85      -1.0773    0.1977   -9.7031   H         1 RES1   0.0000
   140 H86       0.1403    2.0540   -9.0832   H         1 RES1   0.0000
   141 H87       0.0238    1.0565   -7.6579   H         1 RES1   0.0000
   142 H88      -0.1655    3.3349   -7.0013   H         1 RES1   0.0000
   143 H89      -1.7960    2.6913   -6.8124   H         1 RES1   0.0000
   144 H90      -2.4906    3.7211   -8.9350   H         1 RES1   0.0000
   145 H91      -0.8386    4.2557   -9.2387   H         1 RES1   0.0000
   146 H92      -0.9229    5.6439   -7.1627   H         1 RES1   0.0000
   147 H93      -2.5975    5.1336   -6.9086   H         1 RES1   0.0000
   148 H94      -1.5798    6.6694   -9.3469   H         1 RES1   0.0000
   149 H95      -2.4732    7.3699   -8.0024   H         1 RES1   0.0000
   150 H96      -3.2529    6.1976   -9.0609   H         1 RES1   0.0000
   151 C49      -5.9514    6.0027   -5.7206   C.3       1 RES1   0.0000
   152 C50      -4.9335    7.1356   -5.6977   C.3       1 RES1   0.0000
   153 C51      -3.8315    6.8868   -4.6716   C.3       1 RES1   0.0000
   154 C52      -2.8690    8.0626   -4.5439   C.3       1 RES1   0.0000
   155 C53      -1.8718    7.9180   -3.3845   C.3       1 RES1   0.0000
   156 C54      -0.5040    7.3506   -3.7773   C.3       1 RES1   0.0000
   157 C55      -0.3646    5.8246   -3.8758   C.3       1 RES1   0.0000
   158 C56      -0.4392    5.1367   -2.5090   C.3       1 RES1   0.0000
   159 N3        0.2264    3.8292   -2.3879   N.am      1 RES1   0.0000
   160 C57       0.7866    3.1320   -3.5535   C.3       1 RES1   0.0000
   161 C58       2.2811    2.7798   -3.5106   C.3       1 RES1   0.0000
   162 C59       3.2727    3.8892   -3.8942   C.3       1 RES1   0.0000
   163 C60       4.2248    4.3854   -2.7923   C.3       1 RES1   0.0000
   164 C61       4.8982    5.6574   -3.3543   C.3       1 RES1   0.0000
   165 C62       6.0237    6.2935   -2.5382   C.3       1 RES1   0.0000
   166 C63       5.6122    6.7206   -1.1337   C.3       1 RES1   0.0000
   167 C64       6.7595    7.4088   -0.4061   C.3       1 RES1   0.0000
   168 C65       5.2931    3.3582   -2.3884   C.3       1 RES1   0.0000
   169 C66       4.8105    2.1011   -1.6577   C.3       1 RES1   0.0000
   170 C67       5.9409    1.4298   -0.8685   C.3       1 RES1   0.0000
   171 C68       5.3755    0.3028   -0.0056   C.3       1 RES1   0.0000
   172 C69       6.4241   -0.6592    0.5535   C.3       1 RES1   0.0000
   173 C70       7.3759   -0.0018    1.5437   C.3       1 RES1   0.0000
   174 C71       0.1659    3.1057   -1.2653   C.2       1 RES1   0.0000
   175 O4        0.8571    2.0866   -1.0929   O.2       1 RES1   0.0000
   176 C72      -0.8769    3.4292   -0.1728   C.3       1 RES1   0.0000
   177 O5       -0.8747    2.2873    0.6836   O.3       1 RES1   0.0000
   178 C73      -1.9156    2.1748    1.6498   C.3       1 RES1   0.0000
   179 C74      -2.8599    1.0315    1.2118   C.2       1 RES1   0.0000
   180 O6       -2.3818    0.1760    0.4439   O.2       1 RES1   0.0000
   181 N4       -4.1207    0.9759    1.6250   N.am      1 RES1   0.0000
   182 C75      -5.0214   -0.0240    1.0310   C.3       1 RES1   0.0000
   183 C76      -5.4784    0.4974   -0.3365   C.3       1 RES1   0.0000
   184 C77      -6.6995   -0.1567   -0.9952   C.3       1 RES1   0.0000
   185 C78      -6.4315   -1.3456   -1.9192   C.3       1 RES1   0.0000
   186 C79      -5.6074   -1.0377   -3.1681   C.3       1 RES1   0.0000
   187 C80      -5.6610   -2.1716   -4.1989   C.3       1 RES1   0.0000
   188 C81      -4.8607   -3.4141   -3.8149   C.3       1 RES1   0.0000
   189 C82      -4.9247   -4.4894   -4.8931   C.3       1 RES1   0.0000
   190 C83      -4.7174    1.9015    2.5759   C.3       1 RES1   0.0000
   191 C84      -4.6038    1.3973    4.0207   C.3       1 RES1   0.0000
   192 C85      -5.2807    2.3142    5.0532   C.3       1 RES1   0.0000
   193 C86      -6.7975    2.1521    5.2820   C.3       1 RES1   0.0000
   194 C87      -7.5905    2.1341    3.9713   C.3       1 RES1   0.0000
   195 C88      -9.0889    2.3752    4.1454   C.3       1 RES1   0.0000
   196 C89      -9.7678    2.6786    2.8097   C.3       1 RES1   0.0000
   197 C90      -9.7136    1.5060    1.8361   C.3       1 RES1   0.0000
   198 C91      -7.1696    1.0136    6.2525   C.3       1 RES1   0.0000
   199 C92      -6.5030   -0.3593    6.1135   C.3       1 RES1   0.0000
   200 C93      -6.9346   -1.2279    4.9279   C.3       1 RES1   0.0000
   201 C94      -8.3913   -1.6781    5.0044   C.3       1 RES1   0.0000
   202 C95      -8.7000   -2.7687    3.9824   C.3       1 RES1   0.0000
   203 C96     -10.1405   -3.2489    4.0950   C.3       1 RES1   0.0000
   204 H97      -6.6958    6.1746   -6.4916   H         1 RES1   0.0000
   205 H98      -6.4634    5.9219   -4.7642   H         1 RES1   0.0000
   206 H99      -5.4676    5.0525   -5.9298   H         1 RES1   0.0000
   207 H100     -5.4426    8.0682   -5.4523   H         1 RES1   0.0000
   208 H101     -4.4930    7.2469   -6.6882   H         1 RES1   0.0000
   209 H102     -3.2770    5.9836   -4.9414   H         1 RES1   0.0000
   210 H103     -4.2991    6.7236   -3.6987   H         1 RES1   0.0000
   211 H104     -3.4627    8.9623   -4.3787   H         1 RES1   0.0000
   212 H105     -2.3230    8.2086   -5.4770   H         1 RES1   0.0000
   213 H106     -2.3156    7.3236   -2.5830   H         1 RES1   0.0000
   214 H107     -1.6910    8.9119   -2.9718   H         1 RES1   0.0000
   215 H108      0.2426    7.7093   -3.0660   H         1 RES1   0.0000
   216 H109     -0.2245    7.7730   -4.7437   H         1 RES1   0.0000
   217 H110      0.6174    5.6554   -4.3129   H         1 RES1   0.0000
   218 H111     -1.1249    5.4257   -4.5486   H         1 RES1   0.0000
   219 H112     -1.4950    5.0271   -2.2474   H         1 RES1   0.0000
   220 H113      0.0199    5.8031   -1.7767   H         1 RES1   0.0000
   221 H114      0.5433    3.6911   -4.4543   H         1 RES1   0.0000
   222 H115      0.2485    2.1783   -3.6013   H         1 RES1   0.0000
   223 H116      2.3970    1.9533   -4.2155   H         1 RES1   0.0000
   224 H117      2.4987    2.3857   -2.5231   H         1 RES1   0.0000
   225 H118      2.7250    4.7551   -4.2719   H         1 RES1   0.0000
   226 H119      3.8949    3.5328   -4.7169   H         1 RES1   0.0000
   227 H120      3.6352    4.6432   -1.9051   H         1 RES1   0.0000
   228 H121      4.1193    6.4086   -3.5016   H         1 RES1   0.0000
   229 H122      5.3001    5.4142   -4.3409   H         1 RES1   0.0000
   230 H123      6.3643    7.1726   -3.0867   H         1 RES1   0.0000
   231 H124      6.8742    5.6148   -2.4739   H         1 RES1   0.0000
   232 H125      5.3040    5.8364   -0.5698   H         1 RES1   0.0000
   233 H126      4.7580    7.3997   -1.1945   H         1 RES1   0.0000
   234 H127      7.6208    6.7481   -0.3459   H         1 RES1   0.0000
   235 H128      6.4698    7.6848    0.6042   H         1 RES1   0.0000
   236 H129      7.0596    8.3101   -0.9332   H         1 RES1   0.0000
   237 H130      5.9780    3.8674   -1.7109   H         1 RES1   0.0000
   238 H131      5.8608    3.0679   -3.2730   H         1 RES1   0.0000
   239 H132      4.4018    1.3731   -2.3656   H         1 RES1   0.0000
   240 H133      4.0139    2.3634   -0.9551   H         1 RES1   0.0000
   241 H134      6.4393    2.1656   -0.2355   H         1 RES1   0.0000
   242 H135      6.6842    1.0335   -1.5623   H         1 RES1   0.0000
   243 H136      4.6653   -0.2515   -0.6252   H         1 RES1   0.0000
   244 H137      4.8092    0.7454    0.8177   H         1 RES1   0.0000
   245 H138      7.0002   -1.0885   -0.2665   H         1 RES1   0.0000
   246 H139      5.9192   -1.4931    1.0538   H         1 RES1   0.0000
   247 H140      7.9883    0.7482    1.0536   H         1 RES1   0.0000
   248 H141      8.0376   -0.7454    1.9793   H         1 RES1   0.0000
   249 H142      6.8243    0.4770    2.3496   H         1 RES1   0.0000
   250 H143     -0.6297    4.3298    0.4078   H         1 RES1   0.0000
   251 H144     -1.8543    3.5670   -0.6568   H         1 RES1   0.0000
   252 H145     -2.4313    3.1268    1.7872   H         1 RES1   0.0000
   253 H146     -1.4282    1.9006    2.5977   H         1 RES1   0.0000
   254 H147     -5.8754   -0.1534    1.6956   H         1 RES1   0.0000
   255 H148     -4.4916   -0.9731    0.9428   H         1 RES1   0.0000
   256 H149     -4.6207    0.4408   -1.0071   H         1 RES1   0.0000
   257 H150     -5.7311    1.5455   -0.1871   H         1 RES1   0.0000
   258 H151     -7.2052    0.6166   -1.5775   H         1 RES1   0.0000
   259 H152     -7.3997   -0.4816   -0.2254   H         1 RES1   0.0000
   260 H153     -7.4031   -1.7069   -2.2581   H         1 RES1   0.0000
   261 H154     -5.9574   -2.1396   -1.3458   H         1 RES1   0.0000
   262 H155     -4.5713   -0.8400   -2.8817   H         1 RES1   0.0000
   263 H156     -6.0089   -0.1380   -3.6384   H         1 RES1   0.0000
   264 H157     -5.2961   -1.8039   -5.1602   H         1 RES1   0.0000
   265 H158     -6.7024   -2.4584   -4.3454   H         1 RES1   0.0000
   266 H159     -5.2517   -3.8245   -2.8838   H         1 RES1   0.0000
   267 H160     -3.8105   -3.1421   -3.6425   H         1 RES1   0.0000
   268 H161     -5.9557   -4.7641   -5.0948   H         1 RES1   0.0000
   269 H162     -4.4003   -5.3861   -4.5722   H         1 RES1   0.0000
   270 H163     -4.4773   -4.1402   -5.8214   H         1 RES1   0.0000
   271 H164     -5.7647    2.0244    2.3067   H         1 RES1   0.0000
   272 H165     -4.2305    2.8714    2.4948   H         1 RES1   0.0000
   273 H166     -3.5409    1.3328    4.2664   H         1 RES1   0.0000
   274 H167     -5.0213    0.3974    4.0932   H         1 RES1   0.0000
   275 H168     -5.0922    3.3504    4.7658   H         1 RES1   0.0000
   276 H169     -4.7847    2.1680    6.0151   H         1 RES1   0.0000
   277 H170     -7.0991    3.0705    5.8020   H         1 RES1   0.0000
   278 H171     -7.4433    1.1882    3.4530   H         1 RES1   0.0000
   279 H172     -7.2096    2.9489    3.3487   H         1 RES1   0.0000
   280 H173     -9.2315    3.2240    4.8157   H         1 RES1   0.0000
   281 H174     -9.5734    1.5080    4.5949   H         1 RES1   0.0000
   282 H175     -9.2973    3.5545    2.3561   H         1 RES1   0.0000
   283 H176    -10.8103    2.9325    2.9996   H         1 RES1   0.0000
   284 H177     -8.6904    1.3015    1.5238   H         1 RES1   0.0000
   285 H178    -10.2977    1.7218    0.9449   H         1 RES1   0.0000
   286 H179    -10.1202    0.6127    2.3043   H         1 RES1   0.0000
   287 H180     -8.2505    0.8881    6.2144   H         1 RES1   0.0000
   288 H181     -6.9316    1.3643    7.2596   H         1 RES1   0.0000
   289 H182     -6.7422   -0.9176    7.0221   H         1 RES1   0.0000
   290 H183     -5.4164   -0.2393    6.1134   H         1 RES1   0.0000
   291 H184     -6.2935   -2.1159    4.9273   H         1 RES1   0.0000
   292 H185     -6.7711   -0.7090    3.9796   H         1 RES1   0.0000
   293 H186     -9.0535   -0.8283    4.8355   H         1 RES1   0.0000
   294 H187     -8.5919   -2.0638    6.0047   H         1 RES1   0.0000
   295 H188     -8.0258   -3.6137    4.1474   H         1 RES1   0.0000
   296 H189     -8.5148   -2.3893    2.9731   H         1 RES1   0.0000
   297 H190    -10.3440   -3.6068    5.1008   H         1 RES1   0.0000
   298 H191    -10.3310   -4.0666    3.4053   H         1 RES1   0.0000
   299 H192    -10.8360   -2.4445    3.8695   H         1 RES1   0.0000
   300 C97       7.6067    2.7782   -5.5372   C.3       1 RES1   0.0000
   301 C98       8.1978    1.3743   -5.5639   C.3       1 RES1   0.0000
   302 C99       7.7039    0.5249   -4.3948   C.3       1 RES1   0.0000
   303 C100      8.3187   -0.8743   -4.4231   C.3       1 RES1   0.0000
   304 C101      8.0817   -1.7048   -3.1564   C.3       1 RES1   0.0000
   305 C102      6.8138   -2.5623   -3.1697   C.3       1 RES1   0.0000
   306 C103      5.5279   -1.7409   -3.2604   C.3       1 RES1   0.0000
   307 C104      4.3075   -2.5750   -2.8554   C.3       1 RES1   0.0000
   308 N5        3.0877   -1.7810   -2.8506   N.am      1 RES1   0.0000
   309 C105      2.6866   -1.2251   -4.1424   C.3       1 RES1   0.0000
   310 C106      1.8818   -2.1956   -5.0199   C.3       1 RES1   0.0000
   311 C107      2.6835   -3.3329   -5.6883   C.3       1 RES1   0.0000
   312 C108      2.4410   -4.7385   -5.0926   C.3       1 RES1   0.0000
   313 C109      3.7329   -5.5796   -5.1365   C.3       1 RES1   0.0000
   314 C110      3.7122   -6.8375   -4.2648   C.3       1 RES1   0.0000
   315 C111      3.7077   -6.5658   -2.7614   C.3       1 RES1   0.0000
   316 C112      3.8001   -7.8714   -1.9810   C.3       1 RES1   0.0000
   317 C113      1.3453   -5.4854   -5.8702   C.3       1 RES1   0.0000
   318 C114     -0.0894   -4.9487   -5.7532   C.3       1 RES1   0.0000
   319 C115     -0.9321   -5.6675   -4.6956   C.3       1 RES1   0.0000
   320 C116     -0.3983   -5.5499   -3.2699   C.3       1 RES1   0.0000
   321 C117     -1.3904   -6.0866   -2.2358   C.3       1 RES1   0.0000
   322 C118     -1.6569   -7.5802   -2.3718   C.3       1 RES1   0.0000
   323 C119      2.3968   -1.4282   -1.7709   C.2       1 RES1   0.0000
   324 O7        1.4499   -0.6161   -1.8187   O.2       1 RES1   0.0000
   325 C120      2.6893   -2.0919   -0.4079   C.3       1 RES1   0.0000
   326 O8        1.9317   -1.4279    0.6039   O.3       1 RES1   0.0000
   327 C121      2.6098   -1.0400    1.8071   C.3       1 RES1   0.0000
   328 C122      2.2943    0.4459    2.0567   C.2       1 RES1   0.0000
   329 O9        1.2547    0.8918    1.5324   O.2       1 RES1   0.0000
   330 N6        3.0924    1.2223    2.7753   N.am      1 RES1   0.0000
   331 C123      2.7827    2.6570    2.8182   C.3       1 RES1   0.0000
   332 C124      3.3749    3.3955    1.6100   C.3       1 RES1   0.0000
   333 C125      3.6195    4.8857    1.8811   C.3       1 RES1   0.0000
   334 C126      2.3867    5.7911    1.7927   C.3       1 RES1   0.0000
   335 C127      1.9657    6.0834    0.3502   C.3       1 RES1   0.0000
   336 C128      1.0581    7.3111    0.2169   C.3       1 RES1   0.0000
   337 C129     -0.3434    7.1573    0.8042   C.3       1 RES1   0.0000
   338 C130     -1.2155    8.3701    0.4992   C.3       1 RES1   0.0000
   339 C131      4.1007    0.7601    3.7159   C.3       1 RES1   0.0000
   340 C132      3.5213    0.6603    5.1387   C.3       1 RES1   0.0000
   341 C133      4.6146    0.6842    6.2201   C.3       1 RES1   0.0000
   342 C134      4.9179    2.0504    6.8705   C.3       1 RES1   0.0000
   343 C135      5.0862    3.1824    5.8496   C.3       1 RES1   0.0000
   344 C136      5.8630    4.3788    6.3959   C.3       1 RES1   0.0000
   345 C137      5.9633    5.5149    5.3767   C.3       1 RES1   0.0000
   346 C138      4.6617    6.2968    5.2352   C.3       1 RES1   0.0000
   347 C139      3.9671    2.4058    8.0314   C.3       1 RES1   0.0000
   348 C140      2.4469    2.3150    7.8478   C.3       1 RES1   0.0000
   349 C141      1.7661    3.3712    6.9706   C.3       1 RES1   0.0000
   350 C142      1.9114    4.8040    7.4774   C.3       1 RES1   0.0000
   351 C143      1.0934    5.7707    6.6238   C.3       1 RES1   0.0000
   352 C144      1.2010    7.2073    7.1160   C.3       1 RES1   0.0000
   353 H193      7.9714    3.3603   -6.3783   H         1 RES1   0.0000
   354 H194      7.8872    3.2938   -4.6208   H         1 RES1   0.0000
   355 H195      6.5194    2.7428   -5.5966   H         1 RES1   0.0000
   356 H196      9.2855    1.4437   -5.5177   H         1 RES1   0.0000
   357 H197      7.9368    0.8864   -6.5053   H         1 RES1   0.0000
   358 H198      6.6128    0.4780   -4.4266   H         1 RES1   0.0000
   359 H199      7.9910    1.0156   -3.4614   H         1 RES1   0.0000
   360 H200      9.3956   -0.7522   -4.5478   H         1 RES1   0.0000
   361 H201      7.9580   -1.4265   -5.2928   H         1 RES1   0.0000
   362 H202      8.0710   -1.0438   -2.2863   H         1 RES1   0.0000
   363 H203      8.9244   -2.3852   -3.0252   H         1 RES1   0.0000
   364 H204      6.7987   -3.1634   -2.2568   H         1 RES1   0.0000
   365 H205      6.8648   -3.2512   -4.0153   H         1 RES1   0.0000
   366 H206      5.4334   -1.3793   -4.2839   H         1 RES1   0.0000
   367 H207      5.5938   -0.8757   -2.6021   H         1 RES1   0.0000
   368 H208      4.4742   -2.9901   -1.8645   H         1 RES1   0.0000
   369 H209      4.1910   -3.4095   -3.5462   H         1 RES1   0.0000
   370 H210      3.5734   -0.9021   -4.6850   H         1 RES1   0.0000
   371 H211      2.0770   -0.3457   -3.9216   H         1 RES1   0.0000
   372 H212      1.4188   -1.5927   -5.8053   H         1 RES1   0.0000
   373 H213      1.0804   -2.6103   -4.4055   H         1 RES1   0.0000
   374 H214      3.7464   -3.0937   -5.6404   H         1 RES1   0.0000
   375 H215      2.4371   -3.3662   -6.7515   H         1 RES1   0.0000
   376 H216      2.1376   -4.6284   -4.0462   H         1 RES1   0.0000
   377 H217      4.5847   -4.9715   -4.8205   H         1 RES1   0.0000
   378 H218      3.9264   -5.8727   -6.1705   H         1 RES1   0.0000
   379 H219      4.6055   -7.4176   -4.4977   H         1 RES1   0.0000
   380 H220      2.8538   -7.4601   -4.5179   H         1 RES1   0.0000
   381 H221      2.7945   -6.0362   -2.4732   H         1 RES1   0.0000
   382 H222      4.5568   -5.9255   -2.5071   H         1 RES1   0.0000
   383 H223      2.9661   -8.5236   -2.2278   H         1 RES1   0.0000
   384 H224      3.7895   -7.6894   -0.9101   H         1 RES1   0.0000
   385 H225      4.7193   -8.3948   -2.2275   H         1 RES1   0.0000
   386 H226      1.3421   -6.5281   -5.5529   H         1 RES1   0.0000
   387 H227      1.6387   -5.4794   -6.9212   H         1 RES1   0.0000
   388 H228     -0.5864   -5.1000   -6.7143   H         1 RES1   0.0000
   389 H229     -0.0912   -3.8728   -5.5694   H         1 RES1   0.0000
   390 H230     -0.9912   -6.7210   -4.9697   H         1 RES1   0.0000
   391 H231     -1.9463   -5.2592   -4.7291   H         1 RES1   0.0000
   392 H232     -0.1823   -4.4939   -3.0605   H         1 RES1   0.0000
   393 H233      0.5346   -6.1067   -3.1820   H         1 RES1   0.0000
   394 H234     -2.3364   -5.5437   -2.3296   H         1 RES1   0.0000
   395 H235     -0.9887   -5.9069   -1.2328   H         1 RES1   0.0000
   396 H236     -2.1551   -7.8102   -3.3084   H         1 RES1   0.0000
   397 H237     -2.2954   -7.9222   -1.5605   H         1 RES1   0.0000
   398 H238     -0.7227   -8.1334   -2.3269   H         1 RES1   0.0000
   399 H239      3.7520   -2.0893   -0.1571   H         1 RES1   0.0000
   400 H240      2.3465   -3.1386   -0.4708   H         1 RES1   0.0000
   401 H241      3.6826   -1.2331    1.7342   H         1 RES1   0.0000
   402 H242      2.1973   -1.6233    2.6437   H         1 RES1   0.0000
   403 H243      3.2172    3.0713    3.7266   H         1 RES1   0.0000
   404 H244      1.6973    2.7709    2.8548   H         1 RES1   0.0000
   405 H245      2.7257    3.2594    0.7409   H         1 RES1   0.0000
   406 H246      4.3438    2.9433    1.3885   H         1 RES1   0.0000
   407 H247      4.3558    5.2481    1.1612   H         1 RES1   0.0000
   408 H248      4.0737    4.9991    2.8673   H         1 RES1   0.0000
   409 H249      2.6411    6.7424    2.2629   H         1 RES1   0.0000
   410 H250      1.5592    5.3561    2.3586   H         1 RES1   0.0000
   411 H251      1.4912    5.1973   -0.0851   H         1 RES1   0.0000
   412 H252      2.8683    6.2845   -0.2310   H         1 RES1   0.0000
   413 H253      0.9639    7.5588   -0.8429   H         1 RES1   0.0000
   414 H254      1.5479    8.1612    0.6935   H         1 RES1   0.0000
   415 H255     -0.2754    7.0108    1.8833   H         1 RES1   0.0000
   416 H256     -0.8290    6.2758    0.3743   H         1 RES1   0.0000
   417 H257     -1.3119    8.5059   -0.5753   H         1 RES1   0.0000
   418 H258     -0.7828    9.2732    0.9180   H         1 RES1   0.0000
   419 H259     -2.2103    8.2421    0.9182   H         1 RES1   0.0000
   420 H260      4.9281    1.4717    3.7123   H         1 RES1   0.0000
   421 H261      4.4838   -0.2158    3.4215   H         1 RES1   0.0000
   422 H262      2.9465   -0.2656    5.2122   H         1 RES1   0.0000
   423 H263      2.8310    1.4804    5.3128   H         1 RES1   0.0000
   424 H264      5.5383    0.3028    5.7825   H         1 RES1   0.0000
   425 H265      4.3405   -0.0058    7.0192   H         1 RES1   0.0000
   426 H266      5.8984    1.9250    7.3470   H         1 RES1   0.0000
   427 H267      4.1150    3.5224    5.4956   H         1 RES1   0.0000
   428 H268      5.6544    2.7991    4.9983   H         1 RES1   0.0000
   429 H269      6.8659    4.0415    6.6604   H         1 RES1   0.0000
   430 H270      5.3950    4.7637    7.3015   H         1 RES1   0.0000
   431 H271      6.2659    5.1089    4.4073   H         1 RES1   0.0000
   432 H272      6.7444    6.2036    5.6983   H         1 RES1   0.0000
   433 H273      3.8284    5.6457    4.9789   H         1 RES1   0.0000
   434 H274      4.7526    7.0587    4.4638   H         1 RES1   0.0000
   435 H275      4.4245    6.7869    6.1754   H         1 RES1   0.0000
   436 H276      4.2154    3.4100    8.3721   H         1 RES1   0.0000
   437 H277      4.2098    1.7304    8.8558   H         1 RES1   0.0000
   438 H278      2.0109    2.4003    8.8470   H         1 RES1   0.0000
   439 H279      2.1845    1.3179    7.4842   H         1 RES1   0.0000
   440 H280      0.7013    3.1192    6.9350   H         1 RES1   0.0000
   441 H281      2.1344    3.3236    5.9422   H         1 RES1   0.0000
   442 H282      2.9590    5.1027    7.4533   H         1 RES1   0.0000
   443 H283      1.5720    4.8581    8.5121   H         1 RES1   0.0000
   444 H284      0.0443    5.4631    6.6406   H         1 RES1   0.0000
   445 H285      1.4369    5.7155    5.5853   H         1 RES1   0.0000
   446 H286      0.8409    7.2905    8.1378   H         1 RES1   0.0000
   447 H287      0.6074    7.8705    6.4922   H         1 RES1   0.0000
   448 H288      2.2319    7.5497    7.0892   H         1 RES1   0.0000
@<TRIPOS>BOND
     1     1    26    1
     2     1    28    1
     3     1    31    1
     4     1   175    1
     5     1   177    1
     6     1   180    1
     7     1   324    1
     8     1   326    1
     9     1   329    1
    10     2     3    1
    11     2    55    1
    12     2    56    1
    13     2    57    1
    14     3     4    1
    15     3    58    1
    16     3    59    1
    17     4     5    1
    18     4    60    1
    19     4    61    1
    20     5     6    1
    21     5    62    1
    22     5    63    1
    23     6     7    1
    24     6    64    1
    25     6    65    1
    26     7     8    1
    27     7    66    1
    28     7    67    1
    29     8     9    1
    30     8    68    1
    31     8    69    1
    32     9    10    1
    33     9    70    1
    34     9    71    1
    35    10    11    1
    36    10    25    1
    37    11    12    1
    38    11    72    1
    39    11    73    1
    40    12    13    1
    41    12    74    1
    42    12    75    1
    43    13    14    1
    44    13    76    1
    45    13    77    1
    46    14    15    1
    47    14    19    1
    48    14    78    1
    49    15    16    1
    50    15    79    1
    51    15    80    1
    52    16    17    1
    53    16    81    1
    54    16    82    1
    55    17    18    1
    56    17    83    1
    57    17    84    1
    58    18    85    1
    59    18    86    1
    60    18    87    1
    61    19    20    1
    62    19    88    1
    63    19    89    1
    64    20    21    1
    65    20    90    1
    66    20    91    1
    67    21    22    1
    68    21    92    1
    69    21    93    1
    70    22    23    1
    71    22    94    1
    72    22    95    1
    73    23    24    1
    74    23    96    1
    75    23    97    1
    76    24    98    1
    77    24    99    1
    78    24   100    1
    79    25    26    2
    80    25    27    1
    81    27    28    1
    82    27   101    1
    83    27   102    1
    84    28    29    1
    85    29    30    1
    86    29   103    1
    87    29   104    1
    88    30    31    2
    89    30    32    1
    90    32    33    1
    91    32    41    1
    92    33    34    1
    93    33   105    1
    94    33   106    1
    95    34    35    1
    96    34   107    1
    97    34   108    1
    98    35    36    1
    99    35   109    1
   100    35   110    1
   101    36    37    1
   102    36   111    1
   103    36   112    1
   104    37    38    1
   105    37   113    1
   106    37   114    1
   107    38    39    1
   108    38   115    1
   109    38   116    1
   110    39    40    1
   111    39   117    1
   112    39   118    1
   113    40   119    1
   114    40   120    1
   115    40   121    1
   116    41    42    1
   117    41   122    1
   118    41   123    1
   119    42    43    1
   120    42   124    1
   121    42   125    1
   122    43    44    1
   123    43   126    1
   124    43   127    1
   125    44    45    1
   126    44    49    1
   127    44   128    1
   128    45    46    1
   129    45   129    1
   130    45   130    1
   131    46    47    1
   132    46   131    1
   133    46   132    1
   134    47    48    1
   135    47   133    1
   136    47   134    1
   137    48   135    1
   138    48   136    1
   139    48   137    1
   140    49    50    1
   141    49   138    1
   142    49   139    1
   143    50    51    1
   144    50   140    1
   145    50   141    1
   146    51    52    1
   147    51   142    1
   148    51   143    1
   149    52    53    1
   150    52   144    1
   151    52   145    1
   152    53    54    1
   153    53   146    1
   154    53   147    1
   155    54   148    1
   156    54   149    1
   157    54   150    1
   158   151   152    1
   159   151   204    1
   160   151   205    1
   161   151   206    1
   162   152   153    1
   163   152   207    1
   164   152   208    1
   165   153   154    1
   166   153   209    1
   167   153   210    1
   168   154   155    1
   169   154   211    1
   170   154   212    1
   171   155   156    1
   172   155   213    1
   173   155   214    1
   174   156   157    1
   175   156   215    1
   176   156   216    1
   177   157   158    1
   178   157   217    1
   179   157   218    1
   180   158   159    1
   181   158   219    1
   182   158   220    1
   183   159   160    1
   184   159   174    1
   185   160   161    1
   186   160   221    1
   187   160   222    1
   188   161   162    1
   189   161   223    1
   190   161   224    1
   191   162   163    1
   192   162   225    1
   193   162   226    1
   194   163   164    1
   195   163   168    1
   196   163   227    1
   197   164   165    1
   198   164   228    1
   199   164   229    1
   200   165   166    1
   201   165   230    1
   202   165   231    1
   203   166   167    1
   204   166   232    1
   205   166   233    1
   206   167   234    1
   207   167   235    1
   208   167   236    1
   209   168   169    1
   210   168   237    1
   211   168   238    1
   212   169   170    1
   213   169   239    1
   214   169   240    1
   215   170   171    1
   216   170   241    1
   217   170   242    1
   218   171   172    1
   219   171   243    1
   220   171   244    1
   221   172   173    1
   222   172   245    1
   223   172   246    1
   224   173   247    1
   225   173   248    1
   226   173   249    1
   227   174   175    2
   228   174   176    1
   229   176   177    1
   230   176   250    1
   231   176   251    1
   232   177   178    1
   233   178   179    1
   234   178   252    1
   235   178   253    1
   236   179   180    2
   237   179   181    1
   238   181   182    1
   239   181   190    1
   240   182   183    1
   241   182   254    1
   242   182   255    1
   243   183   184    1
   244   183   256    1
   245   183   257    1
   246   184   185    1
   247   184   258    1
   248   184   259    1
   249   185   186    1
   250   185   260    1
   251   185   261    1
   252   186   187    1
   253   186   262    1
   254   186   263    1
   255   187   188    1
   256   187   264    1
   257   187   265    1
   258   188   189    1
   259   188   266    1
   260   188   267    1
   261   189   268    1
   262   189   269    1
   263   189   270    1
   264   190   191    1
   265   190   271    1
   266   190   272    1
   267   191   192    1
   268   191   273    1
   269   191   274    1
   270   192   193    1
   271   192   275    1
   272   192   276    1
   273   193   194    1
   274   193   198    1
   275   193   277    1
   276   194   195    1
   277   194   278    1
   278   194   279    1
   279   195   196    1
   280   195   280    1
   281   195   281    1
   282   196   197    1
   283   196   282    1
   284   196   283    1
   285   197   284    1
   286   197   285    1
   287   197   286    1
   288   198   199    1
   289   198   287    1
   290   198   288    1
   291   199   200    1
   292   199   289    1
   293   199   290    1
   294   200   201    1
   295   200   291    1
   296   200   292    1
   297   201   202    1
   298   201   293    1
   299   201   294    1
   300   202   203    1
   301   202   295    1
   302   202   296    1
   303   203   297    1
   304   203   298    1
   305   203   299    1
   306   300   301    1
   307   300   353    1
   308   300   354    1
   309   300   355    1
   310   301   302    1
   311   301   356    1
   312   301   357    1
   313   302   303    1
   314   302   358    1
   315   302   359    1
   316   303   304    1
   317   303   360    1
   318   303   361    1
   319   304   305    1
   320   304   362    1
   321   304   363    1
   322   305   306    1
   323   305   364    1
   324   305   365    1
   325   306   307    1
   326   306   366    1
   327   306   367    1
   328   307   308    1
   329   307   368    1
   330   307   369    1
   331   308   309    1
   332   308   323    1
   333   309   310    1
   334   309   370    1
   335   309   371    1
   336   310   311    1
   337   310   372    1
   338   310   373    1
   339   311   312    1
   340   311   374    1
   341   311   375    1
   342   312   313    1
   343   312   317    1
   344   312   376    1
   345   313   314    1
   346   313   377    1
   347   313   378    1
   348   314   315    1
   349   314   379    1
   350   314   380    1
   351   315   316    1
   352   315   381    1
   353   315   382    1
   354   316   383    1
   355   316   384    1
   356   316   385    1
   357   317   318    1
   358   317   386    1
   359   317   387    1
   360   318   319    1
   361   318   388    1
   362   318   389    1
   363   319   320    1
   364   319   390    1
   365   319   391    1
   366   320   321    1
   367   320   392    1
   368   320   393    1
   369   321   322    1
   370   321   394    1
   371   321   395    1
   372   322   396    1
   373   322   397    1
   374   322   398    1
   375   323   324    2
   376   323   325    1
   377   325   326    1
   378   325   399    1
   379   325   400    1
   380   326   327    1
   381   327   328    1
   382   327   401    1
   383   327   402    1
   384   328   329    2
   385   328   330    1
   386   330   331    1
   387   330   339    1
   388   331   332    1
   389   331   403    1
   390   331   404    1
   391   332   333    1
   392   332   405    1
   393   332   406    1
   394   333   334    1
   395   333   407    1
   396   333   408    1
   397   334   335    1
   398   334   409    1
   399   334   410    1
   400   335   336    1
   401   335   411    1
   402   335   412    1
   403   336   337    1
   404   336   413    1
   405   336   414    1
   406   337   338    1
   407   337   415    1
   408   337   416    1
   409   338   417    1
   410   338   418    1
   411   338   419    1
   412   339   340    1
   413   339   420    1
   414   339   421    1
   415   340   341    1
   416   340   422    1
   417   340   423    1
   418   341   342    1
   419   341   424    1
   420   341   425    1
   421   342   343    1
   422   342   347    1
   423   342   426    1
   424   343   344    1
   425   343   427    1
   426   343   428    1
   427   344   345    1
   428   344   429    1
   429   344   430    1
   430   345   346    1
   431   345   431    1
   432   345   432    1
   433   346   433    1
   434   346   434    1
   435   346   435    1
   436   347   348    1
   437   347   436    1
   438   347   437    1
   439   348   349    1
   440   348   438    1
   441   348   439    1
   442   349   350    1
   443   349   440    1
   444   349   441    1
   445   350   351    1
   446   350   442    1
   447   350   443    1
   448   351   352    1
   449   351   444    1
   450   351   445    1
   451   352   446    1
   452   352   447    1
   453   352   448    1
@<TRIPOS>SUBSTRUCTURE
     1 RES1      448 GROUP             0 ****  ****    0  
