@<TRIPOS>MOLECULE
tri_tri_mer_capped_0_nunpairedes_0_charge_3 Charge: 3 Unpaired_Electrons: 3 XTB_Unpaired_Electrons: 0 XTB_Charge: 3
    41    47     1     0     0
SMALL
NoCharges
****
Generated from Architector

@<TRIPOS>ATOM
     1 Nd1      -0.0353    0.1591    0.0609   Nd        1 RES1   0.0000
     2 O1       -1.7468   -1.2172   -0.2803   O.2       1 RES1   0.0000
     3 C1       -1.7617   -2.3414   -0.7820   C.2       1 RES1   0.0000
     4 O2       -2.7869   -3.1065   -0.6497   O.2       1 RES1   0.0000
     5 C2       -0.5243   -2.7666   -1.5679   C.3       1 RES1   0.0000
     6 N1        0.6630   -2.0487   -1.0319   N.4       1 RES1   0.0000
     7 C3        1.6269   -1.7831   -2.1376   C.3       1 RES1   0.0000
     8 C4        1.1329   -0.6142   -3.0013   C.3       1 RES1   0.0000
     9 O3        0.9405    0.5190   -2.1269   O.3       1 RES1   0.0000
    10 C5        1.2494   -2.8699    0.0681   C.3       1 RES1   0.0000
    11 C6        2.3493   -2.1770    0.8885   C.3       1 RES1   0.0000
    12 N2        1.8574   -1.0416    1.7056   N.4       1 RES1   0.0000
    13 C7        2.9370   -0.0341    1.8729   C.3       1 RES1   0.0000
    14 C8        2.8348    0.9305    0.6978   C.2       1 RES1   0.0000
    15 O4        1.7242    1.3883    0.4386   O.2       1 RES1   0.0000
    16 O5        3.8388    1.2242   -0.0609   O.2       1 RES1   0.0000
    17 C9        1.2682   -1.4562    3.0023   C.3       1 RES1   0.0000
    18 C10      -0.0863   -0.7602    3.1574   C.2       1 RES1   0.0000
    19 O6       -0.4929   -0.0596    2.2300   O.2       1 RES1   0.0000
    20 O7       -0.8032   -0.9096    4.2145   O.3       1 RES1   0.0000
    21 H1       -2.7985   -4.0098   -1.0238   H         1 RES1   0.0000
    22 H2       -0.6949   -2.4523   -2.6061   H         1 RES1   0.0000
    23 H3       -0.3778   -3.8566   -1.5874   H         1 RES1   0.0000
    24 H4        1.7944   -2.6835   -2.7469   H         1 RES1   0.0000
    25 H5        2.5806   -1.4741   -1.6951   H         1 RES1   0.0000
    26 H6        0.1870   -0.8338   -3.5220   H         1 RES1   0.0000
    27 H7        1.8935   -0.3928   -3.7587   H         1 RES1   0.0000
    28 H8        1.0084    1.3088   -2.6930   H         1 RES1   0.0000
    29 H9        1.6821   -3.7888   -0.3482   H         1 RES1   0.0000
    30 H10       0.4223   -3.1464    0.7362   H         1 RES1   0.0000
    31 H11       3.1260   -1.8028    0.2132   H         1 RES1   0.0000
    32 H12       2.8172   -2.9418    1.5248   H         1 RES1   0.0000
    33 H13       3.9344   -0.4826    1.9754   H         1 RES1   0.0000
    34 H14       2.7529    0.5625    2.7731   H         1 RES1   0.0000
    35 H15       4.7403    0.9320    0.1746   H         1 RES1   0.0000
    36 H16       1.9144   -1.1970    3.8500   H         1 RES1   0.0000
    37 H17       1.1355   -2.5424    3.0559   H         1 RES1   0.0000
    38 H18      -0.5085   -1.4398    4.9750   H         1 RES1   0.0000
    39 O8       -1.3462    2.0572   -0.2381   O.3       1 RES1   0.0000
    40 H19      -1.1037    2.9498    0.0721   H         1 RES1   0.0000
    41 H20      -2.2962    2.1323   -0.4392   H         1 RES1   0.0000
@<TRIPOS>BOND
     1     1     2    1
     2     1     4    1
     3     1     6    1
     4     1     9    1
     5     1    12    1
     6     1    15    1
     7     1    16    1
     8     1    19    1
     9     1    39    1
    10     2     3    2
    11     3     4    1
    12     3     5    1
    13     4    21    1
    14     5     6    1
    15     5    22    1
    16     5    23    1
    17     6     7    1
    18     6    10    1
    19     7     8    1
    20     7    24    1
    21     7    25    1
    22     8     9    1
    23     8    26    1
    24     8    27    1
    25     9    28    1
    26    10    11    1
    27    10    29    1
    28    10    30    1
    29    11    12    1
    30    11    31    1
    31    11    32    1
    32    12    13    1
    33    12    17    1
    34    13    14    1
    35    13    33    1
    36    13    34    1
    37    14    15    2
    38    14    16    1
    39    16    35    1
    40    17    18    1
    41    17    36    1
    42    17    37    1
    43    18    19    2
    44    18    20    1
    45    20    38    1
    46    39    40    1
    47    39    41    1
@<TRIPOS>SUBSTRUCTURE
     1 RES1       41 GROUP             0 ****  ****    0  
