@<TRIPOS>MOLECULE
am_c3_9H2O_c0_0_nunpairedes_0_charge_3 Charge: 3 Unpaired_Electrons: 3 XTB_Unpaired_Electrons: 0 XTB_Charge: 3
   268   273     1     0     0
SMALL
NoCharges
****
Generated from Architector

@<TRIPOS>ATOM
     1 Nd1      -0.1369   -0.0178    0.0218   Nd        1 RES1   0.0000
     2 C1       -1.2700   -0.9475    4.2401   C.3       1 RES1   0.0000
     3 C2       -2.4581   -0.4183    5.0340   C.3       1 RES1   0.0000
     4 C3       -2.3849    1.1028    5.0967   C.3       1 RES1   0.0000
     5 C4       -3.6345    1.7598    5.6919   C.3       1 RES1   0.0000
     6 C5       -3.9791    3.0340    4.9262   C.3       1 RES1   0.0000
     7 C6       -4.6065    2.7068    3.5632   C.3       1 RES1   0.0000
     8 C7       -4.0895    3.5896    2.4210   C.3       1 RES1   0.0000
     9 C8       -5.1509    3.7964    1.3532   C.3       1 RES1   0.0000
    10 N1       -2.7810    3.1068    1.9200   N.am      1 RES1   0.0000
    11 C9       -1.6691    4.0149    2.2241   C.3       1 RES1   0.0000
    12 C10      -1.6712    5.2664    1.3381   C.3       1 RES1   0.0000
    13 C11      -0.5371    6.2191    1.7378   C.3       1 RES1   0.0000
    14 C12      -0.5543    7.5265    0.9471   C.3       1 RES1   0.0000
    15 C13      -2.4401    1.8919    1.4811   C.2       1 RES1   0.0000
    16 O1       -1.2498    1.5131    1.4591   O.2       1 RES1   0.0000
    17 C14      -3.4445    0.9018    0.8667   C.3       1 RES1   0.0000
    18 O2       -2.6263    0.0151    0.1138   O.3       1 RES1   0.0000
    19 C15      -3.2812   -0.8986   -0.7578   C.3       1 RES1   0.0000
    20 C16      -2.3048   -1.1523   -1.9177   C.2       1 RES1   0.0000
    21 O3       -1.0909   -1.1479   -1.6368   O.2       1 RES1   0.0000
    22 N2       -2.7184   -1.3416   -3.1659   N.am      1 RES1   0.0000
    23 C17      -1.7096   -1.3211   -4.2235   C.3       1 RES1   0.0000
    24 C18      -1.5360   -2.6346   -4.9915   C.3       1 RES1   0.0000
    25 C19      -0.5199   -3.6048   -4.3906   C.3       1 RES1   0.0000
    26 C20      -0.9746   -4.2303   -3.0771   C.3       1 RES1   0.0000
    27 C21      -4.1022   -1.5191   -3.6276   C.3       1 RES1   0.0000
    28 C22      -4.8724   -0.1997   -3.6079   C.3       1 RES1   0.0000
    29 C23      -4.7371   -2.7301   -2.9328   C.3       1 RES1   0.0000
    30 C24      -6.1114   -3.1054   -3.5084   C.3       1 RES1   0.0000
    31 C25      -7.2009   -3.0432   -2.4422   C.3       1 RES1   0.0000
    32 C26      -7.3846   -1.6487   -1.8520   C.3       1 RES1   0.0000
    33 C27      -8.4940   -1.6071   -0.8067   C.3       1 RES1   0.0000
    34 C28      -8.6148   -0.2258   -0.1739   C.3       1 RES1   0.0000
    35 H1       -0.3524   -0.5756    4.6874   H         1 RES1   0.0000
    36 H2       -1.2435   -2.0301    4.2647   H         1 RES1   0.0000
    37 H3       -1.3101   -0.6075    3.1978   H         1 RES1   0.0000
    38 H4       -2.4465   -0.8248    6.0471   H         1 RES1   0.0000
    39 H5       -3.3971   -0.7309    4.5667   H         1 RES1   0.0000
    40 H6       -2.2245    1.4631    4.0767   H         1 RES1   0.0000
    41 H7       -1.5013    1.3917    5.6694   H         1 RES1   0.0000
    42 H8       -3.4733    1.9939    6.7422   H         1 RES1   0.0000
    43 H9       -4.4767    1.0677    5.6458   H         1 RES1   0.0000
    44 H10      -3.0625    3.6124    4.7982   H         1 RES1   0.0000
    45 H11      -4.6616    3.6471    5.5091   H         1 RES1   0.0000
    46 H12      -5.6883    2.8240    3.6136   H         1 RES1   0.0000
    47 H13      -4.4223    1.6609    3.3224   H         1 RES1   0.0000
    48 H14      -3.8716    4.5795    2.8299   H         1 RES1   0.0000
    49 H15      -5.5343    2.8556    0.9721   H         1 RES1   0.0000
    50 H16      -4.7741    4.4020    0.5368   H         1 RES1   0.0000
    51 H17      -5.9832    4.3336    1.8007   H         1 RES1   0.0000
    52 H18      -0.7378    3.4634    2.0808   H         1 RES1   0.0000
    53 H19      -1.7339    4.3035    3.2769   H         1 RES1   0.0000
    54 H20      -2.6183    5.7990    1.4436   H         1 RES1   0.0000
    55 H21      -1.5693    4.9768    0.2864   H         1 RES1   0.0000
    56 H22       0.4318    5.7264    1.5973   H         1 RES1   0.0000
    57 H23      -0.6352    6.4628    2.7973   H         1 RES1   0.0000
    58 H24      -0.3335    7.3568   -0.1051   H         1 RES1   0.0000
    59 H25       0.1975    8.2079    1.3396   H         1 RES1   0.0000
    60 H26      -1.5210    8.0215    1.0242   H         1 RES1   0.0000
    61 H27      -4.1603    1.4207    0.2202   H         1 RES1   0.0000
    62 H28      -3.9976    0.3541    1.6444   H         1 RES1   0.0000
    63 H29      -4.2352   -0.4898   -1.0906   H         1 RES1   0.0000
    64 H30      -3.4377   -1.8533   -0.2323   H         1 RES1   0.0000
    65 H31      -0.7656   -1.0352   -3.7558   H         1 RES1   0.0000
    66 H32      -2.0111   -0.5314   -4.9202   H         1 RES1   0.0000
    67 H33      -1.2002   -2.3674   -5.9941   H         1 RES1   0.0000
    68 H34      -2.4933   -3.1467   -5.0915   H         1 RES1   0.0000
    69 H35       0.4290   -3.0844   -4.2399   H         1 RES1   0.0000
    70 H36      -0.3501   -4.4016   -5.1166   H         1 RES1   0.0000
    71 H37      -1.0085   -3.4840   -2.2837   H         1 RES1   0.0000
    72 H38      -0.2911   -5.0270   -2.7876   H         1 RES1   0.0000
    73 H39      -1.9629   -4.6717   -3.1946   H         1 RES1   0.0000
    74 H40      -4.0208   -1.7861   -4.6858   H         1 RES1   0.0000
    75 H41      -5.0293    0.2027   -2.6118   H         1 RES1   0.0000
    76 H42      -5.8475   -0.3329   -4.0664   H         1 RES1   0.0000
    77 H43      -4.3222    0.5330   -4.1951   H         1 RES1   0.0000
    78 H44      -4.8358   -2.5700   -1.8622   H         1 RES1   0.0000
    79 H45      -4.0393   -3.5607   -3.0560   H         1 RES1   0.0000
    80 H46      -6.0744   -4.1136   -3.9186   H         1 RES1   0.0000
    81 H47      -6.3689   -2.4424   -4.3329   H         1 RES1   0.0000
    82 H48      -6.9494   -3.7401   -1.6421   H         1 RES1   0.0000
    83 H49      -8.1416   -3.3725   -2.8796   H         1 RES1   0.0000
    84 H50      -7.6184   -0.9411   -2.6487   H         1 RES1   0.0000
    85 H51      -6.4585   -1.3174   -1.3727   H         1 RES1   0.0000
    86 H52      -8.2862   -2.3467   -0.0310   H         1 RES1   0.0000
    87 H53      -9.4396   -1.8759   -1.2758   H         1 RES1   0.0000
    88 H54      -7.6962    0.0428    0.3495   H         1 RES1   0.0000
    89 H55      -9.4310   -0.2076    0.5422   H         1 RES1   0.0000
    90 H56      -8.8105    0.5254   -0.9361   H         1 RES1   0.0000
    91 C29       1.2454   -0.4096   -7.7782   C.3       1 RES1   0.0000
    92 C30       0.4173    0.8541   -7.9633   C.3       1 RES1   0.0000
    93 C31       0.2547    1.6310   -6.6589   C.3       1 RES1   0.0000
    94 C32      -0.6327    2.8617   -6.8489   C.3       1 RES1   0.0000
    95 C33      -1.2869    3.3225   -5.5484   C.3       1 RES1   0.0000
    96 C34      -0.3612    4.0973   -4.6089   C.3       1 RES1   0.0000
    97 C35      -1.0862    4.6400   -3.3619   C.3       1 RES1   0.0000
    98 C36      -0.2820    5.7419   -2.6865   C.3       1 RES1   0.0000
    99 N3       -1.4691    3.5038   -2.5042   N.am      1 RES1   0.0000
   100 C37      -2.8068    2.9765   -2.8056   C.3       1 RES1   0.0000
   101 C38      -3.9064    3.6026   -1.9445   C.3       1 RES1   0.0000
   102 C39      -5.2741    3.3186   -2.5804   C.3       1 RES1   0.0000
   103 C40      -6.4724    3.8234   -1.7859   C.3       1 RES1   0.0000
   104 C41      -0.6948    2.7368   -1.7382   C.2       1 RES1   0.0000
   105 O4       -1.0606    1.5905   -1.4116   O.2       1 RES1   0.0000
   106 C42       0.6066    3.2403   -1.0917   C.3       1 RES1   0.0000
   107 O5        0.9259    2.2555   -0.1169   O.3       1 RES1   0.0000
   108 C43       1.9480    2.6108    0.8004   C.3       1 RES1   0.0000
   109 C44       1.9546    1.4904    1.8518   C.2       1 RES1   0.0000
   110 O6        1.4074    0.4144    1.5279   O.2       1 RES1   0.0000
   111 N4        2.4716    1.6537    3.0624   N.am      1 RES1   0.0000
   112 C45       2.1728    0.6268    4.0619   C.3       1 RES1   0.0000
   113 C46       3.3720   -0.1354    4.6297   C.3       1 RES1   0.0000
   114 C47       3.7201   -1.4147    3.8709   C.3       1 RES1   0.0000
   115 C48       4.2636   -1.1691    2.4688   C.3       1 RES1   0.0000
   116 C49       3.2956    2.7656    3.5616   C.3       1 RES1   0.0000
   117 C50       2.5014    4.0614    3.7370   C.3       1 RES1   0.0000
   118 C51       4.6057    2.8156    2.7568   C.3       1 RES1   0.0000
   119 C52       5.5756    3.9339    3.1683   C.3       1 RES1   0.0000
   120 C53       5.8163    4.9326    2.0368   C.3       1 RES1   0.0000
   121 C54       4.5332    5.6296    1.5990   C.3       1 RES1   0.0000
   122 C55       4.7101    6.5924    0.4302   C.3       1 RES1   0.0000
   123 C56       3.3547    7.1392   -0.0068   C.3       1 RES1   0.0000
   124 H57       1.3096   -0.9558   -8.7136   H         1 RES1   0.0000
   125 H58       0.7872   -1.0615   -7.0344   H         1 RES1   0.0000
   126 H59       2.2551   -0.1639   -7.4577   H         1 RES1   0.0000
   127 H60      -0.5716    0.5779   -8.3355   H         1 RES1   0.0000
   128 H61       0.8824    1.4968   -8.7112   H         1 RES1   0.0000
   129 H62       1.2335    1.9296   -6.2775   H         1 RES1   0.0000
   130 H63      -0.2003    0.9687   -5.9136   H         1 RES1   0.0000
   131 H64      -1.4348    2.6081   -7.5445   H         1 RES1   0.0000
   132 H65      -0.0646    3.6787   -7.2919   H         1 RES1   0.0000
   133 H66      -1.6554    2.4279   -5.0426   H         1 RES1   0.0000
   134 H67      -2.1393    3.9586   -5.7948   H         1 RES1   0.0000
   135 H68       0.0696    4.9414   -5.1491   H         1 RES1   0.0000
   136 H69       0.4557    3.4489   -4.2828   H         1 RES1   0.0000
   137 H70      -2.0361    5.0909   -3.6671   H         1 RES1   0.0000
   138 H71       0.7647    5.4816   -2.5684   H         1 RES1   0.0000
   139 H72      -0.7127    6.0035   -1.7244   H         1 RES1   0.0000
   140 H73      -0.3309    6.6304   -3.3107   H         1 RES1   0.0000
   141 H74      -2.7809    1.8964   -2.6493   H         1 RES1   0.0000
   142 H75      -3.0435    3.1867   -3.8445   H         1 RES1   0.0000
   143 H76      -3.7592    4.6831   -1.8854   H         1 RES1   0.0000
   144 H77      -3.8463    3.2009   -0.9335   H         1 RES1   0.0000
   145 H78      -5.3874    2.2459   -2.7349   H         1 RES1   0.0000
   146 H79      -5.2973    3.7902   -3.5632   H         1 RES1   0.0000
   147 H80      -6.6392    3.2286   -0.8933   H         1 RES1   0.0000
   148 H81      -7.3641    3.7594   -2.4029   H         1 RES1   0.0000
   149 H82      -6.3496    4.8627   -1.4982   H         1 RES1   0.0000
   150 H83       0.4185    4.2131   -0.6172   H         1 RES1   0.0000
   151 H84       1.4311    3.3342   -1.8115   H         1 RES1   0.0000
   152 H85       1.7320    3.5755    1.2720   H         1 RES1   0.0000
   153 H86       2.9165    2.6721    0.2828   H         1 RES1   0.0000
   154 H87       1.4852   -0.0799    3.5973   H         1 RES1   0.0000
   155 H88       1.6497    1.1434    4.8714   H         1 RES1   0.0000
   156 H89       3.1193   -0.4089    5.6557   H         1 RES1   0.0000
   157 H90       4.2530    0.5030    4.6787   H         1 RES1   0.0000
   158 H91       2.8288   -2.0464    3.8226   H         1 RES1   0.0000
   159 H92       4.4713   -1.9534    4.4495   H         1 RES1   0.0000
   160 H93       3.4999   -0.7373    1.8239   H         1 RES1   0.0000
   161 H94       4.6042   -2.1080    2.0374   H         1 RES1   0.0000
   162 H95       5.1164   -0.4952    2.5095   H         1 RES1   0.0000
   163 H96       3.5701    2.4719    4.5796   H         1 RES1   0.0000
   164 H97       2.2560    4.5759    2.8143   H         1 RES1   0.0000
   165 H98       3.0864    4.7446    4.3463   H         1 RES1   0.0000
   166 H99       1.5830    3.8477    4.2802   H         1 RES1   0.0000
   167 H100      4.3974    2.9009    1.6926   H         1 RES1   0.0000
   168 H101      5.0864    1.8455    2.8951   H         1 RES1   0.0000
   169 H102      6.5290    3.4948    3.4596   H         1 RES1   0.0000
   170 H103      5.1943    4.4594    4.0413   H         1 RES1   0.0000
   171 H104      6.2567    4.4070    1.1876   H         1 RES1   0.0000
   172 H105      6.5370    5.6750    2.3739   H         1 RES1   0.0000
   173 H106      4.1167    6.1764    2.4462   H         1 RES1   0.0000
   174 H107      3.8042    4.8765    1.2900   H         1 RES1   0.0000
   175 H108      5.1845    6.0745   -0.4063   H         1 RES1   0.0000
   176 H109      5.3604    7.4152    0.7239   H         1 RES1   0.0000
   177 H110      2.6983    6.3300   -0.3336   H         1 RES1   0.0000
   178 H111      3.4645    7.8394   -0.8289   H         1 RES1   0.0000
   179 H112      2.8735    7.6557    0.8206   H         1 RES1   0.0000
   180 C57       0.8149   -0.3743    8.1214   C.3       1 RES1   0.0000
   181 C58       0.7758   -1.8979    8.1706   C.3       1 RES1   0.0000
   182 C59       0.3129   -2.4720    6.8345   C.3       1 RES1   0.0000
   183 C60       0.1996   -3.9948    6.8246   C.3       1 RES1   0.0000
   184 C61      -0.4747   -4.5254    5.5566   C.3       1 RES1   0.0000
   185 C62       0.4046   -4.4250    4.3054   C.3       1 RES1   0.0000
   186 C63      -0.3157   -4.9480    3.0400   C.3       1 RES1   0.0000
   187 C64       0.5524   -5.9017    2.2246   C.3       1 RES1   0.0000
   188 N5       -0.8886   -3.8295    2.2755   N.am      1 RES1   0.0000
   189 C65      -2.3203   -3.6141    2.4688   C.3       1 RES1   0.0000
   190 C66      -3.1443   -4.4558    1.4995   C.3       1 RES1   0.0000
   191 C67      -4.6271   -4.1355    1.6774   C.3       1 RES1   0.0000
   192 C68      -5.5028   -4.9669    0.7523   C.3       1 RES1   0.0000
   193 C69      -0.2848   -2.9515    1.4869   C.2       1 RES1   0.0000
   194 O7       -0.8990   -1.9563    1.0436   O.2       1 RES1   0.0000
   195 C70       1.1698   -3.1108    1.0510   C.3       1 RES1   0.0000
   196 O8        1.4337   -2.0247    0.1694   O.3       1 RES1   0.0000
   197 C71       2.3311   -2.3223   -0.8860   C.3       1 RES1   0.0000
   198 C72       2.2663   -1.1600   -1.8804   C.2       1 RES1   0.0000
   199 O9        1.5518   -0.1834   -1.5675   O.2       1 RES1   0.0000
   200 N6        2.9193   -1.2086   -3.0414   N.am      1 RES1   0.0000
   201 C73       2.5313   -0.2290   -4.0607   C.3       1 RES1   0.0000
   202 C74       3.6213    0.7398   -4.5270   C.3       1 RES1   0.0000
   203 C75       3.6756    2.0513   -3.7456   C.3       1 RES1   0.0000
   204 C76       4.2053    1.8887   -2.3254   C.3       1 RES1   0.0000
   205 C77       3.9562   -2.1724   -3.4760   C.3       1 RES1   0.0000
   206 C78       3.3978   -3.5712   -3.7373   C.3       1 RES1   0.0000
   207 C79       5.2017   -2.0645   -2.5701   C.3       1 RES1   0.0000
   208 C80       6.3183   -3.0917   -2.8396   C.3       1 RES1   0.0000
   209 C81       6.5443   -4.0463   -1.6641   C.3       1 RES1   0.0000
   210 C82       5.3225   -4.9001   -1.3426   C.3       1 RES1   0.0000
   211 C83       5.5077   -5.8214   -0.1399   C.3       1 RES1   0.0000
   212 C84       4.1896   -6.5015    0.2173   C.3       1 RES1   0.0000
   213 H113      1.1041    0.0308    9.0858   H         1 RES1   0.0000
   214 H114     -0.1651    0.0249    7.8651   H         1 RES1   0.0000
   215 H115      1.5325   -0.0289    7.3781   H         1 RES1   0.0000
   216 H116      0.0849   -2.2114    8.9539   H         1 RES1   0.0000
   217 H117      1.7630   -2.2876    8.4234   H         1 RES1   0.0000
   218 H118      1.0036   -2.1450    6.0513   H         1 RES1   0.0000
   219 H119     -0.6707   -2.0554    6.6164   H         1 RES1   0.0000
   220 H120     -0.4021   -4.3063    7.6802   H         1 RES1   0.0000
   221 H121      1.1871   -4.4464    6.9313   H         1 RES1   0.0000
   222 H122     -1.4052   -3.9743    5.4007   H         1 RES1   0.0000
   223 H123     -0.7401   -5.5731    5.7074   H         1 RES1   0.0000
   224 H124      1.3118   -5.0075    4.4710   H         1 RES1   0.0000
   225 H125      0.7029   -3.3858    4.1455   H         1 RES1   0.0000
   226 H126     -1.1874   -5.5259    3.3602   H         1 RES1   0.0000
   227 H127      1.5901   -5.5851    2.1747   H         1 RES1   0.0000
   228 H128      0.1583   -6.0359    1.2205   H         1 RES1   0.0000
   229 H129      0.5378   -6.8744    2.7085   H         1 RES1   0.0000
   230 H130     -2.5308   -2.5595    2.2827   H         1 RES1   0.0000
   231 H131     -2.5832   -3.8474    3.5003   H         1 RES1   0.0000
   232 H132     -2.9742   -5.5169    1.6834   H         1 RES1   0.0000
   233 H133     -2.8297   -4.2411    0.4722   H         1 RES1   0.0000
   234 H134     -4.7885   -3.0695    1.4868   H         1 RES1   0.0000
   235 H135     -4.9129   -4.3304    2.7121   H         1 RES1   0.0000
   236 H136     -5.2286   -4.7967   -0.2866   H         1 RES1   0.0000
   237 H137     -6.5486   -4.7064    0.8901   H         1 RES1   0.0000
   238 H138     -5.3873   -6.0255    0.9682   H         1 RES1   0.0000
   239 H139      1.2989   -4.0712    0.5377   H         1 RES1   0.0000
   240 H140      1.8337   -3.0673    1.9239   H         1 RES1   0.0000
   241 H141      2.0209   -3.2438   -1.3958   H         1 RES1   0.0000
   242 H142      3.3461   -2.4387   -0.4887   H         1 RES1   0.0000
   243 H143      1.6960    0.3445   -3.6547   H         1 RES1   0.0000
   244 H144      2.1713   -0.8027   -4.9204   H         1 RES1   0.0000
   245 H145      3.4142    0.9757   -5.5723   H         1 RES1   0.0000
   246 H146      4.6015    0.2663   -4.4948   H         1 RES1   0.0000
   247 H147      2.6730    2.4903   -3.7279   H         1 RES1   0.0000
   248 H148      4.3252    2.7413   -4.2865   H         1 RES1   0.0000
   249 H149      3.5167    1.2993   -1.7206   H         1 RES1   0.0000
   250 H150      4.3423    2.8677   -1.8688   H         1 RES1   0.0000
   251 H151      5.1746    1.3943   -2.3419   H         1 RES1   0.0000
   252 H152      4.2702   -1.8127   -4.4617   H         1 RES1   0.0000
   253 H153      3.1215   -4.1172   -2.8429   H         1 RES1   0.0000
   254 H154      4.1449   -4.1568   -4.2669   H         1 RES1   0.0000
   255 H155      2.5347   -3.4970   -4.3939   H         1 RES1   0.0000
   256 H156      4.9284   -2.1294   -1.5196   H         1 RES1   0.0000
   257 H157      5.6007   -1.0587   -2.7146   H         1 RES1   0.0000
   258 H158      7.2509   -2.5593   -3.0262   H         1 RES1   0.0000
   259 H159      6.1057   -3.6654   -3.7387   H         1 RES1   0.0000
   260 H160      6.8211   -3.4614   -0.7844   H         1 RES1   0.0000
   261 H161      7.3854   -4.6964   -1.9005   H         1 RES1   0.0000
   262 H162      5.0651   -5.5044   -2.2134   H         1 RES1   0.0000
   263 H163      4.4767   -4.2442   -1.1245   H         1 RES1   0.0000
   264 H164      5.8621   -5.2436    0.7167   H         1 RES1   0.0000
   265 H165      6.2592   -6.5773   -0.3644   H         1 RES1   0.0000
   266 H166      3.4324   -5.7590    0.4771   H         1 RES1   0.0000
   267 H167      4.3147   -7.1692    1.0643   H         1 RES1   0.0000
   268 H168      3.8212   -7.0844   -0.6238   H         1 RES1   0.0000
@<TRIPOS>BOND
     1     1    16    1
     2     1    18    1
     3     1    21    1
     4     1   105    1
     5     1   107    1
     6     1   110    1
     7     1   194    1
     8     1   196    1
     9     1   199    1
    10     2     3    1
    11     2    35    1
    12     2    36    1
    13     2    37    1
    14     3     4    1
    15     3    38    1
    16     3    39    1
    17     4     5    1
    18     4    40    1
    19     4    41    1
    20     5     6    1
    21     5    42    1
    22     5    43    1
    23     6     7    1
    24     6    44    1
    25     6    45    1
    26     7     8    1
    27     7    46    1
    28     7    47    1
    29     8     9    1
    30     8    10    1
    31     8    48    1
    32     9    49    1
    33     9    50    1
    34     9    51    1
    35    10    11    1
    36    10    15    1
    37    11    12    1
    38    11    52    1
    39    11    53    1
    40    12    13    1
    41    12    54    1
    42    12    55    1
    43    13    14    1
    44    13    56    1
    45    13    57    1
    46    14    58    1
    47    14    59    1
    48    14    60    1
    49    15    16    2
    50    15    17    1
    51    17    18    1
    52    17    61    1
    53    17    62    1
    54    18    19    1
    55    19    20    1
    56    19    63    1
    57    19    64    1
    58    20    21    2
    59    20    22    1
    60    22    23    1
    61    22    27    1
    62    23    24    1
    63    23    65    1
    64    23    66    1
    65    24    25    1
    66    24    67    1
    67    24    68    1
    68    25    26    1
    69    25    69    1
    70    25    70    1
    71    26    71    1
    72    26    72    1
    73    26    73    1
    74    27    28    1
    75    27    29    1
    76    27    74    1
    77    28    75    1
    78    28    76    1
    79    28    77    1
    80    29    30    1
    81    29    78    1
    82    29    79    1
    83    30    31    1
    84    30    80    1
    85    30    81    1
    86    31    32    1
    87    31    82    1
    88    31    83    1
    89    32    33    1
    90    32    84    1
    91    32    85    1
    92    33    34    1
    93    33    86    1
    94    33    87    1
    95    34    88    1
    96    34    89    1
    97    34    90    1
    98    91    92    1
    99    91   124    1
   100    91   125    1
   101    91   126    1
   102    92    93    1
   103    92   127    1
   104    92   128    1
   105    93    94    1
   106    93   129    1
   107    93   130    1
   108    94    95    1
   109    94   131    1
   110    94   132    1
   111    95    96    1
   112    95   133    1
   113    95   134    1
   114    96    97    1
   115    96   135    1
   116    96   136    1
   117    97    98    1
   118    97    99    1
   119    97   137    1
   120    98   138    1
   121    98   139    1
   122    98   140    1
   123    99   100    1
   124    99   104    1
   125   100   101    1
   126   100   141    1
   127   100   142    1
   128   101   102    1
   129   101   143    1
   130   101   144    1
   131   102   103    1
   132   102   145    1
   133   102   146    1
   134   103   147    1
   135   103   148    1
   136   103   149    1
   137   104   105    2
   138   104   106    1
   139   106   107    1
   140   106   150    1
   141   106   151    1
   142   107   108    1
   143   108   109    1
   144   108   152    1
   145   108   153    1
   146   109   110    2
   147   109   111    1
   148   111   112    1
   149   111   116    1
   150   112   113    1
   151   112   154    1
   152   112   155    1
   153   113   114    1
   154   113   156    1
   155   113   157    1
   156   114   115    1
   157   114   158    1
   158   114   159    1
   159   115   160    1
   160   115   161    1
   161   115   162    1
   162   116   117    1
   163   116   118    1
   164   116   163    1
   165   117   164    1
   166   117   165    1
   167   117   166    1
   168   118   119    1
   169   118   167    1
   170   118   168    1
   171   119   120    1
   172   119   169    1
   173   119   170    1
   174   120   121    1
   175   120   171    1
   176   120   172    1
   177   121   122    1
   178   121   173    1
   179   121   174    1
   180   122   123    1
   181   122   175    1
   182   122   176    1
   183   123   177    1
   184   123   178    1
   185   123   179    1
   186   180   181    1
   187   180   213    1
   188   180   214    1
   189   180   215    1
   190   181   182    1
   191   181   216    1
   192   181   217    1
   193   182   183    1
   194   182   218    1
   195   182   219    1
   196   183   184    1
   197   183   220    1
   198   183   221    1
   199   184   185    1
   200   184   222    1
   201   184   223    1
   202   185   186    1
   203   185   224    1
   204   185   225    1
   205   186   187    1
   206   186   188    1
   207   186   226    1
   208   187   227    1
   209   187   228    1
   210   187   229    1
   211   188   189    1
   212   188   193    1
   213   189   190    1
   214   189   230    1
   215   189   231    1
   216   190   191    1
   217   190   232    1
   218   190   233    1
   219   191   192    1
   220   191   234    1
   221   191   235    1
   222   192   236    1
   223   192   237    1
   224   192   238    1
   225   193   194    2
   226   193   195    1
   227   195   196    1
   228   195   239    1
   229   195   240    1
   230   196   197    1
   231   197   198    1
   232   197   241    1
   233   197   242    1
   234   198   199    2
   235   198   200    1
   236   200   201    1
   237   200   205    1
   238   201   202    1
   239   201   243    1
   240   201   244    1
   241   202   203    1
   242   202   245    1
   243   202   246    1
   244   203   204    1
   245   203   247    1
   246   203   248    1
   247   204   249    1
   248   204   250    1
   249   204   251    1
   250   205   206    1
   251   205   207    1
   252   205   252    1
   253   206   253    1
   254   206   254    1
   255   206   255    1
   256   207   208    1
   257   207   256    1
   258   207   257    1
   259   208   209    1
   260   208   258    1
   261   208   259    1
   262   209   210    1
   263   209   260    1
   264   209   261    1
   265   210   211    1
   266   210   262    1
   267   210   263    1
   268   211   212    1
   269   211   264    1
   270   211   265    1
   271   212   266    1
   272   212   267    1
   273   212   268    1
@<TRIPOS>SUBSTRUCTURE
     1 RES1      268 GROUP             0 ****  ****    0  
