@<TRIPOS>MOLECULE
am_c3_9H2O_c0_0_nunpairedes_0_charge_3 Charge: 3 Unpaired_Electrons: 3 XTB_Unpaired_Electrons: 0 XTB_Charge: 3
   196   201     1     0     0
SMALL
NoCharges
****
Generated from Architector

@<TRIPOS>ATOM
     1 Nd1      -0.0418    0.0207   -0.1795   Nd        1 RES1   0.0000
     2 C1       -3.6348   -4.0121    2.7079   C.3       1 RES1   0.0000
     3 C2       -3.4439   -2.5312    3.0527   C.3       1 RES1   0.0000
     4 C3       -3.8338   -2.3129    4.5156   C.3       1 RES1   0.0000
     5 C4       -4.2697   -1.6570    2.0880   C.3       1 RES1   0.0000
     6 N1       -4.0086   -0.2237    2.2088   N.am      1 RES1   0.0000
     7 C5       -5.0014    0.5478    2.9430   C.3       1 RES1   0.0000
     8 C6       -6.1960    1.0848    2.1223   C.3       1 RES1   0.0000
     9 C7       -7.0098   -0.0054    1.4326   C.3       1 RES1   0.0000
    10 C8       -5.8132    2.1578    1.1070   C.3       1 RES1   0.0000
    11 C9       -2.8879    0.2605    1.6853   C.2       1 RES1   0.0000
    12 O1       -2.0828   -0.4523    1.0482   O.2       1 RES1   0.0000
    13 C10      -2.5977    1.7527    1.8314   C.3       1 RES1   0.0000
    14 O2       -1.2723    2.0107    1.3927   O.3       1 RES1   0.0000
    15 C11      -1.0652    3.3586    0.9739   C.3       1 RES1   0.0000
    16 C12      -0.9464    3.3701   -0.5614   C.2       1 RES1   0.0000
    17 O3       -0.7568    2.2628   -1.0998   O.2       1 RES1   0.0000
    18 N2       -1.0942    4.5136   -1.2305   N.am      1 RES1   0.0000
    19 C13      -1.4006    5.8075   -0.6101   C.3       1 RES1   0.0000
    20 C14      -0.4529    6.3596    0.4630   C.3       1 RES1   0.0000
    21 C15      -1.0678    7.6271    1.0555   C.3       1 RES1   0.0000
    22 C16       0.9191    6.6743   -0.1179   C.3       1 RES1   0.0000
    23 C17      -1.4140    4.4364   -2.6657   C.3       1 RES1   0.0000
    24 C18      -0.2641    4.4956   -3.6859   C.3       1 RES1   0.0000
    25 C19       0.7171    5.6431   -3.4745   C.3       1 RES1   0.0000
    26 C20       0.4861    3.1690   -3.7386   C.3       1 RES1   0.0000
    27 H1       -3.0025   -4.6250    3.3476   H         1 RES1   0.0000
    28 H2       -3.3715   -4.2285    1.6723   H         1 RES1   0.0000
    29 H3       -4.6686   -4.3106    2.8722   H         1 RES1   0.0000
    30 H4       -2.3880   -2.2703    2.9198   H         1 RES1   0.0000
    31 H5       -4.8987   -2.4858    4.6569   H         1 RES1   0.0000
    32 H6       -3.5826   -1.3115    4.8588   H         1 RES1   0.0000
    33 H7       -3.3035   -3.0281    5.1418   H         1 RES1   0.0000
    34 H8       -5.3280   -1.8198    2.2839   H         1 RES1   0.0000
    35 H9       -4.0468   -1.9473    1.0571   H         1 RES1   0.0000
    36 H10      -4.5129    1.3807    3.4460   H         1 RES1   0.0000
    37 H11      -5.3964   -0.1140    3.7151   H         1 RES1   0.0000
    38 H12      -6.8484    1.5555    2.8614   H         1 RES1   0.0000
    39 H13      -6.4551   -0.4628    0.6174   H         1 RES1   0.0000
    40 H14      -7.9136    0.4360    1.0220   H         1 RES1   0.0000
    41 H15      -7.3202   -0.7727    2.1347   H         1 RES1   0.0000
    42 H16      -5.1774    1.7500    0.3228   H         1 RES1   0.0000
    43 H17      -5.3185    2.9945    1.5936   H         1 RES1   0.0000
    44 H18      -6.7105    2.5478    0.6336   H         1 RES1   0.0000
    45 H19      -2.7044    2.0742    2.8792   H         1 RES1   0.0000
    46 H20      -3.3112    2.2917    1.2034   H         1 RES1   0.0000
    47 H21      -0.1278    3.6819    1.4372   H         1 RES1   0.0000
    48 H22      -1.8723    4.0152    1.3166   H         1 RES1   0.0000
    49 H23      -2.4233    5.7706   -0.2164   H         1 RES1   0.0000
    50 H24      -1.4001    6.5398   -1.4200   H         1 RES1   0.0000
    51 H25      -0.3210    5.6553    1.2832   H         1 RES1   0.0000
    52 H26      -1.2367    8.3736    0.2860   H         1 RES1   0.0000
    53 H27      -0.4015    8.0496    1.8022   H         1 RES1   0.0000
    54 H28      -2.0106    7.4164    1.5509   H         1 RES1   0.0000
    55 H29       0.8327    7.3668   -0.9494   H         1 RES1   0.0000
    56 H30       1.4133    5.7733   -0.4723   H         1 RES1   0.0000
    57 H31       1.5474    7.1326    0.6404   H         1 RES1   0.0000
    58 H32      -2.1079    5.2512   -2.8795   H         1 RES1   0.0000
    59 H33      -1.9273    3.4837   -2.8092   H         1 RES1   0.0000
    60 H34      -0.7593    4.6463   -4.6519   H         1 RES1   0.0000
    61 H35       1.3266    5.4660   -2.5934   H         1 RES1   0.0000
    62 H36       0.2040    6.5928   -3.3619   H         1 RES1   0.0000
    63 H37       1.3733    5.7179   -4.3388   H         1 RES1   0.0000
    64 H38       0.8921    2.9192   -2.7595   H         1 RES1   0.0000
    65 H39       1.2962    3.2356   -4.4593   H         1 RES1   0.0000
    66 H40      -0.1797    2.3671   -4.0441   H         1 RES1   0.0000
    67 C21       1.2930   -1.7558   -4.7869   C.3       1 RES1   0.0000
    68 C22       1.5417   -0.2516   -4.6451   C.3       1 RES1   0.0000
    69 C23       1.3861    0.4619   -5.9873   C.3       1 RES1   0.0000
    70 C24       2.9455   -0.0255   -4.0482   C.3       1 RES1   0.0000
    71 N3        3.0820    1.1102   -3.1258   N.am      1 RES1   0.0000
    72 C25       3.9165    2.2222   -3.5636   C.3       1 RES1   0.0000
    73 C26       5.4417    2.0767   -3.3904   C.3       1 RES1   0.0000
    74 C27       6.0119    0.8449   -4.0856   C.3       1 RES1   0.0000
    75 C28       5.8959    2.1116   -1.9339   C.3       1 RES1   0.0000
    76 C29       2.3978    1.0372   -1.9939   C.2       1 RES1   0.0000
    77 O4        1.5157    0.1771   -1.8069   O.2       1 RES1   0.0000
    78 C30       2.7525    1.9390   -0.8009   C.3       1 RES1   0.0000
    79 O5        1.7734    1.7411    0.2188   O.3       1 RES1   0.0000
    80 C31       2.2455    2.0400    1.5266   C.3       1 RES1   0.0000
    81 C32       1.5341    1.1181    2.5344   C.2       1 RES1   0.0000
    82 O6        0.8120    0.2123    2.0843   O.2       1 RES1   0.0000
    83 N4        1.8086    1.2756    3.8319   N.am      1 RES1   0.0000
    84 C33       2.5586    2.4446    4.2891   C.3       1 RES1   0.0000
    85 C34       1.7486    3.7531    4.3771   C.3       1 RES1   0.0000
    86 C35       2.7236    4.9281    4.4009   C.3       1 RES1   0.0000
    87 C36       0.8690    3.8011    5.6214   C.3       1 RES1   0.0000
    88 C37       1.8005    0.0984    4.7205   C.3       1 RES1   0.0000
    89 C38       0.5260   -0.4462    5.3884   C.3       1 RES1   0.0000
    90 C39      -0.3098    0.5622    6.1637   C.3       1 RES1   0.0000
    91 C40      -0.3484   -1.2248    4.4110   C.3       1 RES1   0.0000
    92 H41       0.3313   -1.9409   -5.2597   H         1 RES1   0.0000
    93 H42       1.2866   -2.2156   -3.7986   H         1 RES1   0.0000
    94 H43       2.0612   -2.2325   -5.3944   H         1 RES1   0.0000
    95 H44       0.7959    0.1373   -3.9455   H         1 RES1   0.0000
    96 H45       2.0026   -0.0017   -6.7542   H         1 RES1   0.0000
    97 H46       1.6620    1.5116   -5.9162   H         1 RES1   0.0000
    98 H47       0.3514    0.4139   -6.3198   H         1 RES1   0.0000
    99 H48       3.6471    0.1184   -4.8662   H         1 RES1   0.0000
   100 H49       3.2378   -0.9151   -3.4827   H         1 RES1   0.0000
   101 H50       3.5883    3.1338   -3.0636   H         1 RES1   0.0000
   102 H51       3.7153    2.3404   -4.6303   H         1 RES1   0.0000
   103 H52       5.8671    2.9547   -3.8831   H         1 RES1   0.0000
   104 H53       5.6535   -0.0712   -3.6245   H         1 RES1   0.0000
   105 H54       7.0956    0.8579   -4.0111   H         1 RES1   0.0000
   106 H55       5.7589    0.8386   -5.1419   H         1 RES1   0.0000
   107 H56       5.6317    1.1903   -1.4191   H         1 RES1   0.0000
   108 H57       5.4713    2.9629   -1.4068   H         1 RES1   0.0000
   109 H58       6.9778    2.2094   -1.8968   H         1 RES1   0.0000
   110 H59       2.8246    3.0000   -1.0691   H         1 RES1   0.0000
   111 H60       3.7289    1.5973   -0.4358   H         1 RES1   0.0000
   112 H61       2.1134    3.1039    1.7510   H         1 RES1   0.0000
   113 H62       3.3189    1.8087    1.6010   H         1 RES1   0.0000
   114 H63       3.4229    2.5992    3.6376   H         1 RES1   0.0000
   115 H64       2.9529    2.2276    5.2810   H         1 RES1   0.0000
   116 H65       1.0924    3.8455    3.5018   H         1 RES1   0.0000
   117 H66       3.3981    4.8420    5.2479   H         1 RES1   0.0000
   118 H67       2.1822    5.8630    4.4998   H         1 RES1   0.0000
   119 H68       3.3151    4.9803    3.4912   H         1 RES1   0.0000
   120 H69       1.4592    3.6511    6.5206   H         1 RES1   0.0000
   121 H70       0.0898    3.0507    5.5888   H         1 RES1   0.0000
   122 H71       0.3880    4.7717    5.6966   H         1 RES1   0.0000
   123 H72       2.5130    0.3196    5.5147   H         1 RES1   0.0000
   124 H73       2.1982   -0.7355    4.1367   H         1 RES1   0.0000
   125 H74       0.9222   -1.1676    6.1139   H         1 RES1   0.0000
   126 H75      -0.8572    1.2161    5.4876   H         1 RES1   0.0000
   127 H76       0.3080    1.1575    6.8286   H         1 RES1   0.0000
   128 H77      -1.0330    0.0282    6.7758   H         1 RES1   0.0000
   129 H78      -0.7850   -0.5624    3.6629   H         1 RES1   0.0000
   130 H79      -1.1420   -1.7268    4.9578   H         1 RES1   0.0000
   131 H80       0.2498   -1.9823    3.9057   H         1 RES1   0.0000
   132 C41       5.4098   -0.5225    1.4427   C.3       1 RES1   0.0000
   133 C42       4.3263   -1.2823    2.2132   C.3       1 RES1   0.0000
   134 C43       4.8105   -1.5541    3.6382   C.3       1 RES1   0.0000
   135 C44       3.9783   -2.5812    1.4609   C.3       1 RES1   0.0000
   136 N5        2.6257   -3.0958    1.6895   N.am      1 RES1   0.0000
   137 C45       2.4704   -4.2181    2.6048   C.3       1 RES1   0.0000
   138 C46       2.7055   -5.6316    2.0251   C.3       1 RES1   0.0000
   139 C47       4.0883   -5.7925    1.4037   C.3       1 RES1   0.0000
   140 C48       1.6490   -6.0646    1.0117   C.3       1 RES1   0.0000
   141 C49       1.6492   -2.4989    1.0121   C.2       1 RES1   0.0000
   142 O7        1.8596   -1.4856    0.3234   O.2       1 RES1   0.0000
   143 C50       0.2200   -3.0603    1.0174   C.3       1 RES1   0.0000
   144 O8       -0.4195   -2.4115   -0.0761   O.3       1 RES1   0.0000
   145 C51      -1.6412   -2.9898   -0.5140   C.3       1 RES1   0.0000
   146 C52      -2.1619   -1.9922   -1.5609   C.2       1 RES1   0.0000
   147 O9       -1.4418   -1.0000   -1.7720   O.2       1 RES1   0.0000
   148 N6       -3.2636   -2.2353   -2.2597   N.am      1 RES1   0.0000
   149 C53      -4.1638   -3.3524   -1.9829   C.3       1 RES1   0.0000
   150 C54      -5.5379   -2.9146   -1.4246   C.3       1 RES1   0.0000
   151 C55      -6.0191   -3.8824   -0.3429   C.3       1 RES1   0.0000
   152 C56      -6.6098   -2.8329   -2.5062   C.3       1 RES1   0.0000
   153 C57      -3.4085   -1.5487   -3.5582   C.3       1 RES1   0.0000
   154 C58      -3.8259   -0.0647   -3.6437   C.3       1 RES1   0.0000
   155 C59      -5.0852    0.3046   -2.8668   C.3       1 RES1   0.0000
   156 C60      -2.7087    0.9060   -3.2658   C.3       1 RES1   0.0000
   157 H81       5.6711    0.3994    1.9611   H         1 RES1   0.0000
   158 H82       5.0610   -0.2766    0.4405   H         1 RES1   0.0000
   159 H83       6.3147   -1.1197    1.3522   H         1 RES1   0.0000
   160 H84       3.4293   -0.6535    2.2453   H         1 RES1   0.0000
   161 H85       5.7228   -2.1463    3.6220   H         1 RES1   0.0000
   162 H86       4.0678   -2.0815    4.2332   H         1 RES1   0.0000
   163 H87       5.0348   -0.6155    4.1415   H         1 RES1   0.0000
   164 H88       4.6918   -3.3485    1.7478   H         1 RES1   0.0000
   165 H89       4.0615   -2.3955    0.3868   H         1 RES1   0.0000
   166 H90       1.4773   -4.1775    3.0551   H         1 RES1   0.0000
   167 H91       3.2077   -4.0561    3.3937   H         1 RES1   0.0000
   168 H92       2.6411   -6.3053    2.8839   H         1 RES1   0.0000
   169 H93       4.1718   -5.1974    0.4986   H         1 RES1   0.0000
   170 H94       4.2487   -6.8327    1.1352   H         1 RES1   0.0000
   171 H95       4.8734   -5.5106    2.0996   H         1 RES1   0.0000
   172 H96       1.6751   -5.4218    0.1337   H         1 RES1   0.0000
   173 H97       0.6522   -6.0698    1.4503   H         1 RES1   0.0000
   174 H98       1.8590   -7.0773    0.6774   H         1 RES1   0.0000
   175 H99      -0.2958   -2.8150    1.9584   H         1 RES1   0.0000
   176 H100      0.2262   -4.1419    0.8728   H         1 RES1   0.0000
   177 H101     -1.4656   -3.9590   -1.0094   H         1 RES1   0.0000
   178 H102     -2.3234   -3.1275    0.3307   H         1 RES1   0.0000
   179 H103     -3.6938   -4.0061   -1.2535   H         1 RES1   0.0000
   180 H104     -4.2959   -3.9298   -2.8994   H         1 RES1   0.0000
   181 H105     -5.4011   -1.9238   -0.9761   H         1 RES1   0.0000
   182 H106     -6.1594   -4.8773   -0.7566   H         1 RES1   0.0000
   183 H107     -6.9766   -3.5530    0.0503   H         1 RES1   0.0000
   184 H108     -5.3224   -3.9421    0.4867   H         1 RES1   0.0000
   185 H109     -6.8063   -3.8170   -2.9204   H         1 RES1   0.0000
   186 H110     -6.3319   -2.1702   -3.3172   H         1 RES1   0.0000
   187 H111     -7.5361   -2.4640   -2.0752   H         1 RES1   0.0000
   188 H112     -4.1213   -2.1372   -4.1349   H         1 RES1   0.0000
   189 H113     -2.4310   -1.6181   -4.0464   H         1 RES1   0.0000
   190 H114     -4.0280    0.0885   -4.7114   H         1 RES1   0.0000
   191 H115     -4.9872    0.0186   -1.8220   H         1 RES1   0.0000
   192 H116     -5.9703   -0.1621   -3.2839   H         1 RES1   0.0000
   193 H117     -5.2389    1.3804   -2.9160   H         1 RES1   0.0000
   194 H118     -2.5921    0.9718   -2.1806   H         1 RES1   0.0000
   195 H119     -2.9621    1.8897   -3.6549   H         1 RES1   0.0000
   196 H120     -1.7599    0.6025   -3.7030   H         1 RES1   0.0000
@<TRIPOS>BOND
     1     1    12    1
     2     1    14    1
     3     1    17    1
     4     1    77    1
     5     1    79    1
     6     1    82    1
     7     1   142    1
     8     1   144    1
     9     1   147    1
    10     2     3    1
    11     2    27    1
    12     2    28    1
    13     2    29    1
    14     3     4    1
    15     3     5    1
    16     3    30    1
    17     4    31    1
    18     4    32    1
    19     4    33    1
    20     5     6    1
    21     5    34    1
    22     5    35    1
    23     6     7    1
    24     6    11    1
    25     7     8    1
    26     7    36    1
    27     7    37    1
    28     8     9    1
    29     8    10    1
    30     8    38    1
    31     9    39    1
    32     9    40    1
    33     9    41    1
    34    10    42    1
    35    10    43    1
    36    10    44    1
    37    11    12    2
    38    11    13    1
    39    13    14    1
    40    13    45    1
    41    13    46    1
    42    14    15    1
    43    15    16    1
    44    15    47    1
    45    15    48    1
    46    16    17    2
    47    16    18    1
    48    18    19    1
    49    18    23    1
    50    19    20    1
    51    19    49    1
    52    19    50    1
    53    20    21    1
    54    20    22    1
    55    20    51    1
    56    21    52    1
    57    21    53    1
    58    21    54    1
    59    22    55    1
    60    22    56    1
    61    22    57    1
    62    23    24    1
    63    23    58    1
    64    23    59    1
    65    24    25    1
    66    24    26    1
    67    24    60    1
    68    25    61    1
    69    25    62    1
    70    25    63    1
    71    26    64    1
    72    26    65    1
    73    26    66    1
    74    67    68    1
    75    67    92    1
    76    67    93    1
    77    67    94    1
    78    68    69    1
    79    68    70    1
    80    68    95    1
    81    69    96    1
    82    69    97    1
    83    69    98    1
    84    70    71    1
    85    70    99    1
    86    70   100    1
    87    71    72    1
    88    71    76    1
    89    72    73    1
    90    72   101    1
    91    72   102    1
    92    73    74    1
    93    73    75    1
    94    73   103    1
    95    74   104    1
    96    74   105    1
    97    74   106    1
    98    75   107    1
    99    75   108    1
   100    75   109    1
   101    76    77    2
   102    76    78    1
   103    78    79    1
   104    78   110    1
   105    78   111    1
   106    79    80    1
   107    80    81    1
   108    80   112    1
   109    80   113    1
   110    81    82    2
   111    81    83    1
   112    83    84    1
   113    83    88    1
   114    84    85    1
   115    84   114    1
   116    84   115    1
   117    85    86    1
   118    85    87    1
   119    85   116    1
   120    86   117    1
   121    86   118    1
   122    86   119    1
   123    87   120    1
   124    87   121    1
   125    87   122    1
   126    88    89    1
   127    88   123    1
   128    88   124    1
   129    89    90    1
   130    89    91    1
   131    89   125    1
   132    90   126    1
   133    90   127    1
   134    90   128    1
   135    91   129    1
   136    91   130    1
   137    91   131    1
   138   132   133    1
   139   132   157    1
   140   132   158    1
   141   132   159    1
   142   133   134    1
   143   133   135    1
   144   133   160    1
   145   134   161    1
   146   134   162    1
   147   134   163    1
   148   135   136    1
   149   135   164    1
   150   135   165    1
   151   136   137    1
   152   136   141    1
   153   137   138    1
   154   137   166    1
   155   137   167    1
   156   138   139    1
   157   138   140    1
   158   138   168    1
   159   139   169    1
   160   139   170    1
   161   139   171    1
   162   140   172    1
   163   140   173    1
   164   140   174    1
   165   141   142    2
   166   141   143    1
   167   143   144    1
   168   143   175    1
   169   143   176    1
   170   144   145    1
   171   145   146    1
   172   145   177    1
   173   145   178    1
   174   146   147    2
   175   146   148    1
   176   148   149    1
   177   148   153    1
   178   149   150    1
   179   149   179    1
   180   149   180    1
   181   150   151    1
   182   150   152    1
   183   150   181    1
   184   151   182    1
   185   151   183    1
   186   151   184    1
   187   152   185    1
   188   152   186    1
   189   152   187    1
   190   153   154    1
   191   153   188    1
   192   153   189    1
   193   154   155    1
   194   154   156    1
   195   154   190    1
   196   155   191    1
   197   155   192    1
   198   155   193    1
   199   156   194    1
   200   156   195    1
   201   156   196    1
@<TRIPOS>SUBSTRUCTURE
     1 RES1      196 GROUP             0 ****  ****    0  
