@<TRIPOS>MOLECULE
tri_tri_mer_capped_0_nunpairedes_0_charge_3 Charge: 3 Unpaired_Electrons: 3 XTB_Unpaired_Electrons: 0 XTB_Charge: 3
    82    94     1     0     0
SMALL
NoCharges
****
Generated from Architector

@<TRIPOS>ATOM
     1 Nd1       0.3424    1.0352   -1.0783   Nd        1 RES1   0.0000
     2 C1        6.4369   -0.9273   -2.0022   C.3       1 RES1   0.0000
     3 C2        5.6079   -0.2127   -3.0900   C.3       1 RES1   0.0000
     4 C3        5.7859    1.3014   -2.9274   C.3       1 RES1   0.0000
     5 C4        6.1061   -0.6549   -4.4862   C.3       1 RES1   0.0000
     6 C5        5.5690   -1.9990   -4.9737   C.3       1 RES1   0.0000
     7 C6        4.0347   -2.0759   -4.9635   C.3       1 RES1   0.0000
     8 C7        3.4967   -3.4266   -5.4243   C.3       1 RES1   0.0000
     9 C8        3.4228   -0.9653   -5.8519   C.3       1 RES1   0.0000
    10 C9        3.6081   -1.7558   -3.5907   C.ar      1 RES1   0.0000
    11 N1        2.5937   -2.3267   -2.9994   N.ar      1 RES1   0.0000
    12 C10       1.8874   -1.6704   -2.1139   C.ar      1 RES1   0.0000
    13 C11       0.7994   -2.3123   -1.3620   C.ar      1 RES1   0.0000
    14 C12       0.7319   -3.6789   -1.1083   C.ar      1 RES1   0.0000
    15 C13      -0.3629   -4.1618   -0.4020   C.ar      1 RES1   0.0000
    16 C14      -1.4030   -3.3024   -0.0685   C.ar      1 RES1   0.0000
    17 C15      -1.2949   -1.9573   -0.4160   C.ar      1 RES1   0.0000
    18 C16      -2.4242   -0.9982   -0.4227   C.ar      1 RES1   0.0000
    19 C17      -3.7664   -1.3676   -0.3334   C.ar      1 RES1   0.0000
    20 C18      -4.7284   -0.4714   -0.7810   C.ar      1 RES1   0.0000
    21 C19      -4.3586    0.7863   -1.2597   C.ar      1 RES1   0.0000
    22 C20      -3.0196    1.1236   -1.1896   C.ar      1 RES1   0.0000
    23 C21      -2.2361    2.2949   -1.6880   C.ar      1 RES1   0.0000
    24 N2       -1.3808    2.7920   -0.7929   N.ar      1 RES1   0.0000
    25 N3       -0.2589    3.3288   -1.2336   N.ar      1 RES1   0.0000
    26 C22       0.0297    3.3488   -2.5295   C.ar      1 RES1   0.0000
    27 C23      -0.9479    2.8936   -3.4708   C.ar      1 RES1   0.0000
    28 N4       -2.0827    2.3937   -3.0050   N.ar      1 RES1   0.0000
    29 C24      -0.6788    2.7341   -4.9310   C.3       1 RES1   0.0000
    30 C25      -0.7778    1.2124   -5.1964   C.3       1 RES1   0.0000
    31 C26      -1.7869    3.4468   -5.7193   C.3       1 RES1   0.0000
    32 C27       0.7233    3.2441   -5.2966   C.3       1 RES1   0.0000
    33 C28       1.7625    2.9631   -4.2077   C.3       1 RES1   0.0000
    34 C29       1.4433    3.7348   -2.9117   C.3       1 RES1   0.0000
    35 C30       1.5389    5.2525   -3.1534   C.3       1 RES1   0.0000
    36 C31       2.3953    3.3666   -1.7490   C.3       1 RES1   0.0000
    37 N5       -2.0778    0.2456   -0.7992   N.ar      1 RES1   0.0000
    38 N6       -0.1760   -1.4675   -0.9856   N.ar      1 RES1   0.0000
    39 N7        2.0577   -0.3251   -1.9900   N.ar      1 RES1   0.0000
    40 N8        3.2950    0.1201   -2.2986   N.ar      1 RES1   0.0000
    41 C32       4.1789   -0.6092   -2.9232   C.ar      1 RES1   0.0000
    42 H1        7.4716   -0.6119   -2.1123   H         1 RES1   0.0000
    43 H2        6.3941   -2.0089   -2.1100   H         1 RES1   0.0000
    44 H3        6.1149   -0.6613   -0.9970   H         1 RES1   0.0000
    45 H4        6.8279    1.5538   -3.0966   H         1 RES1   0.0000
    46 H5        5.5278    1.6236   -1.9232   H         1 RES1   0.0000
    47 H6        5.1835    1.8590   -3.6415   H         1 RES1   0.0000
    48 H7        7.1937   -0.7105   -4.4423   H         1 RES1   0.0000
    49 H8        5.8518    0.1210   -5.2068   H         1 RES1   0.0000
    50 H9        5.9701   -2.8073   -4.3579   H         1 RES1   0.0000
    51 H10       5.9071   -2.1560   -5.9966   H         1 RES1   0.0000
    52 H11       3.6785   -3.5527   -6.4871   H         1 RES1   0.0000
    53 H12       2.4248   -3.4814   -5.2551   H         1 RES1   0.0000
    54 H13       3.9737   -4.2488   -4.8958   H         1 RES1   0.0000
    55 H14       3.7555   -1.1060   -6.8769   H         1 RES1   0.0000
    56 H15       3.7326    0.0234   -5.5229   H         1 RES1   0.0000
    57 H16       2.3368   -1.0234   -5.8371   H         1 RES1   0.0000
    58 H17       1.5305   -4.3183   -1.4401   H         1 RES1   0.0000
    59 H18      -0.4290   -5.2119   -0.1625   H         1 RES1   0.0000
    60 H19      -2.2768   -3.6725    0.4465   H         1 RES1   0.0000
    61 H20      -4.0540   -2.3502    0.0146   H         1 RES1   0.0000
    62 H21      -5.7689   -0.7643   -0.7903   H         1 RES1   0.0000
    63 H22      -5.0904    1.4600   -1.6743   H         1 RES1   0.0000
    64 H23      -1.8102    0.8828   -5.1180   H         1 RES1   0.0000
    65 H24      -0.1603    0.6341   -4.4856   H         1 RES1   0.0000
    66 H25      -0.4428    1.0107   -6.2102   H         1 RES1   0.0000
    67 H26      -2.7575    3.0794   -5.4037   H         1 RES1   0.0000
    68 H27      -1.6800    3.2526   -6.7815   H         1 RES1   0.0000
    69 H28      -1.7584    4.5199   -5.5548   H         1 RES1   0.0000
    70 H29       0.6994    4.3114   -5.5176   H         1 RES1   0.0000
    71 H30       1.0434    2.7551   -6.2134   H         1 RES1   0.0000
    72 H31       2.7391    3.2699   -4.5858   H         1 RES1   0.0000
    73 H32       1.7872    1.8781   -3.9925   H         1 RES1   0.0000
    74 H33       0.7199    5.6019   -3.7741   H         1 RES1   0.0000
    75 H34       2.4795    5.4690   -3.6513   H         1 RES1   0.0000
    76 H35       1.5102    5.8071   -2.2189   H         1 RES1   0.0000
    77 H36       2.4059    2.2665   -1.5044   H         1 RES1   0.0000
    78 H37       2.1322    3.9547   -0.8641   H         1 RES1   0.0000
    79 H38       3.4176    3.6331   -2.0155   H         1 RES1   0.0000
    80 O1        0.7726    1.2282    1.4262   O.3       1 RES1   0.0000
    81 H39       0.2495    1.7830    2.0315   H         1 RES1   0.0000
    82 H40       1.3586    0.7408    2.0305   H         1 RES1   0.0000
@<TRIPOS>BOND
     1     1    11    1
     2     1    24    1
     3     1    25    1
     4     1    28    1
     5     1    37    1
     6     1    38    1
     7     1    39    1
     8     1    40    1
     9     1    80    1
    10     2     3    1
    11     2    42    1
    12     2    43    1
    13     2    44    1
    14     3     4    1
    15     3     5    1
    16     3    41    1
    17     4    45    1
    18     4    46    1
    19     4    47    1
    20     5     6    1
    21     5    48    1
    22     5    49    1
    23     6     7    1
    24     6    50    1
    25     6    51    1
    26     7     8    1
    27     7     9    1
    28     7    10    1
    29     8    52    1
    30     8    53    1
    31     8    54    1
    32     9    55    1
    33     9    56    1
    34     9    57    1
    35    10    11    1
    36    10    41    2
    37    11    12    2
    38    12    13    1
    39    12    39    1
    40    13    14    1
    41    13    38    2
    42    14    15    2
    43    14    58    1
    44    15    16    1
    45    15    59    1
    46    16    17    2
    47    16    60    1
    48    17    18    1
    49    17    38    1
    50    18    19    1
    51    18    37    2
    52    19    20    2
    53    19    61    1
    54    20    21    1
    55    20    62    1
    56    21    22    2
    57    21    63    1
    58    22    23    1
    59    22    37    1
    60    23    24    1
    61    23    28    2
    62    24    25    2
    63    25    26    1
    64    26    27    2
    65    26    34    1
    66    27    28    1
    67    27    29    1
    68    29    30    1
    69    29    31    1
    70    29    32    1
    71    30    64    1
    72    30    65    1
    73    30    66    1
    74    31    67    1
    75    31    68    1
    76    31    69    1
    77    32    33    1
    78    32    70    1
    79    32    71    1
    80    33    34    1
    81    33    72    1
    82    33    73    1
    83    34    35    1
    84    34    36    1
    85    35    74    1
    86    35    75    1
    87    35    76    1
    88    36    77    1
    89    36    78    1
    90    36    79    1
    91    39    40    2
    92    40    41    1
    93    80    81    1
    94    80    82    1
@<TRIPOS>SUBSTRUCTURE
     1 RES1       82 GROUP             0 ****  ****    0  
