@<TRIPOS>MOLECULE
cn9_YICLED_0_nunpairedes_0_charge_3 Charge: 3 Unpaired_Electrons: 3 XTB_Unpaired_Electrons: 0 XTB_Charge: 3
   205   210     1     0     0
SMALL
NoCharges
****
Generated from Architector

@<TRIPOS>ATOM
     1 Nd1       0.0604   -0.1005   -0.0070   Nd        1 RES1   0.0000
     2 C1       -3.0558    3.6022    5.1259   C.3       1 RES1   0.0000
     3 C2       -4.1212    2.5109    5.0216   C.3       1 RES1   0.0000
     4 C3       -5.0984    2.7034    3.8546   C.3       1 RES1   0.0000
     5 C4       -4.7050    2.0104    2.5482   C.3       1 RES1   0.0000
     6 C5       -3.3813    2.5184    1.9628   C.3       1 RES1   0.0000
     7 C6       -2.1205    1.8202    2.4855   C.3       1 RES1   0.0000
     8 O1       -1.9071    0.5264    1.8922   O.3       1 RES1   0.0000
     9 C7       -2.3070   -0.5552    2.7238   C.3       1 RES1   0.0000
    10 C8       -1.4509   -0.7545    3.9827   C.3       1 RES1   0.0000
    11 C9        0.0593   -0.9452    3.7092   C.3       1 RES1   0.0000
    12 C10       0.7641    0.3324    3.2321   C.2       1 RES1   0.0000
    13 O2        0.7965    0.6577    2.0294   O.2       1 RES1   0.0000
    14 N1        1.3744    1.0717    4.1581   N.am      1 RES1   0.0000
    15 C11       1.3593    0.8697    5.5935   C.3       1 RES1   0.0000
    16 C12       2.1737    2.2232    3.7460   C.3       1 RES1   0.0000
    17 C13       1.4438    3.5446    3.9822   C.3       1 RES1   0.0000
    18 C14       2.2629    4.7371    3.4897   C.3       1 RES1   0.0000
    19 C15       3.5037    4.9980    4.3359   C.3       1 RES1   0.0000
    20 C16       0.2321   -2.0898    2.7219   C.2       1 RES1   0.0000
    21 O3       -0.0708   -1.9634    1.5209   O.2       1 RES1   0.0000
    22 N2        0.6926   -3.2531    3.1943   N.am      1 RES1   0.0000
    23 C17       0.8615   -4.2808    2.1783   C.3       1 RES1   0.0000
    24 C18       0.7463   -3.7295    4.5809   C.3       1 RES1   0.0000
    25 C19       2.1363   -4.0938    5.1490   C.3       1 RES1   0.0000
    26 C20       2.7571   -3.0286    6.0641   C.3       1 RES1   0.0000
    27 C21       3.7157   -2.0963    5.3381   C.3       1 RES1   0.0000
    28 H1       -2.4316    3.4314    6.0005   H         1 RES1   0.0000
    29 H2       -2.4078    3.6636    4.2542   H         1 RES1   0.0000
    30 H3       -3.5462    4.5641    5.2405   H         1 RES1   0.0000
    31 H4       -3.6668    1.5181    4.9548   H         1 RES1   0.0000
    32 H5       -4.6893    2.5266    5.9518   H         1 RES1   0.0000
    33 H6       -6.0728    2.3127    4.1488   H         1 RES1   0.0000
    34 H7       -5.2230    3.7700    3.6646   H         1 RES1   0.0000
    35 H8       -4.6612    0.9335    2.7126   H         1 RES1   0.0000
    36 H9       -5.4995    2.1924    1.8192   H         1 RES1   0.0000
    37 H10      -3.3930    2.4275    0.8749   H         1 RES1   0.0000
    38 H11      -3.3038    3.5802    2.1965   H         1 RES1   0.0000
    39 H12      -1.2416    2.4178    2.2213   H         1 RES1   0.0000
    40 H13      -2.1715    1.7243    3.5690   H         1 RES1   0.0000
    41 H14      -3.3500   -0.4309    3.0343   H         1 RES1   0.0000
    42 H15      -2.2497   -1.4419    2.0846   H         1 RES1   0.0000
    43 H16      -1.5868    0.0651    4.6928   H         1 RES1   0.0000
    44 H17      -1.8253   -1.6561    4.4712   H         1 RES1   0.0000
    45 H18       0.5413   -1.2320    4.6369   H         1 RES1   0.0000
    46 H19       0.6013    0.1615    5.9096   H         1 RES1   0.0000
    47 H20       2.3405    0.5288    5.9351   H         1 RES1   0.0000
    48 H21       1.1430    1.8173    6.0894   H         1 RES1   0.0000
    49 H22       3.1087    2.1863    4.3106   H         1 RES1   0.0000
    50 H23       2.3805    2.0972    2.6806   H         1 RES1   0.0000
    51 H24       0.4924    3.4986    3.4455   H         1 RES1   0.0000
    52 H25       1.2357    3.6761    5.0460   H         1 RES1   0.0000
    53 H26       2.5492    4.5749    2.4482   H         1 RES1   0.0000
    54 H27       1.6238    5.6177    3.5233   H         1 RES1   0.0000
    55 H28       4.2263    4.1926    4.2383   H         1 RES1   0.0000
    56 H29       3.9860    5.9183    4.0194   H         1 RES1   0.0000
    57 H30       3.2358    5.1029    5.3843   H         1 RES1   0.0000
    58 H31       1.5425   -3.9175    1.4078   H         1 RES1   0.0000
    59 H32       1.2539   -5.1840    2.6313   H         1 RES1   0.0000
    60 H33      -0.0983   -4.5079    1.7089   H         1 RES1   0.0000
    61 H34       0.2771   -3.0065    5.2488   H         1 RES1   0.0000
    62 H35       0.1253   -4.6307    4.5971   H         1 RES1   0.0000
    63 H36       2.0015   -4.9994    5.7392   H         1 RES1   0.0000
    64 H37       2.8365   -4.3529    4.3535   H         1 RES1   0.0000
    65 H38       1.9675   -2.4550    6.5534   H         1 RES1   0.0000
    66 H39       3.2983   -3.5345    6.8627   H         1 RES1   0.0000
    67 H40       3.1948   -1.4980    4.5922   H         1 RES1   0.0000
    68 H41       4.2026   -1.4356    6.0483   H         1 RES1   0.0000
    69 H42       4.4915   -2.6782    4.8481   H         1 RES1   0.0000
    70 C22      -4.8563   -3.9083   -3.3676   C.3       1 RES1   0.0000
    71 C23      -5.5950   -3.1545   -2.2639   C.3       1 RES1   0.0000
    72 C24      -5.4038   -3.7938   -0.8811   C.3       1 RES1   0.0000
    73 C25      -4.3164   -3.1939    0.0202   C.3       1 RES1   0.0000
    74 C26      -2.8891   -3.1896   -0.5488   C.3       1 RES1   0.0000
    75 C27      -2.5191   -2.0264   -1.4812   C.3       1 RES1   0.0000
    76 O4       -2.3452   -0.7789   -0.7805   O.3       1 RES1   0.0000
    77 C28      -3.4694    0.0973   -0.8233   C.3       1 RES1   0.0000
    78 C29      -3.5595    1.0660   -2.0197   C.3       1 RES1   0.0000
    79 C30      -2.3442    1.9821   -2.3100   C.3       1 RES1   0.0000
    80 C31      -1.2371    1.1937   -3.0133   C.2       1 RES1   0.0000
    81 O5       -0.4807    0.4482   -2.3699   O.2       1 RES1   0.0000
    82 N3       -1.0792    1.3903   -4.3246   N.am      1 RES1   0.0000
    83 C32      -2.0011    2.0621   -5.2203   C.3       1 RES1   0.0000
    84 C33       0.1801    0.9816   -4.9380   C.3       1 RES1   0.0000
    85 C34       0.0227    0.0510   -6.1350   C.3       1 RES1   0.0000
    86 C35       1.3519   -0.6368   -6.4554   C.3       1 RES1   0.0000
    87 C36       2.2284    0.2160   -7.3618   C.3       1 RES1   0.0000
    88 C37      -1.7049    2.6601   -1.0874   C.2       1 RES1   0.0000
    89 O6       -0.9313    2.0071   -0.3578   O.2       1 RES1   0.0000
    90 N4       -1.9215    3.9632   -0.8780   N.am      1 RES1   0.0000
    91 C38      -1.1912    4.6144    0.2003   C.3       1 RES1   0.0000
    92 C39      -2.9869    4.7939   -1.4396   C.3       1 RES1   0.0000
    93 C40      -2.5508    6.1310   -2.0596   C.3       1 RES1   0.0000
    94 C41      -1.6025    6.0266   -3.2575   C.3       1 RES1   0.0000
    95 C42      -0.1402    6.1589   -2.8578   C.3       1 RES1   0.0000
    96 H43      -4.8784   -3.3499   -4.3015   H         1 RES1   0.0000
    97 H44      -3.8211   -4.1078   -3.1005   H         1 RES1   0.0000
    98 H45      -5.3380   -4.8664   -3.5393   H         1 RES1   0.0000
    99 H46      -5.2950   -2.1035   -2.2427   H         1 RES1   0.0000
   100 H47      -6.6567   -3.1630   -2.5099   H         1 RES1   0.0000
   101 H48      -6.3405   -3.7164   -0.3275   H         1 RES1   0.0000
   102 H49      -5.2001   -4.8573   -1.0115   H         1 RES1   0.0000
   103 H50      -4.5971   -2.1827    0.3163   H         1 RES1   0.0000
   104 H51      -4.3079   -3.7969    0.9336   H         1 RES1   0.0000
   105 H52      -2.1725   -3.1633    0.2806   H         1 RES1   0.0000
   106 H53      -2.7362   -4.1273   -1.0886   H         1 RES1   0.0000
   107 H54      -1.5364   -2.2387   -1.9138   H         1 RES1   0.0000
   108 H55      -3.2571   -1.9221   -2.2782   H         1 RES1   0.0000
   109 H56      -4.3991   -0.4835   -0.8087   H         1 RES1   0.0000
   110 H57      -3.4135    0.6699    0.1044   H         1 RES1   0.0000
   111 H58      -3.8028    0.5242   -2.9405   H         1 RES1   0.0000
   112 H59      -4.4180    1.7042   -1.8031   H         1 RES1   0.0000
   113 H60      -2.6720    2.7595   -2.9949   H         1 RES1   0.0000
   114 H61      -2.9923    2.1622   -4.7883   H         1 RES1   0.0000
   115 H62      -1.6190    3.0456   -5.5066   H         1 RES1   0.0000
   116 H63      -2.1087    1.4749   -6.1333   H         1 RES1   0.0000
   117 H64       0.7077    1.8990   -5.2199   H         1 RES1   0.0000
   118 H65       0.7362    0.4702   -4.1490   H         1 RES1   0.0000
   119 H66      -0.7392   -0.6878   -5.8874   H         1 RES1   0.0000
   120 H67      -0.3006    0.6021   -7.0179   H         1 RES1   0.0000
   121 H68       1.8803   -0.8610   -5.5238   H         1 RES1   0.0000
   122 H69       1.1449   -1.5804   -6.9571   H         1 RES1   0.0000
   123 H70       2.3933    1.2001   -6.9332   H         1 RES1   0.0000
   124 H71       3.1904   -0.2623   -7.5260   H         1 RES1   0.0000
   125 H72       1.7462    0.3423   -8.3264   H         1 RES1   0.0000
   126 H73      -0.4371    3.9266    0.5783   H         1 RES1   0.0000
   127 H74      -0.7136    5.5219   -0.1654   H         1 RES1   0.0000
   128 H75      -1.8699    4.8986    1.0042   H         1 RES1   0.0000
   129 H76      -3.5442    4.2198   -2.1786   H         1 RES1   0.0000
   130 H77      -3.6711    5.0275   -0.6146   H         1 RES1   0.0000
   131 H78      -3.4745    6.6174   -2.3724   H         1 RES1   0.0000
   132 H79      -2.1141    6.7804   -1.3014   H         1 RES1   0.0000
   133 H80      -1.7670    5.0796   -3.7761   H         1 RES1   0.0000
   134 H81      -1.8397    6.8260   -3.9579   H         1 RES1   0.0000
   135 H82       0.1398    5.3925   -2.1422   H         1 RES1   0.0000
   136 H83       0.4979    6.0793   -3.7329   H         1 RES1   0.0000
   137 H84       0.0386    7.1319   -2.4099   H         1 RES1   0.0000
   138 C43       3.8279    2.5484   -4.9161   C.3       1 RES1   0.0000
   139 C44       4.7748    2.9488   -3.7886   C.3       1 RES1   0.0000
   140 C45       4.4166    4.2905   -3.1295   C.3       1 RES1   0.0000
   141 C46       3.7847    4.1924   -1.7360   C.3       1 RES1   0.0000
   142 C47       2.3121    3.7610   -1.7400   C.3       1 RES1   0.0000
   143 C48       1.9438    2.2962   -2.0201   C.3       1 RES1   0.0000
   144 O7        2.0320    1.3794   -0.9121   O.3       1 RES1   0.0000
   145 C49       3.3416    0.8203   -0.8164   C.3       1 RES1   0.0000
   146 C50       3.6391   -0.3313   -1.7997   C.3       1 RES1   0.0000
   147 C51       3.2270   -1.7837   -1.4223   C.3       1 RES1   0.0000
   148 C52       1.8733   -2.2182   -1.9679   C.2       1 RES1   0.0000
   149 O8        0.8380   -1.7090   -1.5037   O.2       1 RES1   0.0000
   150 N5        1.8156   -3.2257   -2.8389   N.am      1 RES1   0.0000
   151 C53       2.9032   -3.8450   -3.5694   C.3       1 RES1   0.0000
   152 C54       0.4898   -3.7206   -3.2091   C.3       1 RES1   0.0000
   153 C55      -0.0885   -2.8570   -4.3262   C.3       1 RES1   0.0000
   154 C56      -1.4722   -3.2857   -4.8052   C.3       1 RES1   0.0000
   155 C57      -1.5289   -4.6803   -5.4155   C.3       1 RES1   0.0000
   156 C58       3.1087   -1.9375    0.0867   C.2       1 RES1   0.0000
   157 O9        2.2970   -1.2166    0.6932   O.2       1 RES1   0.0000
   158 N6        3.8966   -2.7998    0.7369   N.am      1 RES1   0.0000
   159 C59       3.9623   -2.6588    2.1786   C.3       1 RES1   0.0000
   160 C60       4.8355   -3.7839    0.2156   C.3       1 RES1   0.0000
   161 C61       4.5219   -5.2515    0.5841   C.3       1 RES1   0.0000
   162 C62       3.8325   -6.0417   -0.5297   C.3       1 RES1   0.0000
   163 C63       2.3271   -5.8149   -0.5678   C.3       1 RES1   0.0000
   164 H85       4.0756    1.5513   -5.2750   H         1 RES1   0.0000
   165 H86       2.7831    2.5668   -4.6097   H         1 RES1   0.0000
   166 H87       3.9337    3.2466   -5.7402   H         1 RES1   0.0000
   167 H88       4.8199    2.1625   -3.0321   H         1 RES1   0.0000
   168 H89       5.7748    3.0161   -4.2142   H         1 RES1   0.0000
   169 H90       5.3259    4.8809   -3.0257   H         1 RES1   0.0000
   170 H91       3.7479    4.8556   -3.7827   H         1 RES1   0.0000
   171 H92       4.3909    3.5514   -1.0937   H         1 RES1   0.0000
   172 H93       3.8106    5.1934   -1.2931   H         1 RES1   0.0000
   173 H94       1.8506    4.0520   -0.7940   H         1 RES1   0.0000
   174 H95       1.8384    4.3465   -2.5309   H         1 RES1   0.0000
   175 H96       0.8943    2.2890   -2.3166   H         1 RES1   0.0000
   176 H97       2.5439    1.9090   -2.8411   H         1 RES1   0.0000
   177 H98       4.0745    1.6082   -1.0103   H         1 RES1   0.0000
   178 H99       3.4685    0.5060    0.2220   H         1 RES1   0.0000
   179 H100      3.2320   -0.0934   -2.7865   H         1 RES1   0.0000
   180 H101      4.7234   -0.3427   -1.9142   H         1 RES1   0.0000
   181 H102      3.9996   -2.4354   -1.8073   H         1 RES1   0.0000
   182 H103      3.8602   -3.3600   -3.3946   H         1 RES1   0.0000
   183 H104      2.9750   -4.9006   -3.2958   H         1 RES1   0.0000
   184 H105      2.6979   -3.8010   -4.6416   H         1 RES1   0.0000
   185 H106      0.6031   -4.7542   -3.5331   H         1 RES1   0.0000
   186 H107     -0.1258   -3.6844   -2.3059   H         1 RES1   0.0000
   187 H108     -0.1422   -1.8328   -3.9495   H         1 RES1   0.0000
   188 H109      0.6037   -2.8896   -5.1686   H         1 RES1   0.0000
   189 H110     -2.1764   -3.2286   -3.9773   H         1 RES1   0.0000
   190 H111     -1.7933   -2.5679   -5.5615   H         1 RES1   0.0000
   191 H112     -1.3773   -5.4538   -4.6675   H         1 RES1   0.0000
   192 H113     -2.5089   -4.8412   -5.8569   H         1 RES1   0.0000
   193 H114     -0.7822   -4.7958   -6.1969   H         1 RES1   0.0000
   194 H115      3.2060   -1.9388    2.4843   H         1 RES1   0.0000
   195 H116      3.7877   -3.6155    2.6642   H         1 RES1   0.0000
   196 H117      4.9531   -2.3004    2.4690   H         1 RES1   0.0000
   197 H118      4.8898   -3.7131   -0.8679   H         1 RES1   0.0000
   198 H119      5.8162   -3.5234    0.6284   H         1 RES1   0.0000
   199 H120      5.4755   -5.7300    0.8058   H         1 RES1   0.0000
   200 H121      3.9162   -5.3156    1.4886   H         1 RES1   0.0000
   201 H122      4.2901   -5.7918   -1.4888   H         1 RES1   0.0000
   202 H123      4.0224   -7.1003   -0.3606   H         1 RES1   0.0000
   203 H124      2.0849   -4.7595   -0.6791   H         1 RES1   0.0000
   204 H125      1.8833   -6.3639   -1.3920   H         1 RES1   0.0000
   205 H126      1.8754   -6.1791    0.3507   H         1 RES1   0.0000
@<TRIPOS>BOND
     1     1     8    1
     2     1    13    1
     3     1    21    1
     4     1    76    1
     5     1    81    1
     6     1    89    1
     7     1   144    1
     8     1   149    1
     9     1   157    1
    10     2     3    1
    11     2    28    1
    12     2    29    1
    13     2    30    1
    14     3     4    1
    15     3    31    1
    16     3    32    1
    17     4     5    1
    18     4    33    1
    19     4    34    1
    20     5     6    1
    21     5    35    1
    22     5    36    1
    23     6     7    1
    24     6    37    1
    25     6    38    1
    26     7     8    1
    27     7    39    1
    28     7    40    1
    29     8     9    1
    30     9    10    1
    31     9    41    1
    32     9    42    1
    33    10    11    1
    34    10    43    1
    35    10    44    1
    36    11    12    1
    37    11    20    1
    38    11    45    1
    39    12    13    2
    40    12    14    1
    41    14    15    1
    42    14    16    1
    43    15    46    1
    44    15    47    1
    45    15    48    1
    46    16    17    1
    47    16    49    1
    48    16    50    1
    49    17    18    1
    50    17    51    1
    51    17    52    1
    52    18    19    1
    53    18    53    1
    54    18    54    1
    55    19    55    1
    56    19    56    1
    57    19    57    1
    58    20    21    2
    59    20    22    1
    60    22    23    1
    61    22    24    1
    62    23    58    1
    63    23    59    1
    64    23    60    1
    65    24    25    1
    66    24    61    1
    67    24    62    1
    68    25    26    1
    69    25    63    1
    70    25    64    1
    71    26    27    1
    72    26    65    1
    73    26    66    1
    74    27    67    1
    75    27    68    1
    76    27    69    1
    77    70    71    1
    78    70    96    1
    79    70    97    1
    80    70    98    1
    81    71    72    1
    82    71    99    1
    83    71   100    1
    84    72    73    1
    85    72   101    1
    86    72   102    1
    87    73    74    1
    88    73   103    1
    89    73   104    1
    90    74    75    1
    91    74   105    1
    92    74   106    1
    93    75    76    1
    94    75   107    1
    95    75   108    1
    96    76    77    1
    97    77    78    1
    98    77   109    1
    99    77   110    1
   100    78    79    1
   101    78   111    1
   102    78   112    1
   103    79    80    1
   104    79    88    1
   105    79   113    1
   106    80    81    2
   107    80    82    1
   108    82    83    1
   109    82    84    1
   110    83   114    1
   111    83   115    1
   112    83   116    1
   113    84    85    1
   114    84   117    1
   115    84   118    1
   116    85    86    1
   117    85   119    1
   118    85   120    1
   119    86    87    1
   120    86   121    1
   121    86   122    1
   122    87   123    1
   123    87   124    1
   124    87   125    1
   125    88    89    2
   126    88    90    1
   127    90    91    1
   128    90    92    1
   129    91   126    1
   130    91   127    1
   131    91   128    1
   132    92    93    1
   133    92   129    1
   134    92   130    1
   135    93    94    1
   136    93   131    1
   137    93   132    1
   138    94    95    1
   139    94   133    1
   140    94   134    1
   141    95   135    1
   142    95   136    1
   143    95   137    1
   144   138   139    1
   145   138   164    1
   146   138   165    1
   147   138   166    1
   148   139   140    1
   149   139   167    1
   150   139   168    1
   151   140   141    1
   152   140   169    1
   153   140   170    1
   154   141   142    1
   155   141   171    1
   156   141   172    1
   157   142   143    1
   158   142   173    1
   159   142   174    1
   160   143   144    1
   161   143   175    1
   162   143   176    1
   163   144   145    1
   164   145   146    1
   165   145   177    1
   166   145   178    1
   167   146   147    1
   168   146   179    1
   169   146   180    1
   170   147   148    1
   171   147   156    1
   172   147   181    1
   173   148   149    2
   174   148   150    1
   175   150   151    1
   176   150   152    1
   177   151   182    1
   178   151   183    1
   179   151   184    1
   180   152   153    1
   181   152   185    1
   182   152   186    1
   183   153   154    1
   184   153   187    1
   185   153   188    1
   186   154   155    1
   187   154   189    1
   188   154   190    1
   189   155   191    1
   190   155   192    1
   191   155   193    1
   192   156   157    2
   193   156   158    1
   194   158   159    1
   195   158   160    1
   196   159   194    1
   197   159   195    1
   198   159   196    1
   199   160   161    1
   200   160   197    1
   201   160   198    1
   202   161   162    1
   203   161   199    1
   204   161   200    1
   205   162   163    1
   206   162   201    1
   207   162   202    1
   208   163   203    1
   209   163   204    1
   210   163   205    1
@<TRIPOS>SUBSTRUCTURE
     1 RES1      205 GROUP             0 ****  ****    0  
