@<TRIPOS>MOLECULE
am_c3_9H2O_c0_0_nunpairedes_0_charge_3 Charge: 3 Unpaired_Electrons: 3 XTB_Unpaired_Electrons: 0 XTB_Charge: 3
    64    69     1     0     0
SMALL
NoCharges
****
Generated from Architector

@<TRIPOS>ATOM
     1 Nd1       0.0399   -0.0667    0.1317   Nd        1 RES1   0.0000
     2 C1       -1.5149   -2.3219    1.8067   C.3       1 RES1   0.0000
     3 O1       -0.1520   -2.0387    1.4173   O.3       1 RES1   0.0000
     4 C2        0.5438   -3.2823    1.1934   C.3       1 RES1   0.0000
     5 C3        1.6242   -3.2138    0.1014   C.3       1 RES1   0.0000
     6 N1        1.3726   -2.3191   -1.0476   N.am      1 RES1   0.0000
     7 C4        2.5824   -2.0002   -1.8134   C.3       1 RES1   0.0000
     8 C5        2.6856   -0.5090   -2.1858   C.3       1 RES1   0.0000
     9 O2        2.1941    0.2985   -1.0982   O.3       1 RES1   0.0000
    10 C6        3.0545    1.4196   -0.8407   C.3       1 RES1   0.0000
    11 C7        0.1267   -2.2960   -1.6181   C.2       1 RES1   0.0000
    12 O3       -0.8740   -2.5895   -0.9890   O.2       1 RES1   0.0000
    13 C8       -0.0608   -1.6763   -3.0042   C.3       1 RES1   0.0000
    14 O4       -0.3007   -0.2787   -2.7398   O.3       1 RES1   0.0000
    15 C9       -1.6510    0.1786   -2.8822   C.3       1 RES1   0.0000
    16 C10      -2.0915    0.6645   -1.4987   C.2       1 RES1   0.0000
    17 O5       -2.0655   -0.2018   -0.6016   O.2       1 RES1   0.0000
    18 N2       -2.4237    1.9311   -1.2828   N.am      1 RES1   0.0000
    19 C11      -1.8629    2.9819   -2.1297   C.3       1 RES1   0.0000
    20 C12      -0.3205    2.8644   -2.0886   C.3       1 RES1   0.0000
    21 O6        0.1550    2.5437   -0.7779   O.3       1 RES1   0.0000
    22 C13       0.2657    3.7081    0.0661   C.3       1 RES1   0.0000
    23 C14      -3.1082    2.3953   -0.0664   C.3       1 RES1   0.0000
    24 C15      -3.1082    1.4990    1.1716   C.3       1 RES1   0.0000
    25 O7       -1.7764    1.1472    1.6031   O.3       1 RES1   0.0000
    26 C16      -1.7868    0.8622    3.0151   C.3       1 RES1   0.0000
    27 H1       -1.5446   -2.7301    2.8218   H         1 RES1   0.0000
    28 H2       -1.9609   -3.0426    1.1220   H         1 RES1   0.0000
    29 H3       -2.0986   -1.4036    1.7483   H         1 RES1   0.0000
    30 H4       -0.1951   -4.0418    0.9188   H         1 RES1   0.0000
    31 H5        1.0316   -3.5924    2.1288   H         1 RES1   0.0000
    32 H6        1.7681   -4.2414   -0.2549   H         1 RES1   0.0000
    33 H7        2.5628   -2.8856    0.5441   H         1 RES1   0.0000
    34 H8        2.6641   -2.6240   -2.7100   H         1 RES1   0.0000
    35 H9        3.4251   -2.2422   -1.1630   H         1 RES1   0.0000
    36 H10       2.1334   -0.2505   -3.0977   H         1 RES1   0.0000
    37 H11       3.7456   -0.2986   -2.3656   H         1 RES1   0.0000
    38 H12       4.0891    1.0996   -0.6865   H         1 RES1   0.0000
    39 H13       2.6864    1.9053    0.0627   H         1 RES1   0.0000
    40 H14       3.0392    2.1305   -1.6696   H         1 RES1   0.0000
    41 H15      -0.9352   -2.1631   -3.4532   H         1 RES1   0.0000
    42 H16       0.7800   -1.7773   -3.6930   H         1 RES1   0.0000
    43 H17      -2.3340   -0.6443   -3.1300   H         1 RES1   0.0000
    44 H18      -1.7067    0.9223   -3.6792   H         1 RES1   0.0000
    45 H19      -2.1842    3.9450   -1.7267   H         1 RES1   0.0000
    46 H20      -2.2206    2.9330   -3.1594   H         1 RES1   0.0000
    47 H21       0.1156    3.8015   -2.4464   H         1 RES1   0.0000
    48 H22       0.0415    2.0567   -2.7316   H         1 RES1   0.0000
    49 H23       0.2349    4.6282   -0.5178   H         1 RES1   0.0000
    50 H24       1.2314    3.6768    0.5718   H         1 RES1   0.0000
    51 H25      -0.5383    3.7380    0.8045   H         1 RES1   0.0000
    52 H26      -4.1600    2.5606   -0.3280   H         1 RES1   0.0000
    53 H27      -2.6751    3.3585    0.2055   H         1 RES1   0.0000
    54 H28      -3.6983    0.5870    1.0102   H         1 RES1   0.0000
    55 H29      -3.5865    2.0912    1.9652   H         1 RES1   0.0000
    56 H30      -1.7429    1.7938    3.5870   H         1 RES1   0.0000
    57 H31      -0.9230    0.2337    3.2486   H         1 RES1   0.0000
    58 H32      -2.7004    0.3364    3.3018   H         1 RES1   0.0000
    59 O8        2.2967   -0.6403    1.5215   O.3       1 RES1   0.0000
    60 H33       2.4107   -1.0788    2.3743   H         1 RES1   0.0000
    61 H34       3.1773   -0.3131    1.2818   H         1 RES1   0.0000
    62 O9        0.9605    1.5731    2.0342   O.3       1 RES1   0.0000
    63 H35       0.4954    2.3588    2.3536   H         1 RES1   0.0000
    64 H36       1.6092    1.3823    2.7263   H         1 RES1   0.0000
@<TRIPOS>BOND
     1     1     3    1
     2     1     9    1
     3     1    12    1
     4     1    14    1
     5     1    17    1
     6     1    21    1
     7     1    25    1
     8     1    59    1
     9     1    62    1
    10     2     3    1
    11     2    27    1
    12     2    28    1
    13     2    29    1
    14     3     4    1
    15     4     5    1
    16     4    30    1
    17     4    31    1
    18     5     6    1
    19     5    32    1
    20     5    33    1
    21     6     7    1
    22     6    11    1
    23     7     8    1
    24     7    34    1
    25     7    35    1
    26     8     9    1
    27     8    36    1
    28     8    37    1
    29     9    10    1
    30    10    38    1
    31    10    39    1
    32    10    40    1
    33    11    12    2
    34    11    13    1
    35    13    14    1
    36    13    41    1
    37    13    42    1
    38    14    15    1
    39    15    16    1
    40    15    43    1
    41    15    44    1
    42    16    17    2
    43    16    18    1
    44    18    19    1
    45    18    23    1
    46    19    20    1
    47    19    45    1
    48    19    46    1
    49    20    21    1
    50    20    47    1
    51    20    48    1
    52    21    22    1
    53    22    49    1
    54    22    50    1
    55    22    51    1
    56    23    24    1
    57    23    52    1
    58    23    53    1
    59    24    25    1
    60    24    54    1
    61    24    55    1
    62    25    26    1
    63    26    56    1
    64    26    57    1
    65    26    58    1
    66    59    60    1
    67    59    61    1
    68    62    63    1
    69    62    64    1
@<TRIPOS>SUBSTRUCTURE
     1 RES1       64 GROUP             0 ****  ****    0  
