@<TRIPOS>MOLECULE
am_c3_9H2O_c0_0_nunpairedes_0_charge_3 Charge: 3 Unpaired_Electrons: 3 XTB_Unpaired_Electrons: 0 XTB_Charge: 3
   358   363     1     0     0
SMALL
NoCharges
****
Generated from Architector

@<TRIPOS>ATOM
     1 Nd1      -0.1100    0.0528    0.1421   Nd        1 RES1   0.0000
     2 C1       -6.6167   -0.0453   -9.1541   C.3       1 RES1   0.0000
     3 C2       -6.8110   -1.4149   -8.5200   C.3       1 RES1   0.0000
     4 C3       -7.1662   -1.3391   -7.0326   C.3       1 RES1   0.0000
     5 C4       -6.9757   -2.7028   -6.3618   C.3       1 RES1   0.0000
     6 C5       -7.5121   -2.7983   -4.9277   C.3       1 RES1   0.0000
     7 C6       -6.6332   -2.1791   -3.8364   C.3       1 RES1   0.0000
     8 C7       -5.2738   -2.8698   -3.6989   C.3       1 RES1   0.0000
     9 C8       -4.6290   -2.7604   -2.3006   C.3       1 RES1   0.0000
    10 N1       -3.2546   -2.2541   -2.2664   N.am      1 RES1   0.0000
    11 C9       -2.1799   -3.1673   -2.6709   C.3       1 RES1   0.0000
    12 C10      -2.4512   -4.1233   -3.8247   C.3       1 RES1   0.0000
    13 C11      -1.1974   -4.9618   -4.1154   C.3       1 RES1   0.0000
    14 C12      -0.2611   -4.4093   -5.2057   C.3       1 RES1   0.0000
    15 C13       0.1266   -2.9242   -5.1249   C.3       1 RES1   0.0000
    16 C14       1.3806   -2.6245   -5.9681   C.3       1 RES1   0.0000
    17 C15       1.2924   -1.3068   -6.7430   C.3       1 RES1   0.0000
    18 C16       2.6221   -0.8517   -7.3404   C.3       1 RES1   0.0000
    19 C17      -2.8540   -1.2056   -1.5448   C.2       1 RES1   0.0000
    20 O1       -1.6508   -0.9805   -1.2961   O.2       1 RES1   0.0000
    21 C18      -3.9130   -0.2611   -0.9688   C.3       1 RES1   0.0000
    22 C19      -4.8319    0.3133   -2.0551   C.3       1 RES1   0.0000
    23 O2       -3.2161    0.7531   -0.2474   O.3       1 RES1   0.0000
    24 C20      -3.9760    1.3117    0.8249   C.3       1 RES1   0.0000
    25 C21      -4.6895    2.6096    0.4289   C.3       1 RES1   0.0000
    26 C22      -3.0185    1.2955    2.0424   C.2       1 RES1   0.0000
    27 O3       -1.8847    0.7887    1.8794   O.2       1 RES1   0.0000
    28 N2       -3.5086    1.6172    3.2440   N.am      1 RES1   0.0000
    29 C23      -4.5717    2.6239    3.4131   C.3       1 RES1   0.0000
    30 C24      -4.8617    3.2345    4.8087   C.3       1 RES1   0.0000
    31 C25      -4.8697    4.7743    4.7742   C.3       1 RES1   0.0000
    32 C26      -3.6227    5.3674    5.4268   C.3       1 RES1   0.0000
    33 C27      -3.5317    6.8667    5.1644   C.3       1 RES1   0.0000
    34 C28      -2.1933    7.4583    5.6184   C.3       1 RES1   0.0000
    35 C29      -1.7553    8.6746    4.7895   C.3       1 RES1   0.0000
    36 C30      -0.2370    8.7494    4.6675   C.3       1 RES1   0.0000
    37 C31      -2.9526    1.0462    4.4577   C.3       1 RES1   0.0000
    38 C32      -2.6099   -0.4375    4.3873   C.3       1 RES1   0.0000
    39 C33      -3.7819   -1.3695    4.7087   C.3       1 RES1   0.0000
    40 C34      -4.8968   -1.3796    3.6616   C.3       1 RES1   0.0000
    41 C35      -4.5467   -1.9832    2.2928   C.3       1 RES1   0.0000
    42 C36      -4.1404   -3.4589    2.2925   C.3       1 RES1   0.0000
    43 C37      -4.0344   -4.0052    0.8626   C.3       1 RES1   0.0000
    44 C38      -3.8428   -5.5168    0.8086   C.3       1 RES1   0.0000
    45 H1       -6.5173   -0.1389  -10.2320   H         1 RES1   0.0000
    46 H2       -5.7188    0.4408   -8.7729   H         1 RES1   0.0000
    47 H3       -7.4678    0.5975   -8.9473   H         1 RES1   0.0000
    48 H4       -5.8954   -1.9986   -8.6423   H         1 RES1   0.0000
    49 H5       -7.6047   -1.9485   -9.0438   H         1 RES1   0.0000
    50 H6       -8.2053   -1.0206   -6.9218   H         1 RES1   0.0000
    51 H7       -6.5409   -0.5867   -6.5448   H         1 RES1   0.0000
    52 H8       -5.9162   -2.9730   -6.3796   H         1 RES1   0.0000
    53 H9       -7.5012   -3.4443   -6.9695   H         1 RES1   0.0000
    54 H10      -7.6640   -3.8527   -4.6802   H         1 RES1   0.0000
    55 H11      -8.4914   -2.3143   -4.8934   H         1 RES1   0.0000
    56 H12      -7.1940   -2.2728   -2.9051   H         1 RES1   0.0000
    57 H13      -6.4972   -1.1186   -4.0427   H         1 RES1   0.0000
    58 H14      -4.6029   -2.4675   -4.4471   H         1 RES1   0.0000
    59 H15      -5.4190   -3.9258   -3.9100   H         1 RES1   0.0000
    60 H16      -4.5858   -3.7552   -1.8487   H         1 RES1   0.0000
    61 H17      -5.2586   -2.1497   -1.6555   H         1 RES1   0.0000
    62 H18      -1.9098   -3.7616   -1.7899   H         1 RES1   0.0000
    63 H19      -1.3251   -2.5397   -2.9219   H         1 RES1   0.0000
    64 H20      -2.7130   -3.5934   -4.7357   H         1 RES1   0.0000
    65 H21      -3.2647   -4.8002   -3.5743   H         1 RES1   0.0000
    66 H22      -1.5062   -5.9569   -4.4459   H         1 RES1   0.0000
    67 H23      -0.6399   -5.1041   -3.1838   H         1 RES1   0.0000
    68 H24      -0.7240   -4.5740   -6.1826   H         1 RES1   0.0000
    69 H25       0.6441   -5.0243   -5.1796   H         1 RES1   0.0000
    70 H26       0.3249   -2.6247   -4.0931   H         1 RES1   0.0000
    71 H27      -0.7083   -2.3239   -5.4891   H         1 RES1   0.0000
    72 H28       1.5452   -3.4319   -6.6839   H         1 RES1   0.0000
    73 H29       2.2487   -2.5945   -5.3056   H         1 RES1   0.0000
    74 H30       0.9001   -0.5192   -6.0920   H         1 RES1   0.0000
    75 H31       0.5844   -1.4386   -7.5622   H         1 RES1   0.0000
    76 H32       3.3468   -0.6059   -6.5632   H         1 RES1   0.0000
    77 H33       2.4673    0.0302   -7.9572   H         1 RES1   0.0000
    78 H34       3.0461   -1.6191   -7.9818   H         1 RES1   0.0000
    79 H35      -4.5086   -0.8585   -0.2553   H         1 RES1   0.0000
    80 H36      -4.4981    1.3134   -2.3121   H         1 RES1   0.0000
    81 H37      -5.8623    0.3604   -1.7118   H         1 RES1   0.0000
    82 H38      -4.7882   -0.2952   -2.9512   H         1 RES1   0.0000
    83 H39      -4.7597    0.5910    1.1196   H         1 RES1   0.0000
    84 H40      -4.0181    3.4579    0.4735   H         1 RES1   0.0000
    85 H41      -5.5506    2.7806    1.0688   H         1 RES1   0.0000
    86 H42      -5.0584    2.5318   -0.5880   H         1 RES1   0.0000
    87 H43      -5.5046    2.1955    3.0424   H         1 RES1   0.0000
    88 H44      -4.2953    3.4587    2.7671   H         1 RES1   0.0000
    89 H45      -4.1446    2.9537    5.5737   H         1 RES1   0.0000
    90 H46      -5.8327    2.8813    5.1497   H         1 RES1   0.0000
    91 H47      -5.7507    5.1585    5.2877   H         1 RES1   0.0000
    92 H48      -4.9372    5.1288    3.7419   H         1 RES1   0.0000
    93 H49      -2.7334    4.8811    5.0157   H         1 RES1   0.0000
    94 H50      -3.6372    5.1642    6.4969   H         1 RES1   0.0000
    95 H51      -4.3577    7.3826    5.6504   H         1 RES1   0.0000
    96 H52      -3.6376    7.0303    4.0877   H         1 RES1   0.0000
    97 H53      -1.4254    6.6816    5.5409   H         1 RES1   0.0000
    98 H54      -2.2487    7.7349    6.6719   H         1 RES1   0.0000
    99 H55      -2.1334    9.5906    5.2383   H         1 RES1   0.0000
   100 H56      -2.1837    8.6154    3.7870   H         1 RES1   0.0000
   101 H57       0.2370    8.6298    5.6379   H         1 RES1   0.0000
   102 H58       0.0755    9.7092    4.2646   H         1 RES1   0.0000
   103 H59       0.1185    7.9594    4.0064   H         1 RES1   0.0000
   104 H60      -3.7174    1.1585    5.2226   H         1 RES1   0.0000
   105 H61      -2.0728    1.6189    4.7390   H         1 RES1   0.0000
   106 H62      -1.8518   -0.5830    5.1563   H         1 RES1   0.0000
   107 H63      -2.1853   -0.6842    3.4143   H         1 RES1   0.0000
   108 H64      -4.2200   -1.0580    5.6610   H         1 RES1   0.0000
   109 H65      -3.4040   -2.3859    4.8429   H         1 RES1   0.0000
   110 H66      -5.2174   -0.3465    3.5011   H         1 RES1   0.0000
   111 H67      -5.7534   -1.9204    4.0732   H         1 RES1   0.0000
   112 H68      -3.7403   -1.4078    1.8196   H         1 RES1   0.0000
   113 H69      -5.4501   -1.8827    1.6789   H         1 RES1   0.0000
   114 H70      -4.8901   -4.0335    2.8388   H         1 RES1   0.0000
   115 H71      -3.1810   -3.5728    2.7955   H         1 RES1   0.0000
   116 H72      -3.1984   -3.5146    0.3453   H         1 RES1   0.0000
   117 H73      -4.9624   -3.7605    0.3370   H         1 RES1   0.0000
   118 H74      -2.8679   -5.8048    1.1944   H         1 RES1   0.0000
   119 H75      -4.6046   -6.0221    1.3942   H         1 RES1   0.0000
   120 H76      -3.9283   -5.8860   -0.2100   H         1 RES1   0.0000
   121 C39       2.5334    6.4781   -9.1459   C.3       1 RES1   0.0000
   122 C40       1.2583    7.0244   -8.5135   C.3       1 RES1   0.0000
   123 C41       1.3683    7.2206   -7.0035   C.3       1 RES1   0.0000
   124 C42       0.0013    7.5526   -6.4101   C.3       1 RES1   0.0000
   125 C43       0.0348    7.9713   -4.9399   C.3       1 RES1   0.0000
   126 C44       0.3510    6.8546   -3.9400   C.3       1 RES1   0.0000
   127 C45      -0.7788    5.8324   -3.7427   C.3       1 RES1   0.0000
   128 C46      -0.7444    5.2262   -2.3282   C.3       1 RES1   0.0000
   129 N3       -0.8329    3.7736   -2.2734   N.am      1 RES1   0.0000
   130 C47      -2.0811    3.2099   -2.7910   C.3       1 RES1   0.0000
   131 C48      -1.9005    2.3930   -4.0758   C.3       1 RES1   0.0000
   132 C49      -3.2254    2.2860   -4.8380   C.3       1 RES1   0.0000
   133 C50      -3.2366    1.2658   -5.9813   C.3       1 RES1   0.0000
   134 C51      -2.9017   -0.1546   -5.5284   C.3       1 RES1   0.0000
   135 C52      -3.3460   -1.2280   -6.5201   C.3       1 RES1   0.0000
   136 C53      -2.6138   -1.1936   -7.8587   C.3       1 RES1   0.0000
   137 C54      -2.8092   -2.5046   -8.6095   C.3       1 RES1   0.0000
   138 C55       0.0051    2.9755   -1.6227   C.2       1 RES1   0.0000
   139 O4       -0.2708    1.7772   -1.4015   O.2       1 RES1   0.0000
   140 C56       1.3201    3.5391   -1.0418   C.3       1 RES1   0.0000
   141 C57       2.3089    4.1541   -2.0395   C.3       1 RES1   0.0000
   142 O5        1.8962    2.4407   -0.3418   O.3       1 RES1   0.0000
   143 C58       2.8063    2.7764    0.7049   C.3       1 RES1   0.0000
   144 C59       4.2616    2.4894    0.3074   C.3       1 RES1   0.0000
   145 C60       2.2600    2.0101    1.9324   C.2       1 RES1   0.0000
   146 O6        1.4297    1.0957    1.7407   O.2       1 RES1   0.0000
   147 N4        2.5626    2.4707    3.1434   N.am      1 RES1   0.0000
   148 C61       3.8050    3.1285    3.5334   C.3       1 RES1   0.0000
   149 C62       4.5044    2.3335    4.6697   C.3       1 RES1   0.0000
   150 C63       5.8358    1.6595    4.3145   C.3       1 RES1   0.0000
   151 C64       6.1906    0.5889    5.3629   C.3       1 RES1   0.0000
   152 C65       7.2945   -0.3934    4.9235   C.3       1 RES1   0.0000
   153 C66       7.0793   -1.8243    5.4687   C.3       1 RES1   0.0000
   154 C67       7.5098   -2.9399    4.5070   C.3       1 RES1   0.0000
   155 C68       7.1306   -4.3313    5.0080   C.3       1 RES1   0.0000
   156 C69       1.6728    2.2799    4.2806   C.3       1 RES1   0.0000
   157 C70       0.1734    2.2910    4.0116   C.3       1 RES1   0.0000
   158 C71      -0.4212    3.5850    3.4482   C.3       1 RES1   0.0000
   159 C72      -0.4294    3.7186    1.9196   C.3       1 RES1   0.0000
   160 C73      -1.6248    4.5388    1.4248   C.3       1 RES1   0.0000
   161 C74      -1.5961    6.0050    1.8856   C.3       1 RES1   0.0000
   162 C75      -1.9486    7.0326    0.8067   C.3       1 RES1   0.0000
   163 C76      -3.2788    6.8109    0.0950   C.3       1 RES1   0.0000
   164 H77       2.4137    6.3927  -10.2260   H         1 RES1   0.0000
   165 H78       2.7672    5.4874   -8.7512   H         1 RES1   0.0000
   166 H79       3.3809    7.1331   -8.9504   H         1 RES1   0.0000
   167 H80       0.4370    6.3366   -8.7243   H         1 RES1   0.0000
   168 H81       1.0105    7.9777   -8.9819   H         1 RES1   0.0000
   169 H82       2.0670    8.0319   -6.7934   H         1 RES1   0.0000
   170 H83       1.7637    6.3113   -6.5495   H         1 RES1   0.0000
   171 H84      -0.6739    6.7031   -6.5339   H         1 RES1   0.0000
   172 H85      -0.4270    8.3793   -6.9801   H         1 RES1   0.0000
   173 H86      -0.9281    8.4110   -4.6625   H         1 RES1   0.0000
   174 H87       0.7934    8.7493   -4.8199   H         1 RES1   0.0000
   175 H88       0.5479    7.3488   -2.9838   H         1 RES1   0.0000
   176 H89       1.2623    6.3441   -4.2577   H         1 RES1   0.0000
   177 H90      -0.7034    5.0490   -4.4928   H         1 RES1   0.0000
   178 H91      -1.7373    6.3252   -3.9052   H         1 RES1   0.0000
   179 H92      -1.5879    5.6197   -1.7575   H         1 RES1   0.0000
   180 H93       0.1596    5.5389   -1.8184   H         1 RES1   0.0000
   181 H94      -2.7472    4.0484   -2.9895   H         1 RES1   0.0000
   182 H95      -2.5218    2.5704   -2.0185   H         1 RES1   0.0000
   183 H96      -1.5146    1.4112   -3.8064   H         1 RES1   0.0000
   184 H97      -1.1621    2.8784   -4.7096   H         1 RES1   0.0000
   185 H98      -3.4757    3.2719   -5.2383   H         1 RES1   0.0000
   186 H99      -4.0193    2.0224   -4.1386   H         1 RES1   0.0000
   187 H100     -2.5485    1.5750   -6.7652   H         1 RES1   0.0000
   188 H101     -4.2408    1.2755   -6.4122   H         1 RES1   0.0000
   189 H102     -3.3964   -0.3381   -4.5716   H         1 RES1   0.0000
   190 H103     -1.8264   -0.2593   -5.3653   H         1 RES1   0.0000
   191 H104     -4.4205   -1.1480   -6.6800   H         1 RES1   0.0000
   192 H105     -3.1489   -2.2084   -6.0753   H         1 RES1   0.0000
   193 H106     -1.5482   -1.0358   -7.6758   H         1 RES1   0.0000
   194 H107     -2.9758   -0.3672   -8.4700   H         1 RES1   0.0000
   195 H108     -3.8535   -2.6435   -8.8748   H         1 RES1   0.0000
   196 H109     -2.5012   -3.3485   -7.9952   H         1 RES1   0.0000
   197 H110     -2.2239   -2.5147   -9.5231   H         1 RES1   0.0000
   198 H111      1.0308    4.3253   -0.3274   H         1 RES1   0.0000
   199 H112      2.8967    3.3758   -2.5180   H         1 RES1   0.0000
   200 H113      2.9916    4.8262   -1.5216   H         1 RES1   0.0000
   201 H114      1.7930    4.7403   -2.7912   H         1 RES1   0.0000
   202 H115      2.6999    3.8431    0.9504   H         1 RES1   0.0000
   203 H116      4.5881    1.5309    0.6922   H         1 RES1   0.0000
   204 H117      4.9337    3.2699    0.6520   H         1 RES1   0.0000
   205 H118      4.3367    2.4552   -0.7746   H         1 RES1   0.0000
   206 H119      3.5578    4.1350    3.8884   H         1 RES1   0.0000
   207 H120      4.4605    3.2146    2.6738   H         1 RES1   0.0000
   208 H121      3.8447    1.5337    4.9849   H         1 RES1   0.0000
   209 H122      4.6547    2.9811    5.5291   H         1 RES1   0.0000
   210 H123      6.6250    2.4091    4.2460   H         1 RES1   0.0000
   211 H124      5.7417    1.1668    3.3413   H         1 RES1   0.0000
   212 H125      5.2858    0.0100    5.5703   H         1 RES1   0.0000
   213 H126      6.4688    1.0701    6.2999   H         1 RES1   0.0000
   214 H127      8.2631   -0.0215    5.2580   H         1 RES1   0.0000
   215 H128      7.3195   -0.4239    3.8310   H         1 RES1   0.0000
   216 H129      6.0161   -1.9590    5.6886   H         1 RES1   0.0000
   217 H130      7.6092   -1.9326    6.4165   H         1 RES1   0.0000
   218 H131      8.5876   -2.9042    4.3480   H         1 RES1   0.0000
   219 H132      7.0287   -2.7841    3.5358   H         1 RES1   0.0000
   220 H133      7.6577   -4.5940    5.9204   H         1 RES1   0.0000
   221 H134      7.3854   -5.0766    4.2588   H         1 RES1   0.0000
   222 H135      6.0607   -4.3988    5.2028   H         1 RES1   0.0000
   223 H136      1.9021    3.1026    4.9646   H         1 RES1   0.0000
   224 H137      1.9030    1.3418    4.7898   H         1 RES1   0.0000
   225 H138     -0.2419    2.1497    5.0124   H         1 RES1   0.0000
   226 H139     -0.1117    1.4414    3.3864   H         1 RES1   0.0000
   227 H140      0.0928    4.4407    3.8860   H         1 RES1   0.0000
   228 H141     -1.4594    3.6369    3.7776   H         1 RES1   0.0000
   229 H142     -0.4632    2.7274    1.4247   H         1 RES1   0.0000
   230 H143      0.4824    4.2211    1.5991   H         1 RES1   0.0000
   231 H144     -2.5400    4.0634    1.7936   H         1 RES1   0.0000
   232 H145     -1.6433    4.4720    0.3313   H         1 RES1   0.0000
   233 H146     -0.5981    6.2582    2.2524   H         1 RES1   0.0000
   234 H147     -2.2758    6.1235    2.7276   H         1 RES1   0.0000
   235 H148     -1.1426    7.0844    0.0711   H         1 RES1   0.0000
   236 H149     -1.9940    8.0073    1.2910   H         1 RES1   0.0000
   237 H150     -4.1126    6.9601    0.7780   H         1 RES1   0.0000
   238 H151     -3.3496    5.8118   -0.3335   H         1 RES1   0.0000
   239 H152     -3.3847    7.5269   -0.7172   H         1 RES1   0.0000
   240 C77       2.6926   -5.3881   -9.6371   C.3       1 RES1   0.0000
   241 C78       3.4876   -4.2585   -8.9896   C.3       1 RES1   0.0000
   242 C79       4.2935   -4.7188   -7.7727   C.3       1 RES1   0.0000
   243 C80       5.1908   -3.6082   -7.2201   C.3       1 RES1   0.0000
   244 C81       5.9471   -3.9691   -5.9342   C.3       1 RES1   0.0000
   245 C82       5.1809   -3.7902   -4.6156   C.3       1 RES1   0.0000
   246 C83       4.9736   -2.3347   -4.1703   C.3       1 RES1   0.0000
   247 C84       4.6252   -2.2565   -2.6696   C.3       1 RES1   0.0000
   248 N5        3.5546   -1.3162   -2.3424   N.am      1 RES1   0.0000
   249 C85       3.8561    0.0881   -2.6384   C.3       1 RES1   0.0000
   250 C86       2.9268    0.7225   -3.6919   C.3       1 RES1   0.0000
   251 C87       3.6556    1.8049   -4.5080   C.3       1 RES1   0.0000
   252 C88       2.7563    2.8530   -5.1783   C.3       1 RES1   0.0000
   253 C89       1.7702    2.3022   -6.1990   C.3       1 RES1   0.0000
   254 C90       0.8673    3.3736   -6.8057   C.3       1 RES1   0.0000
   255 C91      -0.0936    2.7545   -7.8207   C.3       1 RES1   0.0000
   256 C92      -1.2433    3.6776   -8.2041   C.3       1 RES1   0.0000
   257 C93       2.4708   -1.5730   -1.6126   C.2       1 RES1   0.0000
   258 O7        1.7233   -0.6626   -1.1989   O.2       1 RES1   0.0000
   259 C94       2.1516   -3.0301   -1.2140   C.3       1 RES1   0.0000
   260 C95       2.0344   -3.9918   -2.4116   C.3       1 RES1   0.0000
   261 O8        0.9496   -2.9434   -0.4491   O.3       1 RES1   0.0000
   262 C96       0.7919   -3.8926    0.6066   C.3       1 RES1   0.0000
   263 C97       0.1082   -5.1743    0.1099   C.3       1 RES1   0.0000
   264 C98       0.1426   -3.0619    1.7502   C.2       1 RES1   0.0000
   265 O9       -0.1729   -1.8755    1.5010   O.2       1 RES1   0.0000
   266 N6        0.1289   -3.5265    2.9979   N.am      1 RES1   0.0000
   267 C99      -0.0149   -4.9255    3.4053   C.3       1 RES1   0.0000
   268 C100     -1.1266   -5.1110    4.4704   C.3       1 RES1   0.0000
   269 C101     -2.1544   -6.2098    4.1681   C.3       1 RES1   0.0000
   270 C102     -3.2863   -6.2063    5.2151   C.3       1 RES1   0.0000
   271 C103     -4.6617   -6.6800    4.6979   C.3       1 RES1   0.0000
   272 C104     -5.8248   -5.8391    5.2629   C.3       1 RES1   0.0000
   273 C105     -6.9515   -5.6140    4.2515   C.3       1 RES1   0.0000
   274 C106     -7.9088   -4.5074    4.6824   C.3       1 RES1   0.0000
   275 C107      0.0877   -2.5651    4.1028   C.3       1 RES1   0.0000
   276 C108      1.1073   -1.4264    4.0454   C.3       1 RES1   0.0000
   277 C109      2.5352   -1.8390    4.4135   C.3       1 RES1   0.0000
   278 C110      3.2115   -2.7811    3.4171   C.3       1 RES1   0.0000
   279 C111      3.5624   -2.1389    2.0697   C.3       1 RES1   0.0000
   280 C112      4.8342   -1.2791    2.0958   C.3       1 RES1   0.0000
   281 C113      5.6933   -1.5520    0.8569   C.3       1 RES1   0.0000
   282 C114      6.9387   -0.6862    0.6983   C.3       1 RES1   0.0000
   283 H153      2.0900   -5.0033  -10.4603   H         1 RES1   0.0000
   284 H154      2.0202   -5.8581   -8.9179   H         1 RES1   0.0000
   285 H155      3.3590   -6.1524  -10.0324   H         1 RES1   0.0000
   286 H156      2.7844   -3.4774   -8.6981   H         1 RES1   0.0000
   287 H157      4.1574   -3.8312   -9.7368   H         1 RES1   0.0000
   288 H158      4.9166   -5.5650   -8.0651   H         1 RES1   0.0000
   289 H159      3.6084   -5.0686   -6.9980   H         1 RES1   0.0000
   290 H160      4.6028   -2.7097   -7.0449   H         1 RES1   0.0000
   291 H161      5.9325   -3.3665   -7.9834   H         1 RES1   0.0000
   292 H162      6.8583   -3.3689   -5.8648   H         1 RES1   0.0000
   293 H163      6.2515   -5.0158   -6.0025   H         1 RES1   0.0000
   294 H164      5.7637   -4.2993   -3.8425   H         1 RES1   0.0000
   295 H165      4.2132   -4.2905   -4.6850   H         1 RES1   0.0000
   296 H166      4.1850   -1.8790   -4.7649   H         1 RES1   0.0000
   297 H167      5.8888   -1.7763   -4.3643   H         1 RES1   0.0000
   298 H168      5.5127   -1.9371   -2.1180   H         1 RES1   0.0000
   299 H169      4.3607   -3.2422   -2.3053   H         1 RES1   0.0000
   300 H170      4.8924    0.1267   -2.9740   H         1 RES1   0.0000
   301 H171      3.7709    0.6449   -1.6989   H         1 RES1   0.0000
   302 H172      2.0526    1.1350   -3.1778   H         1 RES1   0.0000
   303 H173      2.5797   -0.0647   -4.3603   H         1 RES1   0.0000
   304 H174      4.2607    1.3173   -5.2757   H         1 RES1   0.0000
   305 H175      4.3497    2.3384   -3.8511   H         1 RES1   0.0000
   306 H176      3.4085    3.5804   -5.6626   H         1 RES1   0.0000
   307 H177      2.1732    3.3879   -4.4342   H         1 RES1   0.0000
   308 H178      1.1368    1.5550   -5.7154   H         1 RES1   0.0000
   309 H179      2.3139    1.8201   -7.0055   H         1 RES1   0.0000
   310 H180      1.4723    4.1416   -7.2853   H         1 RES1   0.0000
   311 H181      0.3023    3.8658   -6.0092   H         1 RES1   0.0000
   312 H182     -0.5057    1.8355   -7.3972   H         1 RES1   0.0000
   313 H183      0.4651    2.4804   -8.7169   H         1 RES1   0.0000
   314 H184     -1.8260    3.9661   -7.3283   H         1 RES1   0.0000
   315 H185     -1.9059    3.1773   -8.9075   H         1 RES1   0.0000
   316 H186     -0.8637    4.5746   -8.6839   H         1 RES1   0.0000
   317 H187      2.9728   -3.3690   -0.5608   H         1 RES1   0.0000
   318 H188      0.9882   -4.1992   -2.6088   H         1 RES1   0.0000
   319 H189      2.5414   -4.9345   -2.2133   H         1 RES1   0.0000
   320 H190      2.4610   -3.5699   -3.3145   H         1 RES1   0.0000
   321 H191      1.7866   -4.1643    1.0020   H         1 RES1   0.0000
   322 H192     -0.9640   -5.0487    0.0334   H         1 RES1   0.0000
   323 H193      0.3350   -6.0265    0.7422   H         1 RES1   0.0000
   324 H194      0.4949   -5.4091   -0.8758   H         1 RES1   0.0000
   325 H195      0.9398   -5.2765    3.8077   H         1 RES1   0.0000
   326 H196     -0.2564   -5.5074    2.5235   H         1 RES1   0.0000
   327 H197     -1.6805   -4.1783    4.5559   H         1 RES1   0.0000
   328 H198     -0.6769   -5.3249    5.4387   H         1 RES1   0.0000
   329 H199     -1.6587   -7.1786    4.1459   H         1 RES1   0.0000
   330 H200     -2.5880   -6.0286    3.1840   H         1 RES1   0.0000
   331 H201     -3.4096   -5.1833    5.5767   H         1 RES1   0.0000
   332 H202     -2.9864   -6.8059    6.0721   H         1 RES1   0.0000
   333 H203     -4.8159   -7.7297    4.9510   H         1 RES1   0.0000
   334 H204     -4.6790   -6.6038    3.6072   H         1 RES1   0.0000
   335 H205     -5.4346   -4.8605    5.5533   H         1 RES1   0.0000
   336 H206     -6.2138   -6.3003    6.1718   H         1 RES1   0.0000
   337 H207     -7.5127   -6.5351    4.0937   H         1 RES1   0.0000
   338 H208     -6.5039   -5.3353    3.2913   H         1 RES1   0.0000
   339 H209     -8.5943   -4.8497    5.4516   H         1 RES1   0.0000
   340 H210     -8.5056   -4.1707    3.8374   H         1 RES1   0.0000
   341 H211     -7.3529   -3.6563    5.0756   H         1 RES1   0.0000
   342 H212      0.2789   -3.1322    5.0117   H         1 RES1   0.0000
   343 H213     -0.9071   -2.1286    4.1383   H         1 RES1   0.0000
   344 H214      0.7706   -0.7015    4.7902   H         1 RES1   0.0000
   345 H215      1.0796   -0.9358    3.0685   H         1 RES1   0.0000
   346 H216      2.5138   -2.3136    5.4003   H         1 RES1   0.0000
   347 H217      3.1561   -0.9447    4.4912   H         1 RES1   0.0000
   348 H218      2.5728   -3.6511    3.2504   H         1 RES1   0.0000
   349 H219      4.1359   -3.1498    3.8667   H         1 RES1   0.0000
   350 H220      2.7216   -1.5402    1.6915   H         1 RES1   0.0000
   351 H221      3.7309   -2.9534    1.3593   H         1 RES1   0.0000
   352 H222      5.4119   -1.5143    2.9872   H         1 RES1   0.0000
   353 H223      4.5686   -0.2221    2.1477   H         1 RES1   0.0000
   354 H224      5.0670   -1.4101   -0.0291   H         1 RES1   0.0000
   355 H225      6.0118   -2.5986    0.8913   H         1 RES1   0.0000
   356 H226      7.5817   -0.7440    1.5702   H         1 RES1   0.0000
   357 H227      6.6819    0.3552    0.5215   H         1 RES1   0.0000
   358 H228      7.5148   -1.0439   -0.1530   H         1 RES1   0.0000
@<TRIPOS>BOND
     1     1    20    1
     2     1    23    1
     3     1    27    1
     4     1   139    1
     5     1   142    1
     6     1   146    1
     7     1   258    1
     8     1   261    1
     9     1   265    1
    10     2     3    1
    11     2    45    1
    12     2    46    1
    13     2    47    1
    14     3     4    1
    15     3    48    1
    16     3    49    1
    17     4     5    1
    18     4    50    1
    19     4    51    1
    20     5     6    1
    21     5    52    1
    22     5    53    1
    23     6     7    1
    24     6    54    1
    25     6    55    1
    26     7     8    1
    27     7    56    1
    28     7    57    1
    29     8     9    1
    30     8    58    1
    31     8    59    1
    32     9    10    1
    33     9    60    1
    34     9    61    1
    35    10    11    1
    36    10    19    1
    37    11    12    1
    38    11    62    1
    39    11    63    1
    40    12    13    1
    41    12    64    1
    42    12    65    1
    43    13    14    1
    44    13    66    1
    45    13    67    1
    46    14    15    1
    47    14    68    1
    48    14    69    1
    49    15    16    1
    50    15    70    1
    51    15    71    1
    52    16    17    1
    53    16    72    1
    54    16    73    1
    55    17    18    1
    56    17    74    1
    57    17    75    1
    58    18    76    1
    59    18    77    1
    60    18    78    1
    61    19    20    2
    62    19    21    1
    63    21    22    1
    64    21    23    1
    65    21    79    1
    66    22    80    1
    67    22    81    1
    68    22    82    1
    69    23    24    1
    70    24    25    1
    71    24    26    1
    72    24    83    1
    73    25    84    1
    74    25    85    1
    75    25    86    1
    76    26    27    2
    77    26    28    1
    78    28    29    1
    79    28    37    1
    80    29    30    1
    81    29    87    1
    82    29    88    1
    83    30    31    1
    84    30    89    1
    85    30    90    1
    86    31    32    1
    87    31    91    1
    88    31    92    1
    89    32    33    1
    90    32    93    1
    91    32    94    1
    92    33    34    1
    93    33    95    1
    94    33    96    1
    95    34    35    1
    96    34    97    1
    97    34    98    1
    98    35    36    1
    99    35    99    1
   100    35   100    1
   101    36   101    1
   102    36   102    1
   103    36   103    1
   104    37    38    1
   105    37   104    1
   106    37   105    1
   107    38    39    1
   108    38   106    1
   109    38   107    1
   110    39    40    1
   111    39   108    1
   112    39   109    1
   113    40    41    1
   114    40   110    1
   115    40   111    1
   116    41    42    1
   117    41   112    1
   118    41   113    1
   119    42    43    1
   120    42   114    1
   121    42   115    1
   122    43    44    1
   123    43   116    1
   124    43   117    1
   125    44   118    1
   126    44   119    1
   127    44   120    1
   128   121   122    1
   129   121   164    1
   130   121   165    1
   131   121   166    1
   132   122   123    1
   133   122   167    1
   134   122   168    1
   135   123   124    1
   136   123   169    1
   137   123   170    1
   138   124   125    1
   139   124   171    1
   140   124   172    1
   141   125   126    1
   142   125   173    1
   143   125   174    1
   144   126   127    1
   145   126   175    1
   146   126   176    1
   147   127   128    1
   148   127   177    1
   149   127   178    1
   150   128   129    1
   151   128   179    1
   152   128   180    1
   153   129   130    1
   154   129   138    1
   155   130   131    1
   156   130   181    1
   157   130   182    1
   158   131   132    1
   159   131   183    1
   160   131   184    1
   161   132   133    1
   162   132   185    1
   163   132   186    1
   164   133   134    1
   165   133   187    1
   166   133   188    1
   167   134   135    1
   168   134   189    1
   169   134   190    1
   170   135   136    1
   171   135   191    1
   172   135   192    1
   173   136   137    1
   174   136   193    1
   175   136   194    1
   176   137   195    1
   177   137   196    1
   178   137   197    1
   179   138   139    2
   180   138   140    1
   181   140   141    1
   182   140   142    1
   183   140   198    1
   184   141   199    1
   185   141   200    1
   186   141   201    1
   187   142   143    1
   188   143   144    1
   189   143   145    1
   190   143   202    1
   191   144   203    1
   192   144   204    1
   193   144   205    1
   194   145   146    2
   195   145   147    1
   196   147   148    1
   197   147   156    1
   198   148   149    1
   199   148   206    1
   200   148   207    1
   201   149   150    1
   202   149   208    1
   203   149   209    1
   204   150   151    1
   205   150   210    1
   206   150   211    1
   207   151   152    1
   208   151   212    1
   209   151   213    1
   210   152   153    1
   211   152   214    1
   212   152   215    1
   213   153   154    1
   214   153   216    1
   215   153   217    1
   216   154   155    1
   217   154   218    1
   218   154   219    1
   219   155   220    1
   220   155   221    1
   221   155   222    1
   222   156   157    1
   223   156   223    1
   224   156   224    1
   225   157   158    1
   226   157   225    1
   227   157   226    1
   228   158   159    1
   229   158   227    1
   230   158   228    1
   231   159   160    1
   232   159   229    1
   233   159   230    1
   234   160   161    1
   235   160   231    1
   236   160   232    1
   237   161   162    1
   238   161   233    1
   239   161   234    1
   240   162   163    1
   241   162   235    1
   242   162   236    1
   243   163   237    1
   244   163   238    1
   245   163   239    1
   246   240   241    1
   247   240   283    1
   248   240   284    1
   249   240   285    1
   250   241   242    1
   251   241   286    1
   252   241   287    1
   253   242   243    1
   254   242   288    1
   255   242   289    1
   256   243   244    1
   257   243   290    1
   258   243   291    1
   259   244   245    1
   260   244   292    1
   261   244   293    1
   262   245   246    1
   263   245   294    1
   264   245   295    1
   265   246   247    1
   266   246   296    1
   267   246   297    1
   268   247   248    1
   269   247   298    1
   270   247   299    1
   271   248   249    1
   272   248   257    1
   273   249   250    1
   274   249   300    1
   275   249   301    1
   276   250   251    1
   277   250   302    1
   278   250   303    1
   279   251   252    1
   280   251   304    1
   281   251   305    1
   282   252   253    1
   283   252   306    1
   284   252   307    1
   285   253   254    1
   286   253   308    1
   287   253   309    1
   288   254   255    1
   289   254   310    1
   290   254   311    1
   291   255   256    1
   292   255   312    1
   293   255   313    1
   294   256   314    1
   295   256   315    1
   296   256   316    1
   297   257   258    2
   298   257   259    1
   299   259   260    1
   300   259   261    1
   301   259   317    1
   302   260   318    1
   303   260   319    1
   304   260   320    1
   305   261   262    1
   306   262   263    1
   307   262   264    1
   308   262   321    1
   309   263   322    1
   310   263   323    1
   311   263   324    1
   312   264   265    2
   313   264   266    1
   314   266   267    1
   315   266   275    1
   316   267   268    1
   317   267   325    1
   318   267   326    1
   319   268   269    1
   320   268   327    1
   321   268   328    1
   322   269   270    1
   323   269   329    1
   324   269   330    1
   325   270   271    1
   326   270   331    1
   327   270   332    1
   328   271   272    1
   329   271   333    1
   330   271   334    1
   331   272   273    1
   332   272   335    1
   333   272   336    1
   334   273   274    1
   335   273   337    1
   336   273   338    1
   337   274   339    1
   338   274   340    1
   339   274   341    1
   340   275   276    1
   341   275   342    1
   342   275   343    1
   343   276   277    1
   344   276   344    1
   345   276   345    1
   346   277   278    1
   347   277   346    1
   348   277   347    1
   349   278   279    1
   350   278   348    1
   351   278   349    1
   352   279   280    1
   353   279   350    1
   354   279   351    1
   355   280   281    1
   356   280   352    1
   357   280   353    1
   358   281   282    1
   359   281   354    1
   360   281   355    1
   361   282   356    1
   362   282   357    1
   363   282   358    1
@<TRIPOS>SUBSTRUCTURE
     1 RES1      358 GROUP             0 ****  ****    0  
