@<TRIPOS>MOLECULE
capped_square_antiprismatic_0_nunpairedes_0_charge_3 Charge: 3 Unpaired_Electrons: 3 XTB_Unpaired_Electrons: 0 XTB_Charge: 3
   439   444     1     0     0
SMALL
NoCharges
****
Generated from Architector

@<TRIPOS>ATOM
     1 Nd1      -0.1885   -0.1322    0.4025   Nd        1 RES1   0.0000
     2 C1       -1.1006  -11.1976   -1.4927   C.3       1 RES1   0.0000
     3 C2       -0.0342  -10.9570   -0.4304   C.3       1 RES1   0.0000
     4 C3        1.2118  -10.3184   -1.0440   C.3       1 RES1   0.0000
     5 C4        2.4319  -10.2873   -0.1061   C.3       1 RES1   0.0000
     6 C5        2.7901   -8.9124    0.4765   C.3       1 RES1   0.0000
     7 C6        1.9854   -8.5237    1.7200   C.3       1 RES1   0.0000
     8 C7        2.4009   -7.1547    2.2778   C.3       1 RES1   0.0000
     9 C8        1.5542   -6.7063    3.4770   C.3       1 RES1   0.0000
    10 C9        2.0424   -5.4219    4.1662   C.3       1 RES1   0.0000
    11 C10       1.9384   -4.2125    3.2395   C.3       1 RES1   0.0000
    12 N1        1.8495   -2.8861    3.8790   N.am      1 RES1   0.0000
    13 C11       2.5555   -2.6482    5.1433   C.3       1 RES1   0.0000
    14 C12       1.7277   -1.9473    6.2401   C.3       1 RES1   0.0000
    15 C13       1.7962   -2.5387    7.6573   C.3       1 RES1   0.0000
    16 C14       2.9992   -2.1531    8.5195   C.3       1 RES1   0.0000
    17 C15       4.2105   -3.0529    8.3159   C.3       1 RES1   0.0000
    18 C16       5.3451   -2.7788    9.3072   C.3       1 RES1   0.0000
    19 C17       6.1746   -1.5425    8.9294   C.3       1 RES1   0.0000
    20 C18       7.6170   -1.5858    9.4502   C.3       1 RES1   0.0000
    21 C19       8.6449   -2.1993    8.4947   C.3       1 RES1   0.0000
    22 C20       8.2922   -3.6118    8.0423   C.3       1 RES1   0.0000
    23 C21       1.2584   -1.9476    3.1319   C.2       1 RES1   0.0000
    24 O1        0.7718   -2.1868    2.0125   O.2       1 RES1   0.0000
    25 C22       1.2296   -0.4769    3.5719   C.3       1 RES1   0.0000
    26 C23       2.5798    0.0768    3.1404   C.3       1 RES1   0.0000
    27 O2        0.1677    0.1400    2.8314   O.3       1 RES1   0.0000
    28 C24      -0.6685    1.1094    3.4851   C.3       1 RES1   0.0000
    29 C25      -0.1445    2.5353    3.2065   C.3       1 RES1   0.0000
    30 C26       0.7305    3.0998    4.3196   C.3       1 RES1   0.0000
    31 C27      -2.0192    0.9329    2.7522   C.2       1 RES1   0.0000
    32 O3       -1.9210    0.9812    1.5004   O.2       1 RES1   0.0000
    33 N2       -3.1754    0.7191    3.3640   N.am      1 RES1   0.0000
    34 C28      -3.4338    0.9049    4.7883   C.3       1 RES1   0.0000
    35 C29      -4.2283    2.1747    5.1209   C.3       1 RES1   0.0000
    36 C30      -3.5899    3.5013    4.7061   C.3       1 RES1   0.0000
    37 C31      -3.8065    3.9078    3.2432   C.3       1 RES1   0.0000
    38 C32      -5.2775    4.0885    2.8508   C.3       1 RES1   0.0000
    39 C33      -5.9837    5.2486    3.5495   C.3       1 RES1   0.0000
    40 C34      -7.3701    5.5219    2.9582   C.3       1 RES1   0.0000
    41 C35      -8.3865    4.4031    3.1881   C.3       1 RES1   0.0000
    42 C36      -9.7989    4.8294    2.7927   C.3       1 RES1   0.0000
    43 C37     -10.8160    3.7151    3.0022   C.3       1 RES1   0.0000
    44 C38      -4.3687    0.4346    2.5511   C.3       1 RES1   0.0000
    45 C39      -5.1185   -0.8516    2.9530   C.3       1 RES1   0.0000
    46 C40      -6.5937   -0.6042    3.3011   C.3       1 RES1   0.0000
    47 C41      -7.2531   -1.8315    3.9466   C.3       1 RES1   0.0000
    48 C42      -7.6871   -2.9444    2.9809   C.3       1 RES1   0.0000
    49 C43      -7.4842   -4.3423    3.5772   C.3       1 RES1   0.0000
    50 C44      -6.0191   -4.7989    3.4875   C.3       1 RES1   0.0000
    51 C45      -5.7732   -5.8615    2.4089   C.3       1 RES1   0.0000
    52 C46      -6.2188   -5.4840    0.9939   C.3       1 RES1   0.0000
    53 C47      -5.4521   -4.3111    0.3649   C.3       1 RES1   0.0000
    54 H1       -2.0015  -11.6152   -1.0511   H         1 RES1   0.0000
    55 H2       -0.7391  -11.8999   -2.2390   H         1 RES1   0.0000
    56 H3       -1.3569  -10.2724   -2.0045   H         1 RES1   0.0000
    57 H4        0.2362  -11.9166    0.0137   H         1 RES1   0.0000
    58 H5       -0.4362  -10.3242    0.3661   H         1 RES1   0.0000
    59 H6        0.9774   -9.3060   -1.3864   H         1 RES1   0.0000
    60 H7        1.4668  -10.9024   -1.9309   H         1 RES1   0.0000
    61 H8        3.2995  -10.6389   -0.6650   H         1 RES1   0.0000
    62 H9        2.2829  -10.9912    0.7134   H         1 RES1   0.0000
    63 H10       2.6623   -8.1519   -0.3000   H         1 RES1   0.0000
    64 H11       3.8484   -8.9214    0.7455   H         1 RES1   0.0000
    65 H12       2.1352   -9.2758    2.4947   H         1 RES1   0.0000
    66 H13       0.9250   -8.5173    1.4681   H         1 RES1   0.0000
    67 H14       2.3295   -6.4188    1.4703   H         1 RES1   0.0000
    68 H15       3.4480   -7.2071    2.5899   H         1 RES1   0.0000
    69 H16       1.5550   -7.5034    4.2231   H         1 RES1   0.0000
    70 H17       0.5186   -6.5593    3.1617   H         1 RES1   0.0000
    71 H18       3.0706   -5.5833    4.4908   H         1 RES1   0.0000
    72 H19       1.4132   -5.2631    5.0447   H         1 RES1   0.0000
    73 H20       1.0212   -4.3179    2.6592   H         1 RES1   0.0000
    74 H21       2.7870   -4.2100    2.5463   H         1 RES1   0.0000
    75 H22       3.4770   -2.0940    4.9379   H         1 RES1   0.0000
    76 H23       2.8432   -3.6207    5.5310   H         1 RES1   0.0000
    77 H24       0.6767   -1.9966    5.9470   H         1 RES1   0.0000
    78 H25       2.0162   -0.8979    6.3261   H         1 RES1   0.0000
    79 H26       1.7221   -3.6252    7.6241   H         1 RES1   0.0000
    80 H27       0.9102   -2.1657    8.1697   H         1 RES1   0.0000
    81 H28       2.6906   -2.2318    9.5630   H         1 RES1   0.0000
    82 H29       3.2872   -1.1143    8.3574   H         1 RES1   0.0000
    83 H30       4.6053   -2.9288    7.3058   H         1 RES1   0.0000
    84 H31       3.8928   -4.0908    8.4302   H         1 RES1   0.0000
    85 H32       5.9852   -3.6598    9.3220   H         1 RES1   0.0000
    86 H33       4.9394   -2.6491   10.3131   H         1 RES1   0.0000
    87 H34       5.6854   -0.6469    9.3237   H         1 RES1   0.0000
    88 H35       6.1882   -1.4520    7.8425   H         1 RES1   0.0000
    89 H36       7.6369   -2.1446   10.3848   H         1 RES1   0.0000
    90 H37       7.9370   -0.5672    9.6687   H         1 RES1   0.0000
    91 H38       9.5999   -2.2257    9.0231   H         1 RES1   0.0000
    92 H39       8.7780   -1.5553    7.6198   H         1 RES1   0.0000
    93 H40       8.0619   -4.2278    8.9080   H         1 RES1   0.0000
    94 H41       9.1218   -4.0723    7.5126   H         1 RES1   0.0000
    95 H42       7.4343   -3.6075    7.3751   H         1 RES1   0.0000
    96 H43       1.0669   -0.3398    4.6370   H         1 RES1   0.0000
    97 H44       2.7468   -0.1848    2.0947   H         1 RES1   0.0000
    98 H45       3.3581   -0.3614    3.7531   H         1 RES1   0.0000
    99 H46       2.6228    1.1525    3.2622   H         1 RES1   0.0000
   100 H47      -0.7198    0.9010    4.5575   H         1 RES1   0.0000
   101 H48       0.4125    2.4823    2.2600   H         1 RES1   0.0000
   102 H49      -0.9881    3.2083    3.0456   H         1 RES1   0.0000
   103 H50       1.5725    2.4477    4.5375   H         1 RES1   0.0000
   104 H51       0.1551    3.2376    5.2309   H         1 RES1   0.0000
   105 H52       1.1189    4.0680    4.0168   H         1 RES1   0.0000
   106 H53      -2.4953    0.9116    5.3377   H         1 RES1   0.0000
   107 H54      -4.0228    0.0559    5.1433   H         1 RES1   0.0000
   108 H55      -4.3569    2.1690    6.2039   H         1 RES1   0.0000
   109 H56      -5.2211    2.0908    4.6874   H         1 RES1   0.0000
   110 H57      -2.5195    3.4707    4.9258   H         1 RES1   0.0000
   111 H58      -4.0185    4.2911    5.3227   H         1 RES1   0.0000
   112 H59      -3.3585    3.1747    2.5657   H         1 RES1   0.0000
   113 H60      -3.2846    4.8556    3.0850   H         1 RES1   0.0000
   114 H61      -5.8379    3.1775    3.0616   H         1 RES1   0.0000
   115 H62      -5.3228    4.2508    1.7705   H         1 RES1   0.0000
   116 H63      -5.3743    6.1498    3.4457   H         1 RES1   0.0000
   117 H64      -6.0890    5.0338    4.6153   H         1 RES1   0.0000
   118 H65      -7.2761    5.7074    1.8857   H         1 RES1   0.0000
   119 H66      -7.7543    6.4355    3.4123   H         1 RES1   0.0000
   120 H67      -8.3882    4.1238    4.2431   H         1 RES1   0.0000
   121 H68      -8.1142    3.5180    2.6086   H         1 RES1   0.0000
   122 H69      -9.8065    5.1343    1.7454   H         1 RES1   0.0000
   123 H70     -10.0921    5.6950    3.3865   H         1 RES1   0.0000
   124 H71     -10.5766    2.8493    2.3888   H         1 RES1   0.0000
   125 H72     -11.8143    4.0530    2.7388   H         1 RES1   0.0000
   126 H73     -10.8326    3.4002    4.0423   H         1 RES1   0.0000
   127 H74      -4.0397    0.3658    1.5139   H         1 RES1   0.0000
   128 H75      -5.0547    1.2795    2.6328   H         1 RES1   0.0000
   129 H76      -4.6397   -1.3271    3.8113   H         1 RES1   0.0000
   130 H77      -5.0678   -1.5620    2.1290   H         1 RES1   0.0000
   131 H78      -7.1343   -0.3010    2.4023   H         1 RES1   0.0000
   132 H79      -6.6571    0.2176    4.0176   H         1 RES1   0.0000
   133 H80      -8.1335   -1.5003    4.4981   H         1 RES1   0.0000
   134 H81      -6.5469   -2.2343    4.6760   H         1 RES1   0.0000
   135 H82      -7.1234   -2.8777    2.0500   H         1 RES1   0.0000
   136 H83      -8.7412   -2.8028    2.7372   H         1 RES1   0.0000
   137 H84      -8.1170   -5.0443    3.0364   H         1 RES1   0.0000
   138 H85      -7.8235   -4.3498    4.6150   H         1 RES1   0.0000
   139 H86      -5.7023   -5.2248    4.4429   H         1 RES1   0.0000
   140 H87      -5.3905   -3.9250    3.2980   H         1 RES1   0.0000
   141 H88      -6.3133   -6.7678    2.6921   H         1 RES1   0.0000
   142 H89      -4.7076   -6.1115    2.3920   H         1 RES1   0.0000
   143 H90      -7.2844   -5.2624    1.0116   H         1 RES1   0.0000
   144 H91      -6.1003   -6.3696    0.3676   H         1 RES1   0.0000
   145 H92      -4.7533   -3.8679    1.0709   H         1 RES1   0.0000
   146 H93      -6.1324   -3.5322    0.0317   H         1 RES1   0.0000
   147 H94      -4.8995   -4.6396   -0.5128   H         1 RES1   0.0000
   148 C48       0.3632   -0.5853   11.0164   C.3       1 RES1   0.0000
   149 C49      -0.7265   -1.6045   10.6913   C.3       1 RES1   0.0000
   150 C50      -1.7860   -1.0281    9.7530   C.3       1 RES1   0.0000
   151 C51      -2.8916   -2.0285    9.3734   C.3       1 RES1   0.0000
   152 C52      -2.7792   -2.6104    7.9509   C.3       1 RES1   0.0000
   153 C53      -2.3179   -4.0700    7.8977   C.3       1 RES1   0.0000
   154 C54      -2.5748   -4.7317    6.5374   C.3       1 RES1   0.0000
   155 C55      -1.9256   -3.9983    5.3661   C.3       1 RES1   0.0000
   156 C56      -2.2537   -4.6252    4.0017   C.3       1 RES1   0.0000
   157 C57      -1.9022   -3.5768    2.9542   C.3       1 RES1   0.0000
   158 N3       -1.9491   -3.8959    1.5166   N.am      1 RES1   0.0000
   159 C58      -2.0217   -5.2628    1.0133   C.3       1 RES1   0.0000
   160 C59      -0.6873   -5.7669    0.4400   C.3       1 RES1   0.0000
   161 C60      -0.7663   -6.8675   -0.6393   C.3       1 RES1   0.0000
   162 C61      -1.9560   -6.8980   -1.6115   C.3       1 RES1   0.0000
   163 C62      -3.0600   -7.8400   -1.1230   C.3       1 RES1   0.0000
   164 C63      -4.0467   -8.2576   -2.2131   C.3       1 RES1   0.0000
   165 C64      -4.9469   -7.1232   -2.7025   C.3       1 RES1   0.0000
   166 C65      -6.2386   -7.6312   -3.3593   C.3       1 RES1   0.0000
   167 C66      -7.4456   -7.6661   -2.4176   C.3       1 RES1   0.0000
   168 C67      -7.3411   -8.6786   -1.2858   C.3       1 RES1   0.0000
   169 C68      -1.8134   -2.8371    0.7335   C.2       1 RES1   0.0000
   170 O4       -1.7875   -1.6765    1.2012   O.2       1 RES1   0.0000
   171 C69      -1.6498   -2.9048   -0.7996   C.3       1 RES1   0.0000
   172 C70      -2.8063   -2.1128   -1.4185   C.3       1 RES1   0.0000
   173 O5       -0.4283   -2.1698   -0.9915   O.3       1 RES1   0.0000
   174 C71       0.6517   -2.6784   -1.7818   C.3       1 RES1   0.0000
   175 C72       0.3508   -2.5657   -3.2715   C.3       1 RES1   0.0000
   176 C73      -0.5347   -3.7008   -3.7600   C.3       1 RES1   0.0000
   177 C74       1.8548   -1.8640   -1.2619   C.2       1 RES1   0.0000
   178 O6        1.6138   -1.1048   -0.3040   O.2       1 RES1   0.0000
   179 N4        3.1165   -2.0344   -1.6638   N.am      1 RES1   0.0000
   180 C75       3.6157   -2.5255   -2.9442   C.3       1 RES1   0.0000
   181 C76       4.0807   -1.4215   -3.9348   C.3       1 RES1   0.0000
   182 C77       3.0566   -0.3955   -4.4361   C.3       1 RES1   0.0000
   183 C78       3.6711    0.9162   -4.9882   C.3       1 RES1   0.0000
   184 C79       4.4263    0.9156   -6.3370   C.3       1 RES1   0.0000
   185 C80       5.9303    0.5602   -6.3614   C.3       1 RES1   0.0000
   186 C81       6.8834    1.6946   -5.9477   C.3       1 RES1   0.0000
   187 C82       8.3513    1.2469   -5.9836   C.3       1 RES1   0.0000
   188 C83       9.3393    2.2506   -5.3733   C.3       1 RES1   0.0000
   189 C84      10.5597    1.5543   -4.7792   C.3       1 RES1   0.0000
   190 C85       4.1222   -1.5637   -0.7082   C.3       1 RES1   0.0000
   191 C86       4.7879   -2.6639    0.1277   C.3       1 RES1   0.0000
   192 C87       5.7465   -1.9346    1.0786   C.3       1 RES1   0.0000
   193 C88       6.6915   -2.7650    1.9568   C.3       1 RES1   0.0000
   194 C89       7.7732   -1.8950    2.6391   C.3       1 RES1   0.0000
   195 C90       7.4875   -1.3131    4.0390   C.3       1 RES1   0.0000
   196 C91       6.0169   -1.0718    4.3674   C.3       1 RES1   0.0000
   197 C92       5.7933   -0.0389    5.4765   C.3       1 RES1   0.0000
   198 C93       5.6447    1.3910    4.9547   C.3       1 RES1   0.0000
   199 C94       5.0998    2.3115    6.0416   C.3       1 RES1   0.0000
   200 H95       1.0763   -1.0042   11.7236   H         1 RES1   0.0000
   201 H96      -0.0632    0.3101   11.4649   H         1 RES1   0.0000
   202 H97       0.9044   -0.2906   10.1173   H         1 RES1   0.0000
   203 H98      -1.2050   -1.9123   11.6227   H         1 RES1   0.0000
   204 H99      -0.2698   -2.4915   10.2447   H         1 RES1   0.0000
   205 H100     -1.2985   -0.6481    8.8491   H         1 RES1   0.0000
   206 H101     -2.2371   -0.1700   10.2536   H         1 RES1   0.0000
   207 H102     -3.8526   -1.5205    9.4567   H         1 RES1   0.0000
   208 H103     -2.9035   -2.8436   10.0980   H         1 RES1   0.0000
   209 H104     -2.0892   -1.9900    7.3708   H         1 RES1   0.0000
   210 H105     -3.7583   -2.5554    7.4672   H         1 RES1   0.0000
   211 H106     -2.8774   -4.6423    8.6390   H         1 RES1   0.0000
   212 H107     -1.2602   -4.1317    8.1642   H         1 RES1   0.0000
   213 H108     -3.6535   -4.7746    6.3662   H         1 RES1   0.0000
   214 H109     -2.2031   -5.7569    6.5742   H         1 RES1   0.0000
   215 H110     -0.8412   -3.9767    5.4988   H         1 RES1   0.0000
   216 H111     -2.2796   -2.9644    5.3539   H         1 RES1   0.0000
   217 H112     -3.3182   -4.8557    3.9591   H         1 RES1   0.0000
   218 H113     -1.6927   -5.5536    3.8829   H         1 RES1   0.0000
   219 H114     -0.8930   -3.2066    3.1533   H         1 RES1   0.0000
   220 H115     -2.5796   -2.7270    3.0950   H         1 RES1   0.0000
   221 H116     -2.8042   -5.2972    0.2553   H         1 RES1   0.0000
   222 H117     -2.3379   -5.8986    1.8368   H         1 RES1   0.0000
   223 H118     -0.0788   -6.1787    1.2434   H         1 RES1   0.0000
   224 H119     -0.1405   -4.9021    0.0584   H         1 RES1   0.0000
   225 H120     -0.7386   -7.8365   -0.1398   H         1 RES1   0.0000
   226 H121      0.1602   -6.7901   -1.2120   H         1 RES1   0.0000
   227 H122     -1.5966   -7.2790   -2.5702   H         1 RES1   0.0000
   228 H123     -2.3546   -5.8983   -1.8031   H         1 RES1   0.0000
   229 H124     -3.6095   -7.3853   -0.2935   H         1 RES1   0.0000
   230 H125     -2.5827   -8.7491   -0.7533   H         1 RES1   0.0000
   231 H126     -4.6603   -9.0630   -1.8120   H         1 RES1   0.0000
   232 H127     -3.5078   -8.6634   -3.0716   H         1 RES1   0.0000
   233 H128     -4.3886   -6.5134   -3.4183   H         1 RES1   0.0000
   234 H129     -5.2100   -6.4759   -1.8643   H         1 RES1   0.0000
   235 H130     -6.0664   -8.6281   -3.7681   H         1 RES1   0.0000
   236 H131     -6.4937   -6.9780   -4.1966   H         1 RES1   0.0000
   237 H132     -8.3327   -7.8999   -3.0086   H         1 RES1   0.0000
   238 H133     -7.5950   -6.6707   -1.9920   H         1 RES1   0.0000
   239 H134     -7.1842   -9.6781   -1.6772   H         1 RES1   0.0000
   240 H135     -8.2623   -8.6848   -0.7103   H         1 RES1   0.0000
   241 H136     -6.5234   -8.4439   -0.6110   H         1 RES1   0.0000
   242 H137     -1.5897   -3.9082   -1.2174   H         1 RES1   0.0000
   243 H138     -2.8670   -1.1366   -0.9235   H         1 RES1   0.0000
   244 H139     -3.7469   -2.6363   -1.2766   H         1 RES1   0.0000
   245 H140     -2.6522   -1.9605   -2.4827   H         1 RES1   0.0000
   246 H141      0.8646   -3.7280   -1.5175   H         1 RES1   0.0000
   247 H142     -0.0877   -1.5848   -3.4381   H         1 RES1   0.0000
   248 H143      1.2791   -2.5860   -3.8247   H         1 RES1   0.0000
   249 H144     -1.5802   -3.5390   -3.5353   H         1 RES1   0.0000
   250 H145     -0.2300   -4.6447   -3.3178   H         1 RES1   0.0000
   251 H146     -0.4447   -3.8010   -4.8326   H         1 RES1   0.0000
   252 H147      2.8810   -3.1777   -3.4109   H         1 RES1   0.0000
   253 H148      4.4875   -3.1538   -2.7319   H         1 RES1   0.0000
   254 H149      4.4897   -1.9544   -4.7923   H         1 RES1   0.0000
   255 H150      4.9006   -0.8807   -3.4723   H         1 RES1   0.0000
   256 H151      2.3962   -0.1285   -3.5974   H         1 RES1   0.0000
   257 H152      2.4354   -0.8514   -5.2083   H         1 RES1   0.0000
   258 H153      4.3263    1.3570   -4.2392   H         1 RES1   0.0000
   259 H154      2.8298    1.6028   -5.1257   H         1 RES1   0.0000
   260 H155      4.3585    1.9340   -6.7348   H         1 RES1   0.0000
   261 H156      3.9002    0.2705   -7.0455   H         1 RES1   0.0000
   262 H157      6.1808    0.2801   -7.3872   H         1 RES1   0.0000
   263 H158      6.1459   -0.3112   -5.7416   H         1 RES1   0.0000
   264 H159      6.6392    2.0184   -4.9355   H         1 RES1   0.0000
   265 H160      6.7522    2.5559   -6.6046   H         1 RES1   0.0000
   266 H161      8.6357    1.0467   -7.0171   H         1 RES1   0.0000
   267 H162      8.4347    0.3058   -5.4351   H         1 RES1   0.0000
   268 H163      8.8344    2.8272   -4.5946   H         1 RES1   0.0000
   269 H164      9.6741    2.9575   -6.1314   H         1 RES1   0.0000
   270 H165     10.2757    0.9486   -3.9246   H         1 RES1   0.0000
   271 H166     11.2845    2.2915   -4.4468   H         1 RES1   0.0000
   272 H167     11.0403    0.9067   -5.5050   H         1 RES1   0.0000
   273 H168      3.6252   -0.8769   -0.0237   H         1 RES1   0.0000
   274 H169      4.8828   -1.0053   -1.2370   H         1 RES1   0.0000
   275 H170      4.0361   -3.2165    0.6963   H         1 RES1   0.0000
   276 H171      5.3189   -3.3640   -0.5169   H         1 RES1   0.0000
   277 H172      5.1267   -1.2979    1.7049   H         1 RES1   0.0000
   278 H173      6.3651   -1.2791    0.4699   H         1 RES1   0.0000
   279 H174      7.2049   -3.4907    1.3225   H         1 RES1   0.0000
   280 H175      6.1299   -3.3288    2.7022   H         1 RES1   0.0000
   281 H176      8.0132   -1.0696    1.9654   H         1 RES1   0.0000
   282 H177      8.6810   -2.4921    2.7348   H         1 RES1   0.0000
   283 H178      8.0163   -0.3648    4.1123   H         1 RES1   0.0000
   284 H179      7.9015   -1.9695    4.8060   H         1 RES1   0.0000
   285 H180      5.5864   -2.0294    4.6610   H         1 RES1   0.0000
   286 H181      5.4998   -0.7321    3.4703   H         1 RES1   0.0000
   287 H182      6.6216   -0.0820    6.1793   H         1 RES1   0.0000
   288 H183      4.8840   -0.2860    6.0290   H         1 RES1   0.0000
   289 H184      4.9640    1.3977    4.0967   H         1 RES1   0.0000
   290 H185      6.6053    1.7745    4.6076   H         1 RES1   0.0000
   291 H186      4.9918    3.3287    5.6742   H         1 RES1   0.0000
   292 H187      4.1286    1.9597    6.3916   H         1 RES1   0.0000
   293 H188      5.7788    2.3335    6.8915   H         1 RES1   0.0000
   294 C95       1.8829   -7.4253   -7.5741   C.3       1 RES1   0.0000
   295 C96       0.8724   -6.3893   -8.0617   C.3       1 RES1   0.0000
   296 C97      -0.5408   -6.6226   -7.5266   C.3       1 RES1   0.0000
   297 C98      -1.5263   -5.5425   -7.9876   C.3       1 RES1   0.0000
   298 C99      -1.3868   -4.2308   -7.2092   C.3       1 RES1   0.0000
   299 C100     -1.9696   -3.0293   -7.9539   C.3       1 RES1   0.0000
   300 C101     -2.0465   -1.7635   -7.0923   C.3       1 RES1   0.0000
   301 C102     -0.6871   -1.1928   -6.6827   C.3       1 RES1   0.0000
   302 C103     -0.7691    0.1697   -5.9767   C.3       1 RES1   0.0000
   303 C104     -1.7428    0.1743   -4.7918   C.3       1 RES1   0.0000
   304 N5       -1.6664    1.3703   -3.9505   N.am      1 RES1   0.0000
   305 C105     -2.2631    2.5830   -4.5121   C.3       1 RES1   0.0000
   306 C106     -1.2731    3.6459   -4.9991   C.3       1 RES1   0.0000
   307 C107     -2.0355    4.8138   -5.6375   C.3       1 RES1   0.0000
   308 C108     -2.9463    5.5858   -4.6664   C.3       1 RES1   0.0000
   309 C109     -4.4373    5.2788   -4.8366   C.3       1 RES1   0.0000
   310 C110     -5.2907    5.8841   -3.7167   C.3       1 RES1   0.0000
   311 C111     -5.2696    5.0908   -2.4045   C.3       1 RES1   0.0000
   312 C112     -6.3841    4.0518   -2.2466   C.3       1 RES1   0.0000
   313 C113     -6.2539    2.8047   -3.1344   C.3       1 RES1   0.0000
   314 C114     -7.1134    2.8635   -4.3921   C.3       1 RES1   0.0000
   315 C115     -1.1850    1.2870   -2.7140   C.2       1 RES1   0.0000
   316 O7       -0.7058    0.2513   -2.2073   O.2       1 RES1   0.0000
   317 C116     -1.2955    2.4949   -1.7721   C.3       1 RES1   0.0000
   318 C117     -2.6980    2.4407   -1.1481   C.3       1 RES1   0.0000
   319 O8       -0.3008    2.3325   -0.7444   O.3       1 RES1   0.0000
   320 C118      0.8488    3.1819   -0.8935   C.3       1 RES1   0.0000
   321 C119      0.7031    4.4841   -0.0612   C.3       1 RES1   0.0000
   322 C120     -0.7301    4.9827    0.0830   C.3       1 RES1   0.0000
   323 C121      2.0804    2.3881   -0.4104   C.2       1 RES1   0.0000
   324 O9        1.8475    1.4136    0.3327   O.2       1 RES1   0.0000
   325 N6        3.3086    2.7673   -0.7796   N.am      1 RES1   0.0000
   326 C122      3.6262    4.0284   -1.4494   C.3       1 RES1   0.0000
   327 C123      4.5338    4.9888   -0.6568   C.3       1 RES1   0.0000
   328 C124      3.9788    5.5891    0.6364   C.3       1 RES1   0.0000
   329 C125      3.9965    4.6694    1.8600   C.3       1 RES1   0.0000
   330 C126      5.4048    4.3525    2.3735   C.3       1 RES1   0.0000
   331 C127      6.0745    5.5167    3.0991   C.3       1 RES1   0.0000
   332 C128      7.4999    5.1910    3.5455   C.3       1 RES1   0.0000
   333 C129      8.4615    4.9536    2.3821   C.3       1 RES1   0.0000
   334 C130      9.9181    4.9103    2.8374   C.3       1 RES1   0.0000
   335 C131     10.8661    4.6246    1.6791   C.3       1 RES1   0.0000
   336 C132      4.4986    1.9528   -0.4731   C.3       1 RES1   0.0000
   337 C133      5.2661    1.4989   -1.7341   C.3       1 RES1   0.0000
   338 C134      6.6579    0.9066   -1.4176   C.3       1 RES1   0.0000
   339 C135      7.2529   -0.0386   -2.4955   C.3       1 RES1   0.0000
   340 C136      7.2912   -1.5183   -2.0948   C.3       1 RES1   0.0000
   341 C137      8.1257   -2.4328   -2.9963   C.3       1 RES1   0.0000
   342 C138      7.6380   -2.4902   -4.4533   C.3       1 RES1   0.0000
   343 C139      7.6325   -3.9101   -5.0437   C.3       1 RES1   0.0000
   344 C140      6.2435   -4.5638   -5.0296   C.3       1 RES1   0.0000
   345 C141      5.4953   -4.2704   -6.3264   C.3       1 RES1   0.0000
   346 H189      2.8649   -7.2167   -7.9980   H         1 RES1   0.0000
   347 H190      1.5939   -8.4308   -7.8758   H         1 RES1   0.0000
   348 H191      1.9708   -7.4076   -6.4870   H         1 RES1   0.0000
   349 H192      0.8411   -6.4167   -9.1521   H         1 RES1   0.0000
   350 H193      1.2253   -5.3966   -7.7701   H         1 RES1   0.0000
   351 H194     -0.5239   -6.6696   -6.4339   H         1 RES1   0.0000
   352 H195     -0.8882   -7.5903   -7.8891   H         1 RES1   0.0000
   353 H196     -2.5473   -5.9101   -7.8785   H         1 RES1   0.0000
   354 H197     -1.3637   -5.3444   -9.0466   H         1 RES1   0.0000
   355 H198     -0.3283   -4.0412   -7.0238   H         1 RES1   0.0000
   356 H199     -1.8953   -4.3419   -6.2476   H         1 RES1   0.0000
   357 H200     -2.9826   -3.2745   -8.2837   H         1 RES1   0.0000
   358 H201     -1.3690   -2.8399   -8.8462   H         1 RES1   0.0000
   359 H202     -2.6268   -2.0012   -6.1985   H         1 RES1   0.0000
   360 H203     -2.5890   -1.0080   -7.6622   H         1 RES1   0.0000
   361 H204     -0.0775   -1.0637   -7.5789   H         1 RES1   0.0000
   362 H205     -0.1724   -1.9030   -6.0357   H         1 RES1   0.0000
   363 H206     -1.0793    0.9206   -6.7037   H         1 RES1   0.0000
   364 H207      0.2302    0.4287   -5.6215   H         1 RES1   0.0000
   365 H208     -1.5429   -0.6703   -4.1354   H         1 RES1   0.0000
   366 H209     -2.7671    0.0949   -5.1643   H         1 RES1   0.0000
   367 H210     -2.9393    3.0361   -3.7840   H         1 RES1   0.0000
   368 H211     -2.8565    2.2768   -5.3760   H         1 RES1   0.0000
   369 H212     -0.5949    3.2104   -5.7360   H         1 RES1   0.0000
   370 H213     -0.6552    4.0171   -4.1773   H         1 RES1   0.0000
   371 H214     -2.6324    4.4214   -6.4611   H         1 RES1   0.0000
   372 H215     -1.3067    5.4985   -6.0697   H         1 RES1   0.0000
   373 H216     -2.8132    6.6559   -4.8234   H         1 RES1   0.0000
   374 H217     -2.6451    5.3874   -3.6347   H         1 RES1   0.0000
   375 H218     -4.5998    4.2036   -4.8809   H         1 RES1   0.0000
   376 H219     -4.7671    5.6963   -5.7888   H         1 RES1   0.0000
   377 H220     -6.3219    5.9707   -4.0586   H         1 RES1   0.0000
   378 H221     -4.9323    6.8973   -3.5254   H         1 RES1   0.0000
   379 H222     -5.3696    5.7923   -1.5742   H         1 RES1   0.0000
   380 H223     -4.3029    4.5936   -2.2937   H         1 RES1   0.0000
   381 H224     -7.3440    4.5282   -2.4458   H         1 RES1   0.0000
   382 H225     -6.3952    3.7350   -1.1996   H         1 RES1   0.0000
   383 H226     -6.5477    1.9223   -2.5600   H         1 RES1   0.0000
   384 H227     -5.2080    2.6623   -3.4194   H         1 RES1   0.0000
   385 H228     -8.1661    2.8747   -4.1268   H         1 RES1   0.0000
   386 H229     -6.9358    1.9937   -5.0210   H         1 RES1   0.0000
   387 H230     -6.9011    3.7535   -4.9752   H         1 RES1   0.0000
   388 H231     -1.1441    3.4492   -2.2797   H         1 RES1   0.0000
   389 H232     -2.6838    1.7669   -0.2911   H         1 RES1   0.0000
   390 H233     -3.4402    2.0811   -1.8585   H         1 RES1   0.0000
   391 H234     -3.0028    3.4237   -0.8016   H         1 RES1   0.0000
   392 H235      0.9796    3.4015   -1.9596   H         1 RES1   0.0000
   393 H236      1.1260    4.3287    0.9340   H         1 RES1   0.0000
   394 H237      1.2843    5.2661   -0.5455   H         1 RES1   0.0000
   395 H238     -1.3545    4.2229    0.5432   H         1 RES1   0.0000
   396 H239     -1.1425    5.2776   -0.8791   H         1 RES1   0.0000
   397 H240     -0.7333    5.8683    0.7127   H         1 RES1   0.0000
   398 H241      2.7138    4.5422   -1.7358   H         1 RES1   0.0000
   399 H242      4.1500    3.7851   -2.3790   H         1 RES1   0.0000
   400 H243      4.7487    5.8097   -1.3424   H         1 RES1   0.0000
   401 H244      5.4873    4.5034   -0.4625   H         1 RES1   0.0000
   402 H245      2.9660    5.9577    0.4732   H         1 RES1   0.0000
   403 H246      4.5809    6.4648    0.8716   H         1 RES1   0.0000
   404 H247      3.4778    3.7329    1.6362   H         1 RES1   0.0000
   405 H248      3.4388    5.1664    2.6567   H         1 RES1   0.0000
   406 H249      6.0386    4.0557    1.5385   H         1 RES1   0.0000
   407 H250      5.3441    3.5043    3.0574   H         1 RES1   0.0000
   408 H251      5.4813    5.7829    3.9754   H         1 RES1   0.0000
   409 H252      6.1075    6.3906    2.4485   H         1 RES1   0.0000
   410 H253      7.4967    4.3172    4.2004   H         1 RES1   0.0000
   411 H254      7.8727    6.0312    4.1312   H         1 RES1   0.0000
   412 H255      8.3509    5.7544    1.6485   H         1 RES1   0.0000
   413 H256      8.2290    4.0107    1.8812   H         1 RES1   0.0000
   414 H257     10.0357    4.1422    3.6033   H         1 RES1   0.0000
   415 H258     10.1837    5.8654    3.2904   H         1 RES1   0.0000
   416 H259     10.6408    3.6607    1.2272   H         1 RES1   0.0000
   417 H260     11.8979    4.6093    2.0200   H         1 RES1   0.0000
   418 H261     10.7750    5.3895    0.9116   H         1 RES1   0.0000
   419 H262      4.1666    1.0777    0.0855   H         1 RES1   0.0000
   420 H263      5.1724    2.5265    0.1661   H         1 RES1   0.0000
   421 H264      5.4238    2.3392   -2.4126   H         1 RES1   0.0000
   422 H265      4.6363    0.7833   -2.2577   H         1 RES1   0.0000
   423 H266      6.6223    0.3815   -0.4621   H         1 RES1   0.0000
   424 H267      7.3441    1.7444   -1.2894   H         1 RES1   0.0000
   425 H268      8.2840    0.2543   -2.6919   H         1 RES1   0.0000
   426 H269      6.7159    0.0896   -3.4362   H         1 RES1   0.0000
   427 H270      6.2940   -1.9521   -2.0821   H         1 RES1   0.0000
   428 H271      7.7010   -1.5826   -1.0846   H         1 RES1   0.0000
   429 H272      8.0578   -3.4319   -2.5586   H         1 RES1   0.0000
   430 H273      9.1756   -2.1426   -2.9699   H         1 RES1   0.0000
   431 H274      8.2701   -1.8540   -5.0731   H         1 RES1   0.0000
   432 H275      6.6261   -2.0893   -4.5054   H         1 RES1   0.0000
   433 H276      8.3560   -4.5240   -4.5037   H         1 RES1   0.0000
   434 H277      7.9773   -3.8619   -6.0756   H         1 RES1   0.0000
   435 H278      5.6817   -4.2025   -4.1646   H         1 RES1   0.0000
   436 H279      6.3548   -5.6409   -4.9105   H         1 RES1   0.0000
   437 H280      5.5355   -3.2120   -6.5714   H         1 RES1   0.0000
   438 H281      4.4560   -4.5821   -6.2846   H         1 RES1   0.0000
   439 H282      5.9642   -4.8158   -7.1369   H         1 RES1   0.0000
@<TRIPOS>BOND
     1     1    24    1
     2     1    27    1
     3     1    32    1
     4     1   170    1
     5     1   173    1
     6     1   178    1
     7     1   316    1
     8     1   319    1
     9     1   324    1
    10     2     3    1
    11     2    54    1
    12     2    55    1
    13     2    56    1
    14     3     4    1
    15     3    57    1
    16     3    58    1
    17     4     5    1
    18     4    59    1
    19     4    60    1
    20     5     6    1
    21     5    61    1
    22     5    62    1
    23     6     7    1
    24     6    63    1
    25     6    64    1
    26     7     8    1
    27     7    65    1
    28     7    66    1
    29     8     9    1
    30     8    67    1
    31     8    68    1
    32     9    10    1
    33     9    69    1
    34     9    70    1
    35    10    11    1
    36    10    71    1
    37    10    72    1
    38    11    12    1
    39    11    73    1
    40    11    74    1
    41    12    13    1
    42    12    23    1
    43    13    14    1
    44    13    75    1
    45    13    76    1
    46    14    15    1
    47    14    77    1
    48    14    78    1
    49    15    16    1
    50    15    79    1
    51    15    80    1
    52    16    17    1
    53    16    81    1
    54    16    82    1
    55    17    18    1
    56    17    83    1
    57    17    84    1
    58    18    19    1
    59    18    85    1
    60    18    86    1
    61    19    20    1
    62    19    87    1
    63    19    88    1
    64    20    21    1
    65    20    89    1
    66    20    90    1
    67    21    22    1
    68    21    91    1
    69    21    92    1
    70    22    93    1
    71    22    94    1
    72    22    95    1
    73    23    24    2
    74    23    25    1
    75    25    26    1
    76    25    27    1
    77    25    96    1
    78    26    97    1
    79    26    98    1
    80    26    99    1
    81    27    28    1
    82    28    29    1
    83    28    31    1
    84    28   100    1
    85    29    30    1
    86    29   101    1
    87    29   102    1
    88    30   103    1
    89    30   104    1
    90    30   105    1
    91    31    32    2
    92    31    33    1
    93    33    34    1
    94    33    44    1
    95    34    35    1
    96    34   106    1
    97    34   107    1
    98    35    36    1
    99    35   108    1
   100    35   109    1
   101    36    37    1
   102    36   110    1
   103    36   111    1
   104    37    38    1
   105    37   112    1
   106    37   113    1
   107    38    39    1
   108    38   114    1
   109    38   115    1
   110    39    40    1
   111    39   116    1
   112    39   117    1
   113    40    41    1
   114    40   118    1
   115    40   119    1
   116    41    42    1
   117    41   120    1
   118    41   121    1
   119    42    43    1
   120    42   122    1
   121    42   123    1
   122    43   124    1
   123    43   125    1
   124    43   126    1
   125    44    45    1
   126    44   127    1
   127    44   128    1
   128    45    46    1
   129    45   129    1
   130    45   130    1
   131    46    47    1
   132    46   131    1
   133    46   132    1
   134    47    48    1
   135    47   133    1
   136    47   134    1
   137    48    49    1
   138    48   135    1
   139    48   136    1
   140    49    50    1
   141    49   137    1
   142    49   138    1
   143    50    51    1
   144    50   139    1
   145    50   140    1
   146    51    52    1
   147    51   141    1
   148    51   142    1
   149    52    53    1
   150    52   143    1
   151    52   144    1
   152    53   145    1
   153    53   146    1
   154    53   147    1
   155   148   149    1
   156   148   200    1
   157   148   201    1
   158   148   202    1
   159   149   150    1
   160   149   203    1
   161   149   204    1
   162   150   151    1
   163   150   205    1
   164   150   206    1
   165   151   152    1
   166   151   207    1
   167   151   208    1
   168   152   153    1
   169   152   209    1
   170   152   210    1
   171   153   154    1
   172   153   211    1
   173   153   212    1
   174   154   155    1
   175   154   213    1
   176   154   214    1
   177   155   156    1
   178   155   215    1
   179   155   216    1
   180   156   157    1
   181   156   217    1
   182   156   218    1
   183   157   158    1
   184   157   219    1
   185   157   220    1
   186   158   159    1
   187   158   169    1
   188   159   160    1
   189   159   221    1
   190   159   222    1
   191   160   161    1
   192   160   223    1
   193   160   224    1
   194   161   162    1
   195   161   225    1
   196   161   226    1
   197   162   163    1
   198   162   227    1
   199   162   228    1
   200   163   164    1
   201   163   229    1
   202   163   230    1
   203   164   165    1
   204   164   231    1
   205   164   232    1
   206   165   166    1
   207   165   233    1
   208   165   234    1
   209   166   167    1
   210   166   235    1
   211   166   236    1
   212   167   168    1
   213   167   237    1
   214   167   238    1
   215   168   239    1
   216   168   240    1
   217   168   241    1
   218   169   170    2
   219   169   171    1
   220   171   172    1
   221   171   173    1
   222   171   242    1
   223   172   243    1
   224   172   244    1
   225   172   245    1
   226   173   174    1
   227   174   175    1
   228   174   177    1
   229   174   246    1
   230   175   176    1
   231   175   247    1
   232   175   248    1
   233   176   249    1
   234   176   250    1
   235   176   251    1
   236   177   178    2
   237   177   179    1
   238   179   180    1
   239   179   190    1
   240   180   181    1
   241   180   252    1
   242   180   253    1
   243   181   182    1
   244   181   254    1
   245   181   255    1
   246   182   183    1
   247   182   256    1
   248   182   257    1
   249   183   184    1
   250   183   258    1
   251   183   259    1
   252   184   185    1
   253   184   260    1
   254   184   261    1
   255   185   186    1
   256   185   262    1
   257   185   263    1
   258   186   187    1
   259   186   264    1
   260   186   265    1
   261   187   188    1
   262   187   266    1
   263   187   267    1
   264   188   189    1
   265   188   268    1
   266   188   269    1
   267   189   270    1
   268   189   271    1
   269   189   272    1
   270   190   191    1
   271   190   273    1
   272   190   274    1
   273   191   192    1
   274   191   275    1
   275   191   276    1
   276   192   193    1
   277   192   277    1
   278   192   278    1
   279   193   194    1
   280   193   279    1
   281   193   280    1
   282   194   195    1
   283   194   281    1
   284   194   282    1
   285   195   196    1
   286   195   283    1
   287   195   284    1
   288   196   197    1
   289   196   285    1
   290   196   286    1
   291   197   198    1
   292   197   287    1
   293   197   288    1
   294   198   199    1
   295   198   289    1
   296   198   290    1
   297   199   291    1
   298   199   292    1
   299   199   293    1
   300   294   295    1
   301   294   346    1
   302   294   347    1
   303   294   348    1
   304   295   296    1
   305   295   349    1
   306   295   350    1
   307   296   297    1
   308   296   351    1
   309   296   352    1
   310   297   298    1
   311   297   353    1
   312   297   354    1
   313   298   299    1
   314   298   355    1
   315   298   356    1
   316   299   300    1
   317   299   357    1
   318   299   358    1
   319   300   301    1
   320   300   359    1
   321   300   360    1
   322   301   302    1
   323   301   361    1
   324   301   362    1
   325   302   303    1
   326   302   363    1
   327   302   364    1
   328   303   304    1
   329   303   365    1
   330   303   366    1
   331   304   305    1
   332   304   315    1
   333   305   306    1
   334   305   367    1
   335   305   368    1
   336   306   307    1
   337   306   369    1
   338   306   370    1
   339   307   308    1
   340   307   371    1
   341   307   372    1
   342   308   309    1
   343   308   373    1
   344   308   374    1
   345   309   310    1
   346   309   375    1
   347   309   376    1
   348   310   311    1
   349   310   377    1
   350   310   378    1
   351   311   312    1
   352   311   379    1
   353   311   380    1
   354   312   313    1
   355   312   381    1
   356   312   382    1
   357   313   314    1
   358   313   383    1
   359   313   384    1
   360   314   385    1
   361   314   386    1
   362   314   387    1
   363   315   316    2
   364   315   317    1
   365   317   318    1
   366   317   319    1
   367   317   388    1
   368   318   389    1
   369   318   390    1
   370   318   391    1
   371   319   320    1
   372   320   321    1
   373   320   323    1
   374   320   392    1
   375   321   322    1
   376   321   393    1
   377   321   394    1
   378   322   395    1
   379   322   396    1
   380   322   397    1
   381   323   324    2
   382   323   325    1
   383   325   326    1
   384   325   336    1
   385   326   327    1
   386   326   398    1
   387   326   399    1
   388   327   328    1
   389   327   400    1
   390   327   401    1
   391   328   329    1
   392   328   402    1
   393   328   403    1
   394   329   330    1
   395   329   404    1
   396   329   405    1
   397   330   331    1
   398   330   406    1
   399   330   407    1
   400   331   332    1
   401   331   408    1
   402   331   409    1
   403   332   333    1
   404   332   410    1
   405   332   411    1
   406   333   334    1
   407   333   412    1
   408   333   413    1
   409   334   335    1
   410   334   414    1
   411   334   415    1
   412   335   416    1
   413   335   417    1
   414   335   418    1
   415   336   337    1
   416   336   419    1
   417   336   420    1
   418   337   338    1
   419   337   421    1
   420   337   422    1
   421   338   339    1
   422   338   423    1
   423   338   424    1
   424   339   340    1
   425   339   425    1
   426   339   426    1
   427   340   341    1
   428   340   427    1
   429   340   428    1
   430   341   342    1
   431   341   429    1
   432   341   430    1
   433   342   343    1
   434   342   431    1
   435   342   432    1
   436   343   344    1
   437   343   433    1
   438   343   434    1
   439   344   345    1
   440   344   435    1
   441   344   436    1
   442   345   437    1
   443   345   438    1
   444   345   439    1
@<TRIPOS>SUBSTRUCTURE
     1 RES1      439 GROUP             0 ****  ****    0  
