@<TRIPOS>MOLECULE
am_c3_9H2O_c0_0_nunpairedes_0_charge_3 Charge: 3 Unpaired_Electrons: 3 XTB_Unpaired_Electrons: 0 XTB_Charge: 3
   160   165     1     0     0
SMALL
NoCharges
****
Generated from Architector

@<TRIPOS>ATOM
     1 Nd1      -0.0823    0.1258    0.0173   Nd        1 RES1   0.0000
     2 C1       -6.0034    2.5044   -1.3991   C.3       1 RES1   0.0000
     3 C2       -5.5953    2.6330   -2.8622   C.3       1 RES1   0.0000
     4 C3       -4.4170    1.7329   -3.2401   C.3       1 RES1   0.0000
     5 N1       -3.1493    2.0928   -2.6079   N.am      1 RES1   0.0000
     6 C4       -2.3696    3.1525   -3.2586   C.3       1 RES1   0.0000
     7 C5       -2.0390    4.3434   -2.3569   C.3       1 RES1   0.0000
     8 C6       -3.2540    5.1866   -1.9914   C.3       1 RES1   0.0000
     9 C7       -2.5819    1.4017   -1.6334   C.2       1 RES1   0.0000
    10 O1       -1.4120    1.5995   -1.2494   O.2       1 RES1   0.0000
    11 C8       -3.3641    0.2896   -0.9105   C.3       1 RES1   0.0000
    12 O2       -2.7235    0.0245    0.3343   O.3       1 RES1   0.0000
    13 C9       -3.3297    0.6503    1.4624   C.3       1 RES1   0.0000
    14 C10      -2.3043    1.4557    2.2823   C.2       1 RES1   0.0000
    15 O3       -1.1124    1.4465    1.9094   O.2       1 RES1   0.0000
    16 N2       -2.7665    2.1112    3.3457   N.am      1 RES1   0.0000
    17 C11      -4.1650    2.0975    3.7860   C.3       1 RES1   0.0000
    18 C12      -4.4216    1.2449    5.0413   C.3       1 RES1   0.0000
    19 C13      -4.8551   -0.1841    4.7324   C.3       1 RES1   0.0000
    20 C14      -1.9893    3.1299    4.0708   C.3       1 RES1   0.0000
    21 C15      -0.5698    2.7771    4.5236   C.3       1 RES1   0.0000
    22 C16      -0.4558    2.2791    5.9702   C.3       1 RES1   0.0000
    23 H1       -6.8056    3.2030   -1.1789   H         1 RES1   0.0000
    24 H2       -6.3735    1.5007   -1.1885   H         1 RES1   0.0000
    25 H3       -5.1691    2.7373   -0.7350   H         1 RES1   0.0000
    26 H4       -6.4378    2.3405   -3.4907   H         1 RES1   0.0000
    27 H5       -5.3503    3.6704   -3.0850   H         1 RES1   0.0000
    28 H6       -4.6628    0.6986   -2.9969   H         1 RES1   0.0000
    29 H7       -4.2606    1.7983   -4.3207   H         1 RES1   0.0000
    30 H8       -1.4350    2.7042   -3.6111   H         1 RES1   0.0000
    31 H9       -2.9370    3.5052   -4.1186   H         1 RES1   0.0000
    32 H10      -1.5323    3.9785   -1.4625   H         1 RES1   0.0000
    33 H11      -1.3353    4.9644   -2.9135   H         1 RES1   0.0000
    34 H12      -3.9548    4.6290   -1.3754   H         1 RES1   0.0000
    35 H13      -2.9402    6.0647   -1.4342   H         1 RES1   0.0000
    36 H14      -3.7587    5.5324   -2.8914   H         1 RES1   0.0000
    37 H15      -4.4149    0.5379   -0.7544   H         1 RES1   0.0000
    38 H16      -3.2957   -0.6380   -1.4951   H         1 RES1   0.0000
    39 H17      -4.1278    1.3269    1.1405   H         1 RES1   0.0000
    40 H18      -3.7515   -0.1504    2.0797   H         1 RES1   0.0000
    41 H19      -4.4296    3.1362    4.0016   H         1 RES1   0.0000
    42 H20      -4.8263    1.7540    2.9964   H         1 RES1   0.0000
    43 H21      -3.5330    1.2335    5.6715   H         1 RES1   0.0000
    44 H22      -5.2208    1.7243    5.6061   H         1 RES1   0.0000
    45 H23      -4.0535   -0.7560    4.2736   H         1 RES1   0.0000
    46 H24      -5.1389   -0.6883    5.6526   H         1 RES1   0.0000
    47 H25      -5.7189   -0.1878    4.0703   H         1 RES1   0.0000
    48 H26      -1.9597    4.0206    3.4311   H         1 RES1   0.0000
    49 H27      -2.5609    3.3906    4.9618   H         1 RES1   0.0000
    50 H28      -0.1534    2.0530    3.8267   H         1 RES1   0.0000
    51 H29       0.0107    3.6944    4.4359   H         1 RES1   0.0000
    52 H30      -0.3189    1.2050    6.0165   H         1 RES1   0.0000
    53 H31       0.4017    2.7310    6.4600   H         1 RES1   0.0000
    54 H32      -1.3313    2.5451    6.5576   H         1 RES1   0.0000
    55 C17       4.6527    4.1707    2.2906   C.3       1 RES1   0.0000
    56 C18       3.5045    5.0811    2.7061   C.3       1 RES1   0.0000
    57 C19       2.1845    4.3199    2.8517   C.3       1 RES1   0.0000
    58 N3        1.6421    3.8027    1.6008   N.am      1 RES1   0.0000
    59 C20       0.8650    4.7538    0.7970   C.3       1 RES1   0.0000
    60 C21       1.3267    5.0095   -0.6396   C.3       1 RES1   0.0000
    61 C22       2.7081    5.6412   -0.7329   C.3       1 RES1   0.0000
    62 C23       1.6075    2.5199    1.2654   C.2       1 RES1   0.0000
    63 O4        1.0565    2.1106    0.2253   O.2       1 RES1   0.0000
    64 C24       2.2376    1.4597    2.1899   C.3       1 RES1   0.0000
    65 O5        2.1595    0.1778    1.5660   O.3       1 RES1   0.0000
    66 C25       3.3911   -0.3298    1.0609   C.3       1 RES1   0.0000
    67 C26       3.2979   -0.5628   -0.4565   C.2       1 RES1   0.0000
    68 O6        2.2441   -0.2590   -1.0427   O.2       1 RES1   0.0000
    69 N4        4.3814   -1.0441   -1.0662   N.am      1 RES1   0.0000
    70 C27       5.6092   -1.4405   -0.3790   C.3       1 RES1   0.0000
    71 C28       5.7975   -2.9575   -0.2402   C.3       1 RES1   0.0000
    72 C29       4.7030   -3.6346    0.5758   C.3       1 RES1   0.0000
    73 C30       4.4745   -0.9685   -2.5275   C.3       1 RES1   0.0000
    74 C31       3.5966   -1.9333   -3.3211   C.3       1 RES1   0.0000
    75 C32       3.9035   -3.4092   -3.0850   C.3       1 RES1   0.0000
    76 H33       5.5547    4.7545    2.1292   H         1 RES1   0.0000
    77 H34       4.8638    3.4400    3.0710   H         1 RES1   0.0000
    78 H35       4.4186    3.6517    1.3602   H         1 RES1   0.0000
    79 H36       3.7286    5.5266    3.6773   H         1 RES1   0.0000
    80 H37       3.3920    5.8869    1.9836   H         1 RES1   0.0000
    81 H38       2.3291    3.5038    3.5570   H         1 RES1   0.0000
    82 H39       1.4365    5.0034    3.2641   H         1 RES1   0.0000
    83 H40      -0.1620    4.3728    0.7685   H         1 RES1   0.0000
    84 H41       0.8800    5.7048    1.3296   H         1 RES1   0.0000
    85 H42       1.2791    4.0871   -1.2201   H         1 RES1   0.0000
    86 H43       0.5973    5.7081   -1.0554   H         1 RES1   0.0000
    87 H44       3.4741    4.9824   -0.3335   H         1 RES1   0.0000
    88 H45       2.9482    5.8438   -1.7724   H         1 RES1   0.0000
    89 H46       2.7292    6.5880   -0.1966   H         1 RES1   0.0000
    90 H47       3.2742    1.7076    2.4320   H         1 RES1   0.0000
    91 H48       1.6565    1.3696    3.1181   H         1 RES1   0.0000
    92 H49       4.2015    0.3865    1.2366   H         1 RES1   0.0000
    93 H50       3.6127   -1.2527    1.6094   H         1 RES1   0.0000
    94 H51       6.4444   -1.0482   -0.9643   H         1 RES1   0.0000
    95 H52       5.6561   -0.9900    0.6093   H         1 RES1   0.0000
    96 H53       5.8430   -3.4128   -1.2265   H         1 RES1   0.0000
    97 H54       6.7604   -3.1213    0.2445   H         1 RES1   0.0000
    98 H55       3.7263   -3.4221    0.1422   H         1 RES1   0.0000
    99 H56       4.8412   -4.7136    0.5800   H         1 RES1   0.0000
   100 H57       4.7163   -3.2940    1.6099   H         1 RES1   0.0000
   101 H58       4.1960    0.0508   -2.8095   H         1 RES1   0.0000
   102 H59       5.5185   -1.1292   -2.7965   H         1 RES1   0.0000
   103 H60       2.5534   -1.6910   -3.1071   H         1 RES1   0.0000
   104 H61       3.7737   -1.7042   -4.3725   H         1 RES1   0.0000
   105 H62       3.7130   -3.6977   -2.0551   H         1 RES1   0.0000
   106 H63       3.2966   -4.0385   -3.7307   H         1 RES1   0.0000
   107 H64       4.9413   -3.6286   -3.3232   H         1 RES1   0.0000
   108 C33       2.3753   -2.6292    4.6652   C.3       1 RES1   0.0000
   109 C34       1.6337   -3.9595    4.7646   C.3       1 RES1   0.0000
   110 C35       0.8880   -4.3499    3.4792   C.3       1 RES1   0.0000
   111 N5       -0.0935   -3.3485    3.0608   N.am      1 RES1   0.0000
   112 C36      -1.2836   -3.2432    3.9100   C.3       1 RES1   0.0000
   113 C37      -1.2378   -2.2297    5.0476   C.3       1 RES1   0.0000
   114 C38      -1.2674   -0.7987    4.5393   C.3       1 RES1   0.0000
   115 C39       0.0172   -2.6402    1.9439   C.2       1 RES1   0.0000
   116 O7       -0.6289   -1.6075    1.6810   O.2       1 RES1   0.0000
   117 C40       0.9264   -3.2084    0.8388   C.3       1 RES1   0.0000
   118 O8        0.8116   -2.3952   -0.3219   O.3       1 RES1   0.0000
   119 C41       0.5686   -3.0868   -1.5497   C.3       1 RES1   0.0000
   120 C42      -0.4978   -2.3206   -2.3393   C.2       1 RES1   0.0000
   121 O9       -0.9496   -1.2691   -1.8365   O.2       1 RES1   0.0000
   122 N6       -0.9747   -2.8669   -3.4547   N.am      1 RES1   0.0000
   123 C43      -0.3329   -3.9544   -4.1922   C.3       1 RES1   0.0000
   124 C44       0.8158   -3.5375   -5.1273   C.3       1 RES1   0.0000
   125 C45       0.4317   -2.6955   -6.3394   C.3       1 RES1   0.0000
   126 C46      -2.3444   -2.5566   -3.8653   C.3       1 RES1   0.0000
   127 C47      -2.5502   -1.7635   -5.1511   C.3       1 RES1   0.0000
   128 C48      -2.0370   -0.3355   -5.0544   C.3       1 RES1   0.0000
   129 H65       2.8427   -2.3993    5.6209   H         1 RES1   0.0000
   130 H66       3.1646   -2.6820    3.9162   H         1 RES1   0.0000
   131 H67       1.7008   -1.8129    4.4074   H         1 RES1   0.0000
   132 H68       2.3566   -4.7519    4.9635   H         1 RES1   0.0000
   133 H69       0.9371   -3.9380    5.6009   H         1 RES1   0.0000
   134 H70       1.6278   -4.5075    2.6980   H         1 RES1   0.0000
   135 H71       0.3705   -5.2973    3.6512   H         1 RES1   0.0000
   136 H72      -2.1224   -2.9868    3.2576   H         1 RES1   0.0000
   137 H73      -1.4599   -4.2363    4.3275   H         1 RES1   0.0000
   138 H74      -2.1134   -2.4169    5.6700   H         1 RES1   0.0000
   139 H75      -0.3586   -2.3740    5.6687   H         1 RES1   0.0000
   140 H76      -1.9195   -0.7181    3.6746   H         1 RES1   0.0000
   141 H77      -1.6375   -0.1447    5.3199   H         1 RES1   0.0000
   142 H78      -0.2757   -0.4696    4.2332   H         1 RES1   0.0000
   143 H79       1.9755   -3.2422    1.1527   H         1 RES1   0.0000
   144 H80       0.5847   -4.2309    0.6331   H         1 RES1   0.0000
   145 H81       1.5001   -3.1893   -2.1157   H         1 RES1   0.0000
   146 H82       0.1666   -4.0877   -1.3443   H         1 RES1   0.0000
   147 H83       0.0468   -4.7065   -3.4940   H         1 RES1   0.0000
   148 H84      -1.1109   -4.4242   -4.7960   H         1 RES1   0.0000
   149 H85       1.5768   -3.0012   -4.5658   H         1 RES1   0.0000
   150 H86       1.2573   -4.4645   -5.4992   H         1 RES1   0.0000
   151 H87       0.0958   -1.7032   -6.0523   H         1 RES1   0.0000
   152 H88       1.3014   -2.5773   -6.9817   H         1 RES1   0.0000
   153 H89      -0.3323   -3.1867   -6.9369   H         1 RES1   0.0000
   154 H90      -2.8436   -3.5253   -3.9684   H         1 RES1   0.0000
   155 H91      -2.8014   -2.0117   -3.0380   H         1 RES1   0.0000
   156 H92      -2.0872   -2.2710   -5.9927   H         1 RES1   0.0000
   157 H93      -3.6262   -1.7571   -5.3293   H         1 RES1   0.0000
   158 H94      -0.9536   -0.3114   -4.9903   H         1 RES1   0.0000
   159 H95      -2.3313    0.2319   -5.9321   H         1 RES1   0.0000
   160 H96      -2.4297    0.1478   -4.1657   H         1 RES1   0.0000
@<TRIPOS>BOND
     1     1    10    1
     2     1    12    1
     3     1    15    1
     4     1    63    1
     5     1    65    1
     6     1    68    1
     7     1   116    1
     8     1   118    1
     9     1   121    1
    10     2     3    1
    11     2    23    1
    12     2    24    1
    13     2    25    1
    14     3     4    1
    15     3    26    1
    16     3    27    1
    17     4     5    1
    18     4    28    1
    19     4    29    1
    20     5     6    1
    21     5     9    1
    22     6     7    1
    23     6    30    1
    24     6    31    1
    25     7     8    1
    26     7    32    1
    27     7    33    1
    28     8    34    1
    29     8    35    1
    30     8    36    1
    31     9    10    2
    32     9    11    1
    33    11    12    1
    34    11    37    1
    35    11    38    1
    36    12    13    1
    37    13    14    1
    38    13    39    1
    39    13    40    1
    40    14    15    2
    41    14    16    1
    42    16    17    1
    43    16    20    1
    44    17    18    1
    45    17    41    1
    46    17    42    1
    47    18    19    1
    48    18    43    1
    49    18    44    1
    50    19    45    1
    51    19    46    1
    52    19    47    1
    53    20    21    1
    54    20    48    1
    55    20    49    1
    56    21    22    1
    57    21    50    1
    58    21    51    1
    59    22    52    1
    60    22    53    1
    61    22    54    1
    62    55    56    1
    63    55    76    1
    64    55    77    1
    65    55    78    1
    66    56    57    1
    67    56    79    1
    68    56    80    1
    69    57    58    1
    70    57    81    1
    71    57    82    1
    72    58    59    1
    73    58    62    1
    74    59    60    1
    75    59    83    1
    76    59    84    1
    77    60    61    1
    78    60    85    1
    79    60    86    1
    80    61    87    1
    81    61    88    1
    82    61    89    1
    83    62    63    2
    84    62    64    1
    85    64    65    1
    86    64    90    1
    87    64    91    1
    88    65    66    1
    89    66    67    1
    90    66    92    1
    91    66    93    1
    92    67    68    2
    93    67    69    1
    94    69    70    1
    95    69    73    1
    96    70    71    1
    97    70    94    1
    98    70    95    1
    99    71    72    1
   100    71    96    1
   101    71    97    1
   102    72    98    1
   103    72    99    1
   104    72   100    1
   105    73    74    1
   106    73   101    1
   107    73   102    1
   108    74    75    1
   109    74   103    1
   110    74   104    1
   111    75   105    1
   112    75   106    1
   113    75   107    1
   114   108   109    1
   115   108   129    1
   116   108   130    1
   117   108   131    1
   118   109   110    1
   119   109   132    1
   120   109   133    1
   121   110   111    1
   122   110   134    1
   123   110   135    1
   124   111   112    1
   125   111   115    1
   126   112   113    1
   127   112   136    1
   128   112   137    1
   129   113   114    1
   130   113   138    1
   131   113   139    1
   132   114   140    1
   133   114   141    1
   134   114   142    1
   135   115   116    2
   136   115   117    1
   137   117   118    1
   138   117   143    1
   139   117   144    1
   140   118   119    1
   141   119   120    1
   142   119   145    1
   143   119   146    1
   144   120   121    2
   145   120   122    1
   146   122   123    1
   147   122   126    1
   148   123   124    1
   149   123   147    1
   150   123   148    1
   151   124   125    1
   152   124   149    1
   153   124   150    1
   154   125   151    1
   155   125   152    1
   156   125   153    1
   157   126   127    1
   158   126   154    1
   159   126   155    1
   160   127   128    1
   161   127   156    1
   162   127   157    1
   163   128   158    1
   164   128   159    1
   165   128   160    1
@<TRIPOS>SUBSTRUCTURE
     1 RES1      160 GROUP             0 ****  ****    0  
