@<TRIPOS>MOLECULE
cn9_YICLED_0_nunpairedes_0_charge_3 Charge: 3 Unpaired_Electrons: 3 XTB_Unpaired_Electrons: 0 XTB_Charge: 3
   277   282     1     0     0
SMALL
NoCharges
****
Generated from Architector

@<TRIPOS>ATOM
     1 Nd1       0.1495   -0.0690    0.0037   Nd        1 RES1   0.0000
     2 C1        5.9441   -3.9079    3.4502   C.3       1 RES1   0.0000
     3 C2        4.9484   -5.0195    3.7579   C.3       1 RES1   0.0000
     4 C3        3.6569   -4.5175    4.4057   C.3       1 RES1   0.0000
     5 C4        3.8494   -4.0360    5.8444   C.3       1 RES1   0.0000
     6 C5        2.5405   -3.6158    6.5184   C.3       1 RES1   0.0000
     7 C6        1.9671   -2.3503    5.8812   C.3       1 RES1   0.0000
     8 C7        0.8114   -1.7167    6.6453   C.3       1 RES1   0.0000
     9 C8        0.4257   -0.3633    6.0351   C.3       1 RES1   0.0000
    10 N1       -0.0723   -0.4842    4.6676   N.am      1 RES1   0.0000
    11 C9       -1.3884   -1.0983    4.5926   C.3       1 RES1   0.0000
    12 C10       0.5596   -0.2252    3.5233   C.2       1 RES1   0.0000
    13 O1        0.0510   -0.5537    2.4252   O.2       1 RES1   0.0000
    14 C11       1.9039    0.4953    3.5516   C.3       1 RES1   0.0000
    15 C12       2.9939   -0.5321    3.1213   C.3       1 RES1   0.0000
    16 C13       3.2827   -0.6930    1.6312   C.3       1 RES1   0.0000
    17 O2        2.2694   -1.4169    0.9117   O.3       1 RES1   0.0000
    18 C14       2.7444   -2.7046    0.4838   C.3       1 RES1   0.0000
    19 C15       1.5538   -3.5853    0.1359   C.3       1 RES1   0.0000
    20 C16       1.0174   -3.4115   -1.2911   C.3       1 RES1   0.0000
    21 C17       1.8250   -4.1863   -2.3387   C.3       1 RES1   0.0000
    22 C18       1.0672   -4.4482   -3.6468   C.3       1 RES1   0.0000
    23 C19       0.7515   -3.2203   -4.4937   C.3       1 RES1   0.0000
    24 C20       1.8064    1.7259    2.6467   C.2       1 RES1   0.0000
    25 O3        1.4965    1.5837    1.4604   O.2       1 RES1   0.0000
    26 N2        2.0650    2.9426    3.1568   N.am      1 RES1   0.0000
    27 C21       2.2713    3.2494    4.5575   C.3       1 RES1   0.0000
    28 C22       2.2113    4.0961    2.2631   C.3       1 RES1   0.0000
    29 C23       0.9729    4.9927    2.2348   C.3       1 RES1   0.0000
    30 C24       1.1047    6.3247    1.4960   C.3       1 RES1   0.0000
    31 C25      -0.2332    7.0873    1.5503   C.3       1 RES1   0.0000
    32 C26      -1.2402    6.6462    0.4838   C.3       1 RES1   0.0000
    33 C27      -2.6496    7.2146    0.6821   C.3       1 RES1   0.0000
    34 C28      -3.4363    6.5501    1.8110   C.3       1 RES1   0.0000
    35 C29      -4.8903    7.0019    1.8594   C.3       1 RES1   0.0000
    36 H1        6.8080   -4.3134    2.9316   H         1 RES1   0.0000
    37 H2        6.2946   -3.4350    4.3623   H         1 RES1   0.0000
    38 H3        5.4932   -3.1448    2.8160   H         1 RES1   0.0000
    39 H4        5.4183   -5.7504    4.4152   H         1 RES1   0.0000
    40 H5        4.6938   -5.5361    2.8297   H         1 RES1   0.0000
    41 H6        2.9238   -5.3285    4.4091   H         1 RES1   0.0000
    42 H7        3.2545   -3.7094    3.7856   H         1 RES1   0.0000
    43 H8        4.5365   -3.1886    5.8646   H         1 RES1   0.0000
    44 H9        4.3045   -4.8409    6.4238   H         1 RES1   0.0000
    45 H10       2.7312   -3.4293    7.5761   H         1 RES1   0.0000
    46 H11       1.8213   -4.4329    6.4545   H         1 RES1   0.0000
    47 H12       1.6320   -2.5942    4.8694   H         1 RES1   0.0000
    48 H13       2.7765   -1.6155    5.8248   H         1 RES1   0.0000
    49 H14       1.1218   -1.5413    7.6742   H         1 RES1   0.0000
    50 H15      -0.0426   -2.3924    6.6749   H         1 RES1   0.0000
    51 H16       1.3049    0.2754    6.0718   H         1 RES1   0.0000
    52 H17      -0.3546    0.0947    6.6490   H         1 RES1   0.0000
    53 H18      -2.0145   -0.7120    5.3920   H         1 RES1   0.0000
    54 H19      -1.3081   -2.1801    4.7074   H         1 RES1   0.0000
    55 H20      -1.8487   -0.8667    3.6307   H         1 RES1   0.0000
    56 H21       2.1554    0.8063    4.5571   H         1 RES1   0.0000
    57 H22       2.7131   -1.5040    3.5258   H         1 RES1   0.0000
    58 H23       3.9269   -0.2391    3.5981   H         1 RES1   0.0000
    59 H24       4.2409   -1.2155    1.5239   H         1 RES1   0.0000
    60 H25       3.3793    0.2774    1.1552   H         1 RES1   0.0000
    61 H26       3.2936   -3.1750    1.3063   H         1 RES1   0.0000
    62 H27       3.4222   -2.5767   -0.3676   H         1 RES1   0.0000
    63 H28       0.7696   -3.3157    0.8541   H         1 RES1   0.0000
    64 H29       1.8244   -4.6326    0.2969   H         1 RES1   0.0000
    65 H30       0.9649   -2.3228   -1.5254   H         1 RES1   0.0000
    66 H31       0.0099   -3.8283   -1.3109   H         1 RES1   0.0000
    67 H32       2.0714   -5.1625   -1.9142   H         1 RES1   0.0000
    68 H33       2.7714   -3.6913   -2.5456   H         1 RES1   0.0000
    69 H34       0.1341   -4.9653   -3.4128   H         1 RES1   0.0000
    70 H35       1.6743   -5.1258   -4.2495   H         1 RES1   0.0000
    71 H36       0.1740   -2.4808   -3.9408   H         1 RES1   0.0000
    72 H37       0.1733   -3.5243   -5.3631   H         1 RES1   0.0000
    73 H38       1.6625   -2.7550   -4.8596   H         1 RES1   0.0000
    74 H39       1.5832    2.7108    5.2035   H         1 RES1   0.0000
    75 H40       2.0960    4.3057    4.7180   H         1 RES1   0.0000
    76 H41       3.2982    3.0477    4.8512   H         1 RES1   0.0000
    77 H42       2.4324    3.7127    1.2702   H         1 RES1   0.0000
    78 H43       3.0709    4.6698    2.6171   H         1 RES1   0.0000
    79 H44       0.7030    5.2345    3.2602   H         1 RES1   0.0000
    80 H45       0.1547    4.4427    1.7876   H         1 RES1   0.0000
    81 H46       1.3868    6.1673    0.4508   H         1 RES1   0.0000
    82 H47       1.8823    6.9266    1.9701   H         1 RES1   0.0000
    83 H48      -0.0381    8.1502    1.4152   H         1 RES1   0.0000
    84 H49      -0.6652    6.9630    2.5446   H         1 RES1   0.0000
    85 H50      -1.3092    5.5561    0.4657   H         1 RES1   0.0000
    86 H51      -0.8699    6.9639   -0.4944   H         1 RES1   0.0000
    87 H52      -3.2053    7.0847   -0.2484   H         1 RES1   0.0000
    88 H53      -2.5799    8.2844    0.8726   H         1 RES1   0.0000
    89 H54      -2.9718    6.7869    2.7687   H         1 RES1   0.0000
    90 H55      -3.4140    5.4627    1.6786   H         1 RES1   0.0000
    91 H56      -4.9530    8.0801    1.9691   H         1 RES1   0.0000
    92 H57      -5.3997    6.5454    2.7048   H         1 RES1   0.0000
    93 H58      -5.4176    6.7211    0.9509   H         1 RES1   0.0000
    94 C30      -7.3820    1.7290    7.5721   C.3       1 RES1   0.0000
    95 C31      -6.0225    1.4508    6.9450   C.3       1 RES1   0.0000
    96 C32      -5.4439    2.6564    6.1985   C.3       1 RES1   0.0000
    97 C33      -6.2858    3.1831    5.0276   C.3       1 RES1   0.0000
    98 C34      -5.8182    2.7389    3.6377   C.3       1 RES1   0.0000
    99 C35      -5.8558    1.2206    3.4658   C.3       1 RES1   0.0000
   100 C36      -5.0223    0.6675    2.3047   C.3       1 RES1   0.0000
   101 C37      -5.1511    1.4635    1.0026   C.3       1 RES1   0.0000
   102 N3       -4.9489    0.6028   -0.1612   N.am      1 RES1   0.0000
   103 C38      -6.1837    0.1500   -0.7867   C.3       1 RES1   0.0000
   104 C39      -3.7273    0.1779   -0.5115   C.2       1 RES1   0.0000
   105 O4       -2.7008    0.4314    0.1292   O.2       1 RES1   0.0000
   106 C40      -3.7015   -0.6710   -1.7885   C.3       1 RES1   0.0000
   107 C41      -3.7971   -2.1674   -1.4119   C.3       1 RES1   0.0000
   108 C42      -2.4416   -2.8216   -1.1395   C.3       1 RES1   0.0000
   109 O5       -1.7132   -2.2397   -0.0531   O.3       1 RES1   0.0000
   110 C43      -1.8233   -2.9983    1.1591   C.3       1 RES1   0.0000
   111 C44      -3.2427   -3.1638    1.6974   C.3       1 RES1   0.0000
   112 C45      -3.2650   -4.0267    2.9577   C.3       1 RES1   0.0000
   113 C46      -4.6834   -4.4316    3.3670   C.3       1 RES1   0.0000
   114 C47      -5.5955   -3.2825    3.7990   C.3       1 RES1   0.0000
   115 C48      -5.0646   -2.5189    5.0042   C.3       1 RES1   0.0000
   116 C49      -2.4504   -0.3536   -2.5971   C.2       1 RES1   0.0000
   117 O6       -1.3317   -0.3033   -2.0549   O.2       1 RES1   0.0000
   118 N4       -2.6260   -0.1309   -3.8984   N.am      1 RES1   0.0000
   119 C50      -3.9004   -0.2879   -4.5800   C.3       1 RES1   0.0000
   120 C51      -1.5175    0.2770   -4.7520   C.3       1 RES1   0.0000
   121 C52      -1.7151    1.7028   -5.2900   C.3       1 RES1   0.0000
   122 C53      -0.9729    2.7404   -4.4503   C.3       1 RES1   0.0000
   123 C54      -1.4205    4.1809   -4.7089   C.3       1 RES1   0.0000
   124 C55      -2.7332    4.5179   -4.0041   C.3       1 RES1   0.0000
   125 C56      -3.1350    5.9927   -4.1399   C.3       1 RES1   0.0000
   126 C57      -4.1471    6.2721   -5.2521   C.3       1 RES1   0.0000
   127 C58      -3.6224    6.0183   -6.6585   C.3       1 RES1   0.0000
   128 H59      -7.6494    0.9289    8.2570   H         1 RES1   0.0000
   129 H60      -8.1625    1.7958    6.8188   H         1 RES1   0.0000
   130 H61      -7.3680    2.6618    8.1293   H         1 RES1   0.0000
   131 H62      -6.1071    0.5836    6.2873   H         1 RES1   0.0000
   132 H63      -5.3188    1.1864    7.7384   H         1 RES1   0.0000
   133 H64      -4.4430    2.4000    5.8460   H         1 RES1   0.0000
   134 H65      -5.3289    3.4587    6.9281   H         1 RES1   0.0000
   135 H66      -6.2640    4.2737    5.0424   H         1 RES1   0.0000
   136 H67      -7.3232    2.8885    5.1643   H         1 RES1   0.0000
   137 H68      -4.8108    3.1150    3.4664   H         1 RES1   0.0000
   138 H69      -6.4671    3.2158    2.9012   H         1 RES1   0.0000
   139 H70      -6.8953    0.9103    3.3533   H         1 RES1   0.0000
   140 H71      -5.4766    0.7556    4.3739   H         1 RES1   0.0000
   141 H72      -5.3534   -0.3568    2.1150   H         1 RES1   0.0000
   142 H73      -3.9655    0.6118    2.5798   H         1 RES1   0.0000
   143 H74      -4.4272    2.2805    0.9724   H         1 RES1   0.0000
   144 H75      -6.1429    1.9049    0.9164   H         1 RES1   0.0000
   145 H76      -6.9978    0.2887   -0.0828   H         1 RES1   0.0000
   146 H77      -6.1536   -0.9078   -1.0387   H         1 RES1   0.0000
   147 H78      -6.4228    0.7306   -1.6777   H         1 RES1   0.0000
   148 H79      -4.5735   -0.3921   -2.3747   H         1 RES1   0.0000
   149 H80      -4.2665   -2.7151   -2.2276   H         1 RES1   0.0000
   150 H81      -4.4399   -2.2677   -0.5387   H         1 RES1   0.0000
   151 H82      -1.8229   -2.7403   -2.0390   H         1 RES1   0.0000
   152 H83      -2.6038   -3.8881   -0.9451   H         1 RES1   0.0000
   153 H84      -1.2078   -2.4521    1.8788   H         1 RES1   0.0000
   154 H85      -1.3949   -3.9987    0.9910   H         1 RES1   0.0000
   155 H86      -3.8626   -3.6666    0.9563   H         1 RES1   0.0000
   156 H87      -3.6732   -2.1836    1.8978   H         1 RES1   0.0000
   157 H88      -2.7758   -3.5042    3.7771   H         1 RES1   0.0000
   158 H89      -2.6992   -4.9411    2.7636   H         1 RES1   0.0000
   159 H90      -4.6083   -5.1407    4.1944   H         1 RES1   0.0000
   160 H91      -5.1500   -4.9539    2.5275   H         1 RES1   0.0000
   161 H92      -6.5615   -3.7196    4.0550   H         1 RES1   0.0000
   162 H93      -5.7657   -2.5944    2.9678   H         1 RES1   0.0000
   163 H94      -4.7785   -3.2182    5.7843   H         1 RES1   0.0000
   164 H95      -5.8323   -1.8608    5.3984   H         1 RES1   0.0000
   165 H96      -4.1993   -1.9131    4.7462   H         1 RES1   0.0000
   166 H97      -4.3322   -1.2673   -4.3741   H         1 RES1   0.0000
   167 H98      -3.7264   -0.2182   -5.6494   H         1 RES1   0.0000
   168 H99      -4.6124    0.4958   -4.3100   H         1 RES1   0.0000
   169 H100     -1.4380   -0.4436   -5.5706   H         1 RES1   0.0000
   170 H101     -0.6139    0.2234   -4.1456   H         1 RES1   0.0000
   171 H102     -2.7796    1.9299   -5.3004   H         1 RES1   0.0000
   172 H103     -1.3576    1.7580   -6.3167   H         1 RES1   0.0000
   173 H104      0.0901    2.6537   -4.6763   H         1 RES1   0.0000
   174 H105     -1.1183    2.5130   -3.3908   H         1 RES1   0.0000
   175 H106     -1.5200    4.3489   -5.7803   H         1 RES1   0.0000
   176 H107     -0.6461    4.8634   -4.3489   H         1 RES1   0.0000
   177 H108     -2.6279    4.2670   -2.9424   H         1 RES1   0.0000
   178 H109     -3.5308    3.8946   -4.4055   H         1 RES1   0.0000
   179 H110     -2.2430    6.5974   -4.3093   H         1 RES1   0.0000
   180 H111     -3.5763    6.3259   -3.1983   H         1 RES1   0.0000
   181 H112     -4.4374    7.3212   -5.1824   H         1 RES1   0.0000
   182 H113     -5.0447    5.6742   -5.0797   H         1 RES1   0.0000
   183 H114     -2.7101    6.5841   -6.8294   H         1 RES1   0.0000
   184 H115     -4.3568    6.3412   -7.3916   H         1 RES1   0.0000
   185 H116     -3.4218    4.9637   -6.8324   H         1 RES1   0.0000
   186 C59       4.9348    2.4266    7.7240   C.3       1 RES1   0.0000
   187 C60       4.6701    1.2945    6.7378   C.3       1 RES1   0.0000
   188 C61       5.9270    0.7557    6.0456   C.3       1 RES1   0.0000
   189 C62       6.5645    1.6562    4.9754   C.3       1 RES1   0.0000
   190 C63       5.8674    1.4881    3.6239   C.3       1 RES1   0.0000
   191 C64       6.3964    2.3134    2.4317   C.3       1 RES1   0.0000
   192 C65       5.2218    2.9025    1.6180   C.3       1 RES1   0.0000
   193 C66       5.2095    2.6231    0.1087   C.3       1 RES1   0.0000
   194 N5        3.9934    3.1511   -0.5283   N.am      1 RES1   0.0000
   195 C67       4.0408    4.5760   -0.8045   C.3       1 RES1   0.0000
   196 C68       2.9539    2.3603   -0.8134   C.2       1 RES1   0.0000
   197 O7        2.9237    1.1691   -0.5042   O.2       1 RES1   0.0000
   198 C69       1.8091    2.9159   -1.7089   C.3       1 RES1   0.0000
   199 C70       0.5426    3.5347   -1.0359   C.3       1 RES1   0.0000
   200 C71      -0.7343    2.7347   -0.6598   C.3       1 RES1   0.0000
   201 O8       -0.7311    2.1845    0.6629   O.3       1 RES1   0.0000
   202 C72      -1.6487    2.7693    1.6160   C.3       1 RES1   0.0000
   203 C73      -1.1259    2.5078    3.0321   C.3       1 RES1   0.0000
   204 C74      -2.1046    2.7322    4.1820   C.3       1 RES1   0.0000
   205 C75      -2.3749    4.2011    4.5195   C.3       1 RES1   0.0000
   206 C76      -1.2846    4.8892    5.3427   C.3       1 RES1   0.0000
   207 C77      -0.9968    4.2591    6.6985   C.3       1 RES1   0.0000
   208 C78       1.6158    1.6888   -2.5929   C.2       1 RES1   0.0000
   209 O9        1.0037    0.6975   -2.1507   O.2       1 RES1   0.0000
   210 N6        2.2593    1.6654   -3.7604   N.am      1 RES1   0.0000
   211 C79       2.9649    2.8048   -4.3164   C.3       1 RES1   0.0000
   212 C80       2.4091    0.4186   -4.5015   C.3       1 RES1   0.0000
   213 C81       3.8123   -0.1713   -4.3020   C.3       1 RES1   0.0000
   214 C82       3.8266   -1.1882   -3.1641   C.3       1 RES1   0.0000
   215 C83       5.2336   -1.5892   -2.7130   C.3       1 RES1   0.0000
   216 C84       5.8089   -0.5883   -1.7142   C.3       1 RES1   0.0000
   217 C85       7.0683   -1.0817   -0.9935   C.3       1 RES1   0.0000
   218 C86       8.3784   -0.5416   -1.5661   C.3       1 RES1   0.0000
   219 C87       8.6927   -1.0116   -2.9785   C.3       1 RES1   0.0000
   220 H117      4.0007    2.7729    8.1616   H         1 RES1   0.0000
   221 H118      5.4202    3.2718    7.2436   H         1 RES1   0.0000
   222 H119      5.5763    2.0823    8.5299   H         1 RES1   0.0000
   223 H120      3.9492    1.6301    5.9892   H         1 RES1   0.0000
   224 H121      4.2023    0.4695    7.2834   H         1 RES1   0.0000
   225 H122      5.6781   -0.2064    5.5880   H         1 RES1   0.0000
   226 H123      6.6644    0.5568    6.8205   H         1 RES1   0.0000
   227 H124      7.6106    1.3734    4.8754   H         1 RES1   0.0000
   228 H125      6.5299    2.6963    5.2964   H         1 RES1   0.0000
   229 H126      4.8170    1.7458    3.7670   H         1 RES1   0.0000
   230 H127      5.9189    0.4324    3.3532   H         1 RES1   0.0000
   231 H128      7.0232    1.6887    1.7981   H         1 RES1   0.0000
   232 H129      7.0289    3.1190    2.7944   H         1 RES1   0.0000
   233 H130      5.1877    3.9802    1.7838   H         1 RES1   0.0000
   234 H131      4.2973    2.4739    2.0030   H         1 RES1   0.0000
   235 H132      5.2443    1.5479   -0.0668   H         1 RES1   0.0000
   236 H133      6.0650    3.0883   -0.3858   H         1 RES1   0.0000
   237 H134      4.6997    5.0365   -0.0753   H         1 RES1   0.0000
   238 H135      3.0610    5.0368   -0.7140   H         1 RES1   0.0000
   239 H136      4.4507    4.7927   -1.7924   H         1 RES1   0.0000
   240 H137      2.2280    3.7318   -2.2926   H         1 RES1   0.0000
   241 H138      0.1912    4.2858   -1.7427   H         1 RES1   0.0000
   242 H139      0.8674    4.0585   -0.1441   H         1 RES1   0.0000
   243 H140     -0.9032    1.9134   -1.3680   H         1 RES1   0.0000
   244 H141     -1.5777    3.4312   -0.7441   H         1 RES1   0.0000
   245 H142     -2.6174    2.2798    1.5091   H         1 RES1   0.0000
   246 H143     -1.7535    3.8392    1.4141   H         1 RES1   0.0000
   247 H144     -0.2551    3.1185    3.2266   H         1 RES1   0.0000
   248 H145     -0.8303    1.4623    3.0437   H         1 RES1   0.0000
   249 H146     -1.6836    2.2560    5.0689   H         1 RES1   0.0000
   250 H147     -3.0421    2.2288    3.9650   H         1 RES1   0.0000
   251 H148     -3.3053    4.2602    5.0856   H         1 RES1   0.0000
   252 H149     -2.5184    4.7637    3.5993   H         1 RES1   0.0000
   253 H150     -1.6042    5.9182    5.5047   H         1 RES1   0.0000
   254 H151     -0.3565    4.9183    4.7760   H         1 RES1   0.0000
   255 H152     -1.9044    4.1451    7.2848   H         1 RES1   0.0000
   256 H153     -0.3117    4.8952    7.2539   H         1 RES1   0.0000
   257 H154     -0.5252    3.2808    6.6045   H         1 RES1   0.0000
   258 H155      2.3337    3.6922   -4.3105   H         1 RES1   0.0000
   259 H156      3.2080    2.5821   -5.3537   H         1 RES1   0.0000
   260 H157      3.9000    3.0110   -3.7917   H         1 RES1   0.0000
   261 H158      2.2116    0.6203   -5.5564   H         1 RES1   0.0000
   262 H159      1.6613   -0.2829   -4.1351   H         1 RES1   0.0000
   263 H160      4.5143    0.6344   -4.0980   H         1 RES1   0.0000
   264 H161      4.1386   -0.6638   -5.2162   H         1 RES1   0.0000
   265 H162      3.3020   -2.0746   -3.5185   H         1 RES1   0.0000
   266 H163      3.2800   -0.7800   -2.3053   H         1 RES1   0.0000
   267 H164      5.8907   -1.6874   -3.5763   H         1 RES1   0.0000
   268 H165      5.1891   -2.5718   -2.2353   H         1 RES1   0.0000
   269 H166      5.0253   -0.3806   -0.9798   H         1 RES1   0.0000
   270 H167      6.0301    0.3453   -2.2292   H         1 RES1   0.0000
   271 H168      7.0930   -2.1711   -1.0146   H         1 RES1   0.0000
   272 H169      7.0180   -0.7827    0.0566   H         1 RES1   0.0000
   273 H170      9.1880   -0.8674   -0.9119   H         1 RES1   0.0000
   274 H171      8.3569    0.5499   -1.5393   H         1 RES1   0.0000
   275 H172      8.6873   -2.0966   -3.0289   H         1 RES1   0.0000
   276 H173      9.6816   -0.6684   -3.2703   H         1 RES1   0.0000
   277 H174      7.9812   -0.6257   -3.7033   H         1 RES1   0.0000
@<TRIPOS>BOND
     1     1    13    1
     2     1    17    1
     3     1    25    1
     4     1   105    1
     5     1   109    1
     6     1   117    1
     7     1   197    1
     8     1   201    1
     9     1   209    1
    10     2     3    1
    11     2    36    1
    12     2    37    1
    13     2    38    1
    14     3     4    1
    15     3    39    1
    16     3    40    1
    17     4     5    1
    18     4    41    1
    19     4    42    1
    20     5     6    1
    21     5    43    1
    22     5    44    1
    23     6     7    1
    24     6    45    1
    25     6    46    1
    26     7     8    1
    27     7    47    1
    28     7    48    1
    29     8     9    1
    30     8    49    1
    31     8    50    1
    32     9    10    1
    33     9    51    1
    34     9    52    1
    35    10    11    1
    36    10    12    1
    37    11    53    1
    38    11    54    1
    39    11    55    1
    40    12    13    2
    41    12    14    1
    42    14    15    1
    43    14    24    1
    44    14    56    1
    45    15    16    1
    46    15    57    1
    47    15    58    1
    48    16    17    1
    49    16    59    1
    50    16    60    1
    51    17    18    1
    52    18    19    1
    53    18    61    1
    54    18    62    1
    55    19    20    1
    56    19    63    1
    57    19    64    1
    58    20    21    1
    59    20    65    1
    60    20    66    1
    61    21    22    1
    62    21    67    1
    63    21    68    1
    64    22    23    1
    65    22    69    1
    66    22    70    1
    67    23    71    1
    68    23    72    1
    69    23    73    1
    70    24    25    2
    71    24    26    1
    72    26    27    1
    73    26    28    1
    74    27    74    1
    75    27    75    1
    76    27    76    1
    77    28    29    1
    78    28    77    1
    79    28    78    1
    80    29    30    1
    81    29    79    1
    82    29    80    1
    83    30    31    1
    84    30    81    1
    85    30    82    1
    86    31    32    1
    87    31    83    1
    88    31    84    1
    89    32    33    1
    90    32    85    1
    91    32    86    1
    92    33    34    1
    93    33    87    1
    94    33    88    1
    95    34    35    1
    96    34    89    1
    97    34    90    1
    98    35    91    1
    99    35    92    1
   100    35    93    1
   101    94    95    1
   102    94   128    1
   103    94   129    1
   104    94   130    1
   105    95    96    1
   106    95   131    1
   107    95   132    1
   108    96    97    1
   109    96   133    1
   110    96   134    1
   111    97    98    1
   112    97   135    1
   113    97   136    1
   114    98    99    1
   115    98   137    1
   116    98   138    1
   117    99   100    1
   118    99   139    1
   119    99   140    1
   120   100   101    1
   121   100   141    1
   122   100   142    1
   123   101   102    1
   124   101   143    1
   125   101   144    1
   126   102   103    1
   127   102   104    1
   128   103   145    1
   129   103   146    1
   130   103   147    1
   131   104   105    2
   132   104   106    1
   133   106   107    1
   134   106   116    1
   135   106   148    1
   136   107   108    1
   137   107   149    1
   138   107   150    1
   139   108   109    1
   140   108   151    1
   141   108   152    1
   142   109   110    1
   143   110   111    1
   144   110   153    1
   145   110   154    1
   146   111   112    1
   147   111   155    1
   148   111   156    1
   149   112   113    1
   150   112   157    1
   151   112   158    1
   152   113   114    1
   153   113   159    1
   154   113   160    1
   155   114   115    1
   156   114   161    1
   157   114   162    1
   158   115   163    1
   159   115   164    1
   160   115   165    1
   161   116   117    2
   162   116   118    1
   163   118   119    1
   164   118   120    1
   165   119   166    1
   166   119   167    1
   167   119   168    1
   168   120   121    1
   169   120   169    1
   170   120   170    1
   171   121   122    1
   172   121   171    1
   173   121   172    1
   174   122   123    1
   175   122   173    1
   176   122   174    1
   177   123   124    1
   178   123   175    1
   179   123   176    1
   180   124   125    1
   181   124   177    1
   182   124   178    1
   183   125   126    1
   184   125   179    1
   185   125   180    1
   186   126   127    1
   187   126   181    1
   188   126   182    1
   189   127   183    1
   190   127   184    1
   191   127   185    1
   192   186   187    1
   193   186   220    1
   194   186   221    1
   195   186   222    1
   196   187   188    1
   197   187   223    1
   198   187   224    1
   199   188   189    1
   200   188   225    1
   201   188   226    1
   202   189   190    1
   203   189   227    1
   204   189   228    1
   205   190   191    1
   206   190   229    1
   207   190   230    1
   208   191   192    1
   209   191   231    1
   210   191   232    1
   211   192   193    1
   212   192   233    1
   213   192   234    1
   214   193   194    1
   215   193   235    1
   216   193   236    1
   217   194   195    1
   218   194   196    1
   219   195   237    1
   220   195   238    1
   221   195   239    1
   222   196   197    2
   223   196   198    1
   224   198   199    1
   225   198   208    1
   226   198   240    1
   227   199   200    1
   228   199   241    1
   229   199   242    1
   230   200   201    1
   231   200   243    1
   232   200   244    1
   233   201   202    1
   234   202   203    1
   235   202   245    1
   236   202   246    1
   237   203   204    1
   238   203   247    1
   239   203   248    1
   240   204   205    1
   241   204   249    1
   242   204   250    1
   243   205   206    1
   244   205   251    1
   245   205   252    1
   246   206   207    1
   247   206   253    1
   248   206   254    1
   249   207   255    1
   250   207   256    1
   251   207   257    1
   252   208   209    2
   253   208   210    1
   254   210   211    1
   255   210   212    1
   256   211   258    1
   257   211   259    1
   258   211   260    1
   259   212   213    1
   260   212   261    1
   261   212   262    1
   262   213   214    1
   263   213   263    1
   264   213   264    1
   265   214   215    1
   266   214   265    1
   267   214   266    1
   268   215   216    1
   269   215   267    1
   270   215   268    1
   271   216   217    1
   272   216   269    1
   273   216   270    1
   274   217   218    1
   275   217   271    1
   276   217   272    1
   277   218   219    1
   278   218   273    1
   279   218   274    1
   280   219   275    1
   281   219   276    1
   282   219   277    1
@<TRIPOS>SUBSTRUCTURE
     1 RES1      277 GROUP             0 ****  ****    0  
