@<TRIPOS>MOLECULE
am_c3_9H2O_c0_0_nunpairedes_0_charge_3 Charge: 3 Unpaired_Electrons: 3 XTB_Unpaired_Electrons: 0 XTB_Charge: 3
   224   227     1     0     0
SMALL
NoCharges
****
Generated from Architector

@<TRIPOS>ATOM
     1 Nd1      -0.0332   -0.1181   -0.0650   Nd        1 RES1   0.0000
     2 C1       -7.1910    3.0398   -1.1022   C.3       1 RES1   0.0000
     3 C2       -6.7616    2.7605   -2.5353   C.3       1 RES1   0.0000
     4 C3       -5.2484    2.8806   -2.7270   C.3       1 RES1   0.0000
     5 C4       -4.8486    2.7544   -4.2039   C.3       1 RES1   0.0000
     6 C5       -3.5822    1.9297   -4.4227   C.3       1 RES1   0.0000
     7 C6       -2.2011    2.5098   -4.0703   C.3       1 RES1   0.0000
     8 N1       -1.9997    3.1767   -2.7860   N.am      1 RES1   0.0000
     9 C7       -2.2804    4.6020   -2.7898   C.3       1 RES1   0.0000
    10 C8       -1.3351    2.5537   -1.8064   C.2       1 RES1   0.0000
    11 O1       -1.0595    1.3434   -1.8619   O.2       1 RES1   0.0000
    12 C9       -0.9426    3.3538   -0.5676   C.3       1 RES1   0.0000
    13 C10       0.5409    3.1731   -0.2406   C.2       1 RES1   0.0000
    14 O2        1.0301    2.0319   -0.1703   O.2       1 RES1   0.0000
    15 N2        1.2598    4.2654    0.0203   N.am      1 RES1   0.0000
    16 C11       0.7393    5.6193   -0.0395   C.3       1 RES1   0.0000
    17 C12       2.6484    4.1314    0.4544   C.3       1 RES1   0.0000
    18 C13       3.6506    4.7102   -0.5443   C.3       1 RES1   0.0000
    19 C14       3.6797    3.9379   -1.8599   C.3       1 RES1   0.0000
    20 C15       4.5798    4.6033   -2.9052   C.3       1 RES1   0.0000
    21 C16       4.0723    5.9506   -3.4293   C.3       1 RES1   0.0000
    22 C17       2.7202    5.8654   -4.1287   C.3       1 RES1   0.0000
    23 H1       -8.2592    2.8800   -0.9887   H         1 RES1   0.0000
    24 H2       -6.9630    4.0678   -0.8371   H         1 RES1   0.0000
    25 H3       -6.6740    2.3796   -0.4115   H         1 RES1   0.0000
    26 H4       -7.2557    3.4671   -3.2012   H         1 RES1   0.0000
    27 H5       -7.0882    1.7590   -2.8246   H         1 RES1   0.0000
    28 H6       -4.7453    2.0996   -2.1464   H         1 RES1   0.0000
    29 H7       -4.9246    3.8394   -2.3239   H         1 RES1   0.0000
    30 H8       -4.7618    3.7309   -4.6785   H         1 RES1   0.0000
    31 H9       -5.6430    2.2206   -4.7311   H         1 RES1   0.0000
    32 H10      -3.5077    1.6803   -5.4842   H         1 RES1   0.0000
    33 H11      -3.7295    0.9923   -3.8905   H         1 RES1   0.0000
    34 H12      -1.9242    3.2339   -4.8396   H         1 RES1   0.0000
    35 H13      -1.4917    1.6774   -4.1090   H         1 RES1   0.0000
    36 H14      -2.9338    4.8282   -3.6276   H         1 RES1   0.0000
    37 H15      -1.3649    5.1830   -2.9189   H         1 RES1   0.0000
    38 H16      -2.7831    4.9092   -1.8769   H         1 RES1   0.0000
    39 H17      -1.4684    2.8801    0.2716   H         1 RES1   0.0000
    40 H18      -1.2285    4.3956   -0.6298   H         1 RES1   0.0000
    41 H19      -0.1009    5.7577    0.6431   H         1 RES1   0.0000
    42 H20       0.4316    5.8793   -1.0527   H         1 RES1   0.0000
    43 H21       1.5252    6.3118    0.2518   H         1 RES1   0.0000
    44 H22       2.8421    3.0654    0.5926   H         1 RES1   0.0000
    45 H23       2.7540    4.6461    1.4150   H         1 RES1   0.0000
    46 H24       4.6363    4.6823   -0.0773   H         1 RES1   0.0000
    47 H25       3.4145    5.7547   -0.7411   H         1 RES1   0.0000
    48 H26       2.6629    3.8528   -2.2485   H         1 RES1   0.0000
    49 H27       4.0396    2.9231   -1.6655   H         1 RES1   0.0000
    50 H28       4.6927    3.9244   -3.7530   H         1 RES1   0.0000
    51 H29       5.5711    4.7507   -2.4720   H         1 RES1   0.0000
    52 H30       4.8076    6.3303   -4.1404   H         1 RES1   0.0000
    53 H31       4.0161    6.6763   -2.6164   H         1 RES1   0.0000
    54 H32       2.7555    5.1397   -4.9378   H         1 RES1   0.0000
    55 H33       2.4577    6.8316   -4.5508   H         1 RES1   0.0000
    56 H34       1.9315    5.5762   -3.4357   H         1 RES1   0.0000
    57 C18      -0.5296   -7.6974    0.7923   C.3       1 RES1   0.0000
    58 C19      -1.7698   -7.1414    1.4792   C.3       1 RES1   0.0000
    59 C20      -1.6923   -5.6208    1.6282   C.3       1 RES1   0.0000
    60 C21      -3.0190   -5.0097    2.0715   C.3       1 RES1   0.0000
    61 C22      -3.0262   -3.4783    2.0527   C.3       1 RES1   0.0000
    62 C23      -2.4836   -2.8109    3.3218   C.3       1 RES1   0.0000
    63 N3       -1.0434   -2.9567    3.5074   N.am      1 RES1   0.0000
    64 C24      -0.5802   -3.8878    4.5201   C.3       1 RES1   0.0000
    65 C25      -0.2559   -2.2098    2.7314   C.2       1 RES1   0.0000
    66 O3       -0.7286   -1.4247    1.8950   O.2       1 RES1   0.0000
    67 C26       1.2566   -2.3519    2.9091   C.3       1 RES1   0.0000
    68 C27       1.9562   -1.0092    2.7084   C.2       1 RES1   0.0000
    69 O4        1.5986   -0.2042    1.8330   O.2       1 RES1   0.0000
    70 N4        2.9614   -0.7131    3.5381   N.am      1 RES1   0.0000
    71 C28       3.5827   -1.6654    4.4361   C.3       1 RES1   0.0000
    72 C29       3.4465    0.6616    3.5976   C.3       1 RES1   0.0000
    73 C30       2.9926    1.3485    4.8883   C.3       1 RES1   0.0000
    74 C31       1.4770    1.5369    4.9687   C.3       1 RES1   0.0000
    75 C32       1.0102    1.8911    6.3854   C.3       1 RES1   0.0000
    76 C33       1.2032    0.7822    7.4248   C.3       1 RES1   0.0000
    77 C34       0.4545   -0.5052    7.0958   C.3       1 RES1   0.0000
    78 H35      -0.5900   -8.7777    0.7160   H         1 RES1   0.0000
    79 H36       0.3672   -7.4472    1.3543   H         1 RES1   0.0000
    80 H37      -0.4365   -7.2939   -0.2136   H         1 RES1   0.0000
    81 H38      -1.8814   -7.6028    2.4613   H         1 RES1   0.0000
    82 H39      -2.6516   -7.4094    0.8945   H         1 RES1   0.0000
    83 H40      -1.4096   -5.1829    0.6685   H         1 RES1   0.0000
    84 H41      -0.9083   -5.3717    2.3430   H         1 RES1   0.0000
    85 H42      -3.2812   -5.3659    3.0692   H         1 RES1   0.0000
    86 H43      -3.7962   -5.3645    1.3924   H         1 RES1   0.0000
    87 H44      -4.0582   -3.1351    1.9541   H         1 RES1   0.0000
    88 H45      -2.4613   -3.1059    1.1934   H         1 RES1   0.0000
    89 H46      -2.9844   -3.2158    4.2015   H         1 RES1   0.0000
    90 H47      -2.6934   -1.7375    3.2558   H         1 RES1   0.0000
    91 H48      -1.4187   -4.4908    4.8609   H         1 RES1   0.0000
    92 H49      -0.1715   -3.3641    5.3872   H         1 RES1   0.0000
    93 H50       0.1747   -4.5671    4.1282   H         1 RES1   0.0000
    94 H51       1.5688   -3.0329    2.1135   H         1 RES1   0.0000
    95 H52       1.5006   -2.7709    3.8808   H         1 RES1   0.0000
    96 H53       3.8117   -2.5901    3.9059   H         1 RES1   0.0000
    97 H54       2.9542   -1.8965    5.2980   H         1 RES1   0.0000
    98 H55       4.5118   -1.2359    4.8051   H         1 RES1   0.0000
    99 H56       3.0456    1.1873    2.7281   H         1 RES1   0.0000
   100 H57       4.5379    0.6636    3.5427   H         1 RES1   0.0000
   101 H58       3.4908    2.3165    4.9460   H         1 RES1   0.0000
   102 H59       3.3285    0.7573    5.7385   H         1 RES1   0.0000
   103 H60       0.9727    0.6230    4.6403   H         1 RES1   0.0000
   104 H61       1.1830    2.3476    4.2932   H         1 RES1   0.0000
   105 H62      -0.0488    2.1573    6.3491   H         1 RES1   0.0000
   106 H63       1.5578    2.7734    6.7195   H         1 RES1   0.0000
   107 H64       0.8429    1.1566    8.3836   H         1 RES1   0.0000
   108 H65       2.2651    0.5646    7.5525   H         1 RES1   0.0000
   109 H66      -0.6033   -0.3023    6.9425   H         1 RES1   0.0000
   110 H67       0.5466   -1.2105    7.9178   H         1 RES1   0.0000
   111 H68       0.8545   -0.9756    6.1974   H         1 RES1   0.0000
   112 C35       0.0391    1.7941   -8.5191   C.3       1 RES1   0.0000
   113 C36      -0.2419    2.5283   -7.2158   C.3       1 RES1   0.0000
   114 C37       0.5181    1.9410   -6.0290   C.3       1 RES1   0.0000
   115 C38       2.0302    2.0996   -6.1223   C.3       1 RES1   0.0000
   116 C39       2.6946    1.8051   -4.7777   C.3       1 RES1   0.0000
   117 C40       2.5952    0.3197   -4.4252   C.3       1 RES1   0.0000
   118 N5        3.3391   -0.0536   -3.2219   N.am      1 RES1   0.0000
   119 C41       4.7711   -0.0927   -3.4373   C.3       1 RES1   0.0000
   120 C42       2.6608   -0.3287   -2.1086   C.2       1 RES1   0.0000
   121 O5        1.4264   -0.2021   -2.0483   O.2       1 RES1   0.0000
   122 C43       3.4045   -0.8408   -0.8620   C.3       1 RES1   0.0000
   123 C44       2.6436   -2.0730   -0.3856   C.2       1 RES1   0.0000
   124 O6        1.4323   -1.9530   -0.1328   O.2       1 RES1   0.0000
   125 N6        3.2422   -3.2602   -0.2586   N.am      1 RES1   0.0000
   126 C45       2.4058   -4.4110    0.0460   C.3       1 RES1   0.0000
   127 C46       4.6598   -3.5753   -0.3523   C.3       1 RES1   0.0000
   128 C47       5.0305   -4.5450   -1.4810   C.3       1 RES1   0.0000
   129 C48       4.7570   -4.0203   -2.8909   C.3       1 RES1   0.0000
   130 C49       3.2893   -4.0716   -3.3187   C.3       1 RES1   0.0000
   131 C50       3.0841   -3.5881   -4.7538   C.3       1 RES1   0.0000
   132 C51       3.7358   -4.4879   -5.7936   C.3       1 RES1   0.0000
   133 H69      -0.6215    2.1574   -9.3006   H         1 RES1   0.0000
   134 H70      -0.1279    0.7255   -8.4004   H         1 RES1   0.0000
   135 H71       1.0634    1.9552   -8.8401   H         1 RES1   0.0000
   136 H72      -1.3128    2.4706   -7.0035   H         1 RES1   0.0000
   137 H73       0.0195    3.5822   -7.3265   H         1 RES1   0.0000
   138 H74       0.2636    0.8824   -5.9360   H         1 RES1   0.0000
   139 H75       0.2056    2.4511   -5.1164   H         1 RES1   0.0000
   140 H76       2.2656    3.1250   -6.4104   H         1 RES1   0.0000
   141 H77       2.4359    1.4402   -6.8878   H         1 RES1   0.0000
   142 H78       2.2152    2.3978   -3.9948   H         1 RES1   0.0000
   143 H79       3.7406    2.1045   -4.8372   H         1 RES1   0.0000
   144 H80       2.9875   -0.2734   -5.2566   H         1 RES1   0.0000
   145 H81       1.5525    0.0456   -4.2626   H         1 RES1   0.0000
   146 H82       5.0884    0.8485   -3.8874   H         1 RES1   0.0000
   147 H83       5.0164   -0.8966   -4.1356   H         1 RES1   0.0000
   148 H84       5.3477   -0.2212   -2.5287   H         1 RES1   0.0000
   149 H85       3.2654   -0.0665   -0.0958   H         1 RES1   0.0000
   150 H86       4.4577   -1.0246   -1.0381   H         1 RES1   0.0000
   151 H87       1.3629   -4.1019    0.0810   H         1 RES1   0.0000
   152 H88       2.7047   -4.8630    0.9928   H         1 RES1   0.0000
   153 H89       2.5122   -5.1508   -0.7441   H         1 RES1   0.0000
   154 H90       4.9541   -4.0286    0.6031   H         1 RES1   0.0000
   155 H91       5.2436   -2.6641   -0.4661   H         1 RES1   0.0000
   156 H92       4.5304   -5.5032   -1.3420   H         1 RES1   0.0000
   157 H93       6.1010   -4.7292   -1.3651   H         1 RES1   0.0000
   158 H94       5.3353   -4.6349   -3.5788   H         1 RES1   0.0000
   159 H95       5.1316   -2.9980   -2.9703   H         1 RES1   0.0000
   160 H96       2.6747   -3.4508   -2.6629   H         1 RES1   0.0000
   161 H97       2.9264   -5.0989   -3.2455   H         1 RES1   0.0000
   162 H98       3.4803   -2.5758   -4.8522   H         1 RES1   0.0000
   163 H99       2.0106   -3.5401   -4.9475   H         1 RES1   0.0000
   164 H100      4.8184   -4.4560   -5.7189   H         1 RES1   0.0000
   165 H101      3.4586   -4.1651   -6.7927   H         1 RES1   0.0000
   166 H102      3.4106   -5.5164   -5.6657   H         1 RES1   0.0000
   167 C52      -4.5721    6.1796   -0.2422   C.3       1 RES1   0.0000
   168 C53      -4.8860    5.2859    0.9499   C.3       1 RES1   0.0000
   169 C54      -4.2112    3.9142    0.8697   C.3       1 RES1   0.0000
   170 C55      -4.7629    2.9698    1.9357   C.3       1 RES1   0.0000
   171 C56      -4.0046    1.6383    2.0284   C.3       1 RES1   0.0000
   172 C57      -4.7493    0.3940    1.5182   C.3       1 RES1   0.0000
   173 N7       -4.6312    0.0669    0.0936   N.am      1 RES1   0.0000
   174 C58      -5.8421   -0.3724   -0.5810   C.3       1 RES1   0.0000
   175 C59      -3.4160   -0.1325   -0.4248   C.2       1 RES1   0.0000
   176 O7       -2.3828    0.1718    0.1996   O.2       1 RES1   0.0000
   177 C60      -3.3067   -0.6686   -1.8425   C.3       1 RES1   0.0000
   178 C61      -2.1355   -1.6343   -2.0239   C.2       1 RES1   0.0000
   179 O8       -1.2694   -1.7947   -1.1497   O.2       1 RES1   0.0000
   180 N8       -2.1036   -2.2782   -3.1939   N.am      1 RES1   0.0000
   181 C62      -3.0744   -2.0682   -4.2472   C.3       1 RES1   0.0000
   182 C63      -1.0669   -3.2638   -3.4707   C.3       1 RES1   0.0000
   183 C64      -1.6364   -4.6836   -3.4410   C.3       1 RES1   0.0000
   184 C65      -2.1320   -5.0522   -2.0445   C.3       1 RES1   0.0000
   185 C66      -3.1522   -6.1909   -2.0378   C.3       1 RES1   0.0000
   186 C67      -4.5020   -5.8555   -2.6780   C.3       1 RES1   0.0000
   187 C68      -5.2399   -4.7049   -1.9994   C.3       1 RES1   0.0000
   188 H103     -5.0595    7.1414   -0.1244   H         1 RES1   0.0000
   189 H104     -4.9321    5.7346   -1.1672   H         1 RES1   0.0000
   190 H105     -3.5025    6.3658   -0.3221   H         1 RES1   0.0000
   191 H106     -5.9659    5.1485    1.0212   H         1 RES1   0.0000
   192 H107     -4.5590    5.7891    1.8614   H         1 RES1   0.0000
   193 H108     -3.1348    4.0381    1.0190   H         1 RES1   0.0000
   194 H109     -4.3670    3.4701   -0.1148   H         1 RES1   0.0000
   195 H110     -5.8167    2.7847    1.7329   H         1 RES1   0.0000
   196 H111     -4.7062    3.4823    2.8966   H         1 RES1   0.0000
   197 H112     -3.7961    1.4380    3.0796   H         1 RES1   0.0000
   198 H113     -3.0557    1.7344    1.5073   H         1 RES1   0.0000
   199 H114     -5.8096    0.5159    1.7392   H         1 RES1   0.0000
   200 H115     -4.3758   -0.4790    2.0670   H         1 RES1   0.0000
   201 H116     -6.7105   -0.0803    0.0027   H         1 RES1   0.0000
   202 H117     -5.8590   -1.4588   -0.6840   H         1 RES1   0.0000
   203 H118     -5.9400    0.0827   -1.5647   H         1 RES1   0.0000
   204 H119     -3.0396    0.1918   -2.4626   H         1 RES1   0.0000
   205 H120     -4.2236   -1.1218   -2.2135   H         1 RES1   0.0000
   206 H121     -3.0997   -1.0202   -4.5482   H         1 RES1   0.0000
   207 H122     -4.0767   -2.3828   -3.9499   H         1 RES1   0.0000
   208 H123     -2.7844   -2.6665   -5.1073   H         1 RES1   0.0000
   209 H124     -0.2865   -3.1498   -2.7145   H         1 RES1   0.0000
   210 H125     -0.6484   -3.0423   -4.4570   H         1 RES1   0.0000
   211 H126     -0.8614   -5.3752   -3.7725   H         1 RES1   0.0000
   212 H127     -2.4570   -4.7602   -4.1523   H         1 RES1   0.0000
   213 H128     -2.5772   -4.1736   -1.5748   H         1 RES1   0.0000
   214 H129     -1.2737   -5.3420   -1.4359   H         1 RES1   0.0000
   215 H130     -3.3245   -6.4849   -1.0019   H         1 RES1   0.0000
   216 H131     -2.7260   -7.0502   -2.5570   H         1 RES1   0.0000
   217 H132     -5.1308   -6.7454   -2.6231   H         1 RES1   0.0000
   218 H133     -4.3683   -5.6296   -3.7377   H         1 RES1   0.0000
   219 H134     -5.3828   -4.9120   -0.9407   H         1 RES1   0.0000
   220 H135     -6.2212   -4.5734   -2.4497   H         1 RES1   0.0000
   221 H136     -4.6885   -3.7702   -2.0974   H         1 RES1   0.0000
   222 O9       -0.6281    1.4687    2.0280   O.3       1 RES1   0.0000
   223 H137      0.0951    1.6161    2.6579   H         1 RES1   0.0000
   224 H138     -1.2608    0.8922    2.4829   H         1 RES1   0.0000
@<TRIPOS>BOND
     1     1    11    1
     2     1    14    1
     3     1    66    1
     4     1    69    1
     5     1   121    1
     6     1   124    1
     7     1   176    1
     8     1   179    1
     9     1   222    1
    10     2     3    1
    11     2    23    1
    12     2    24    1
    13     2    25    1
    14     3     4    1
    15     3    26    1
    16     3    27    1
    17     4     5    1
    18     4    28    1
    19     4    29    1
    20     5     6    1
    21     5    30    1
    22     5    31    1
    23     6     7    1
    24     6    32    1
    25     6    33    1
    26     7     8    1
    27     7    34    1
    28     7    35    1
    29     8     9    1
    30     8    10    1
    31     9    36    1
    32     9    37    1
    33     9    38    1
    34    10    11    2
    35    10    12    1
    36    12    13    1
    37    12    39    1
    38    12    40    1
    39    13    14    2
    40    13    15    1
    41    15    16    1
    42    15    17    1
    43    16    41    1
    44    16    42    1
    45    16    43    1
    46    17    18    1
    47    17    44    1
    48    17    45    1
    49    18    19    1
    50    18    46    1
    51    18    47    1
    52    19    20    1
    53    19    48    1
    54    19    49    1
    55    20    21    1
    56    20    50    1
    57    20    51    1
    58    21    22    1
    59    21    52    1
    60    21    53    1
    61    22    54    1
    62    22    55    1
    63    22    56    1
    64    57    58    1
    65    57    78    1
    66    57    79    1
    67    57    80    1
    68    58    59    1
    69    58    81    1
    70    58    82    1
    71    59    60    1
    72    59    83    1
    73    59    84    1
    74    60    61    1
    75    60    85    1
    76    60    86    1
    77    61    62    1
    78    61    87    1
    79    61    88    1
    80    62    63    1
    81    62    89    1
    82    62    90    1
    83    63    64    1
    84    63    65    1
    85    64    91    1
    86    64    92    1
    87    64    93    1
    88    65    66    2
    89    65    67    1
    90    67    68    1
    91    67    94    1
    92    67    95    1
    93    68    69    2
    94    68    70    1
    95    70    71    1
    96    70    72    1
    97    71    96    1
    98    71    97    1
    99    71    98    1
   100    72    73    1
   101    72    99    1
   102    72   100    1
   103    73    74    1
   104    73   101    1
   105    73   102    1
   106    74    75    1
   107    74   103    1
   108    74   104    1
   109    75    76    1
   110    75   105    1
   111    75   106    1
   112    76    77    1
   113    76   107    1
   114    76   108    1
   115    77   109    1
   116    77   110    1
   117    77   111    1
   118   112   113    1
   119   112   133    1
   120   112   134    1
   121   112   135    1
   122   113   114    1
   123   113   136    1
   124   113   137    1
   125   114   115    1
   126   114   138    1
   127   114   139    1
   128   115   116    1
   129   115   140    1
   130   115   141    1
   131   116   117    1
   132   116   142    1
   133   116   143    1
   134   117   118    1
   135   117   144    1
   136   117   145    1
   137   118   119    1
   138   118   120    1
   139   119   146    1
   140   119   147    1
   141   119   148    1
   142   120   121    2
   143   120   122    1
   144   122   123    1
   145   122   149    1
   146   122   150    1
   147   123   124    2
   148   123   125    1
   149   125   126    1
   150   125   127    1
   151   126   151    1
   152   126   152    1
   153   126   153    1
   154   127   128    1
   155   127   154    1
   156   127   155    1
   157   128   129    1
   158   128   156    1
   159   128   157    1
   160   129   130    1
   161   129   158    1
   162   129   159    1
   163   130   131    1
   164   130   160    1
   165   130   161    1
   166   131   132    1
   167   131   162    1
   168   131   163    1
   169   132   164    1
   170   132   165    1
   171   132   166    1
   172   167   168    1
   173   167   188    1
   174   167   189    1
   175   167   190    1
   176   168   169    1
   177   168   191    1
   178   168   192    1
   179   169   170    1
   180   169   193    1
   181   169   194    1
   182   170   171    1
   183   170   195    1
   184   170   196    1
   185   171   172    1
   186   171   197    1
   187   171   198    1
   188   172   173    1
   189   172   199    1
   190   172   200    1
   191   173   174    1
   192   173   175    1
   193   174   201    1
   194   174   202    1
   195   174   203    1
   196   175   176    2
   197   175   177    1
   198   177   178    1
   199   177   204    1
   200   177   205    1
   201   178   179    2
   202   178   180    1
   203   180   181    1
   204   180   182    1
   205   181   206    1
   206   181   207    1
   207   181   208    1
   208   182   183    1
   209   182   209    1
   210   182   210    1
   211   183   184    1
   212   183   211    1
   213   183   212    1
   214   184   185    1
   215   184   213    1
   216   184   214    1
   217   185   186    1
   218   185   215    1
   219   185   216    1
   220   186   187    1
   221   186   217    1
   222   186   218    1
   223   187   219    1
   224   187   220    1
   225   187   221    1
   226   222   223    1
   227   222   224    1
@<TRIPOS>SUBSTRUCTURE
     1 RES1      224 GROUP             0 ****  ****    0  
