@<TRIPOS>MOLECULE
am_c3_9H2O_c0_0_nunpairedes_0_charge_3 Charge: 3 Unpaired_Electrons: 3 XTB_Unpaired_Electrons: 0 XTB_Charge: 3
   172   186     1     0     0
SMALL
NoCharges
****
Generated from Architector

@<TRIPOS>ATOM
     1 Nd1      -0.0731   -0.0253   -0.0197   Nd        1 RES1   0.0000
     2 C1       -4.5089   -2.4996    4.1912   C.3       1 RES1   0.0000
     3 C2       -3.9546   -3.0020    2.8605   C.3       1 RES1   0.0000
     4 N1       -2.6021   -2.5191    2.6130   N.am      1 RES1   0.0000
     5 C3       -2.1752   -1.5363    1.8249   C.2       1 RES1   0.0000
     6 O1       -0.9529   -1.3476    1.6725   O.2       1 RES1   0.0000
     7 C4       -3.1076   -0.5968    1.0956   C.ar      1 RES1   0.0000
     8 C5       -4.3260   -0.1264    1.5768   C.ar      1 RES1   0.0000
     9 C6       -4.9395    0.9079    0.8942   C.ar      1 RES1   0.0000
    10 C7       -4.3451    1.4494   -0.2348   C.ar      1 RES1   0.0000
    11 C8       -3.1576    0.8818   -0.7023   C.ar      1 RES1   0.0000
    12 C9       -2.2847    1.4105   -1.8363   C.2       1 RES1   0.0000
    13 O2       -1.0585    1.2302   -1.6996   O.2       1 RES1   0.0000
    14 N2       -2.7607    2.0665   -2.9056   N.am      1 RES1   0.0000
    15 C10      -4.1730    2.0965   -3.2650   C.3       1 RES1   0.0000
    16 C11      -4.7268    3.5104   -3.1660   C.3       1 RES1   0.0000
    17 C12      -1.8508    2.8445   -3.7187   C.ar      1 RES1   0.0000
    18 C13      -0.9130    3.6301   -3.0404   C.ar      1 RES1   0.0000
    19 C14      -0.0196    4.4417   -3.7135   C.ar      1 RES1   0.0000
    20 C15      -0.0824    4.5302   -5.0961   C.ar      1 RES1   0.0000
    21 C16      -1.0124    3.7708   -5.7776   C.ar      1 RES1   0.0000
    22 C17      -1.8868    2.8981   -5.1214   C.ar      1 RES1   0.0000
    23 C18      -2.7764    2.0949   -6.0248   C.3       1 RES1   0.0000
    24 N3       -2.5740   -0.1129   -0.0289   N.ar      1 RES1   0.0000
    25 C19      -1.5835   -3.3234    3.2361   C.ar      1 RES1   0.0000
    26 C20      -1.2878   -3.0962    4.5732   C.ar      1 RES1   0.0000
    27 C21      -0.4262   -3.9443    5.2461   C.ar      1 RES1   0.0000
    28 C22       0.1633   -4.9985    4.5674   C.ar      1 RES1   0.0000
    29 C23      -0.0744   -5.1731    3.2150   C.ar      1 RES1   0.0000
    30 C24      -0.9561   -4.3435    2.5237   C.ar      1 RES1   0.0000
    31 C25      -1.2056   -4.5985    1.0640   C.3       1 RES1   0.0000
    32 H1       -5.5604   -2.7619    4.2680   H         1 RES1   0.0000
    33 H2       -4.3979   -1.4207    4.2908   H         1 RES1   0.0000
    34 H3       -3.9864   -2.9790    5.0136   H         1 RES1   0.0000
    35 H4       -4.5969   -2.7153    2.0286   H         1 RES1   0.0000
    36 H5       -3.9041   -4.0950    2.9008   H         1 RES1   0.0000
    37 H6       -4.7803   -0.5431    2.4558   H         1 RES1   0.0000
    38 H7       -5.8721    1.3082    1.2590   H         1 RES1   0.0000
    39 H8       -4.7939    2.3030   -0.7115   H         1 RES1   0.0000
    40 H9       -4.7049    1.4075   -2.6110   H         1 RES1   0.0000
    41 H10      -4.2835    1.7418   -4.2895   H         1 RES1   0.0000
    42 H11      -4.5522    3.9336   -2.1801   H         1 RES1   0.0000
    43 H12      -5.7927    3.5111   -3.3625   H         1 RES1   0.0000
    44 H13      -4.2496    4.1466   -3.9042   H         1 RES1   0.0000
    45 H14      -0.8901    3.6071   -1.9617   H         1 RES1   0.0000
    46 H15       0.6978    5.0330   -3.1603   H         1 RES1   0.0000
    47 H16       0.5879    5.1786   -5.6403   H         1 RES1   0.0000
    48 H17      -1.0798    3.8519   -6.8554   H         1 RES1   0.0000
    49 H18      -2.3504    2.0823   -7.0259   H         1 RES1   0.0000
    50 H19      -3.7595    2.5576   -6.1207   H         1 RES1   0.0000
    51 H20      -2.8861    1.0624   -5.7034   H         1 RES1   0.0000
    52 H21      -1.7403   -2.2614    5.0822   H         1 RES1   0.0000
    53 H22      -0.2287   -3.7940    6.2964   H         1 RES1   0.0000
    54 H23       0.8113   -5.6858    5.0908   H         1 RES1   0.0000
    55 H24       0.3997   -5.9897    2.6863   H         1 RES1   0.0000
    56 H25      -1.6492   -5.5841    0.9224   H         1 RES1   0.0000
    57 H26      -0.2637   -4.5904    0.5138   H         1 RES1   0.0000
    58 H27      -1.8624   -3.8521    0.6218   H         1 RES1   0.0000
    59 C26       0.1391   -4.8903   -4.4015   C.3       1 RES1   0.0000
    60 C27      -0.3426   -4.8722   -2.9537   C.3       1 RES1   0.0000
    61 N4       -0.7633   -3.5240   -2.5921   N.am      1 RES1   0.0000
    62 C28      -0.1753   -2.6573   -1.7703   C.2       1 RES1   0.0000
    63 O3       -0.7311   -1.5693   -1.5215   O.2       1 RES1   0.0000
    64 C29       1.1551   -2.8909   -1.0973   C.ar      1 RES1   0.0000
    65 C30       2.2288   -3.6233   -1.5935   C.ar      1 RES1   0.0000
    66 C31       3.4166   -3.6151   -0.8802   C.ar      1 RES1   0.0000
    67 C32       3.5424   -2.8291    0.2558   C.ar      1 RES1   0.0000
    68 C33       2.4406   -2.0801    0.6634   C.ar      1 RES1   0.0000
    69 C34       2.4138   -0.9705    1.6912   C.2       1 RES1   0.0000
    70 O4        1.7076    0.0167    1.3898   O.2       1 RES1   0.0000
    71 N5        3.0629   -0.9944    2.8514   N.am      1 RES1   0.0000
    72 C35       4.1092   -1.9091    3.2835   C.3       1 RES1   0.0000
    73 C36       5.4756   -1.3134    2.9487   C.3       1 RES1   0.0000
    74 C37       2.8542    0.1377    3.7148   C.ar      1 RES1   0.0000
    75 C38       3.2361    1.4004    3.2789   C.ar      1 RES1   0.0000
    76 C39       3.0624    2.4992    4.0988   C.ar      1 RES1   0.0000
    77 C40       2.4968    2.3336    5.3528   C.ar      1 RES1   0.0000
    78 C41       2.0954    1.0777    5.7742   C.ar      1 RES1   0.0000
    79 C42       2.2638   -0.0449    4.9670   C.ar      1 RES1   0.0000
    80 C43       1.8156   -1.3881    5.4624   C.3       1 RES1   0.0000
    81 N6        1.2811   -2.1492    0.0053   N.ar      1 RES1   0.0000
    82 C44      -2.0040   -3.1133   -3.1952   C.ar      1 RES1   0.0000
    83 C45      -3.1186   -3.9002   -2.9152   C.ar      1 RES1   0.0000
    84 C46      -4.3277   -3.6693   -3.5388   C.ar      1 RES1   0.0000
    85 C47      -4.4385   -2.5978   -4.4090   C.ar      1 RES1   0.0000
    86 C48      -3.3525   -1.7700   -4.6240   C.ar      1 RES1   0.0000
    87 C49      -2.1059   -2.0075   -4.0431   C.ar      1 RES1   0.0000
    88 C50      -0.9700   -1.0861   -4.3927   C.3       1 RES1   0.0000
    89 H28       0.4696   -5.8869   -4.6801   H         1 RES1   0.0000
    90 H29       0.9557   -4.1852   -4.5472   H         1 RES1   0.0000
    91 H30      -0.6832   -4.6111   -5.0566   H         1 RES1   0.0000
    92 H31       0.4194   -5.2211   -2.2593   H         1 RES1   0.0000
    93 H32      -1.2003   -5.5457   -2.8650   H         1 RES1   0.0000
    94 H33       2.1494   -4.1623   -2.5191   H         1 RES1   0.0000
    95 H34       4.2541   -4.1996   -1.2257   H         1 RES1   0.0000
    96 H35       4.4858   -2.7876    0.7706   H         1 RES1   0.0000
    97 H36       3.9537   -2.8880    2.8322   H         1 RES1   0.0000
    98 H37       4.0389   -2.0165    4.3673   H         1 RES1   0.0000
    99 H38       5.5725   -1.0894    1.8874   H         1 RES1   0.0000
   100 H39       6.2769   -1.9841    3.2438   H         1 RES1   0.0000
   101 H40       5.5995   -0.3893    3.5065   H         1 RES1   0.0000
   102 H41       3.6764    1.5135    2.3004   H         1 RES1   0.0000
   103 H42       3.3929    3.4732    3.7708   H         1 RES1   0.0000
   104 H43       2.3820    3.1795    6.0132   H         1 RES1   0.0000
   105 H44       1.6535    0.9617    6.7545   H         1 RES1   0.0000
   106 H45       1.1493   -1.2721    6.3132   H         1 RES1   0.0000
   107 H46       2.6574   -1.9868    5.8121   H         1 RES1   0.0000
   108 H47       1.3014   -1.9577    4.6890   H         1 RES1   0.0000
   109 H48      -3.0244   -4.7072   -2.2071   H         1 RES1   0.0000
   110 H49      -5.1675   -4.3214   -3.3553   H         1 RES1   0.0000
   111 H50      -5.3680   -2.4054   -4.9222   H         1 RES1   0.0000
   112 H51      -3.4631   -0.9270   -5.2908   H         1 RES1   0.0000
   113 H52      -0.9334   -0.9111   -5.4686   H         1 RES1   0.0000
   114 H53      -0.0042   -1.4762   -4.0828   H         1 RES1   0.0000
   115 H54      -1.0912   -0.1115   -3.9127   H         1 RES1   0.0000
   116 C51      -0.5617    4.9173    4.3231   C.3       1 RES1   0.0000
   117 C52      -1.1750    4.7958    2.9297   C.3       1 RES1   0.0000
   118 N7       -1.3198    3.4001    2.5412   N.am      1 RES1   0.0000
   119 C53      -0.5869    2.6618    1.7091   C.2       1 RES1   0.0000
   120 O5       -0.9605    1.4979    1.4525   O.2       1 RES1   0.0000
   121 C54       0.6688    3.1218    1.0104   C.ar      1 RES1   0.0000
   122 C55       1.5629    4.1194    1.3897   C.ar      1 RES1   0.0000
   123 C56       2.6922    4.3170    0.6081   C.ar      1 RES1   0.0000
   124 C57       2.9410    3.5013   -0.4865   C.ar      1 RES1   0.0000
   125 C58       2.0216    2.4951   -0.7810   C.ar      1 RES1   0.0000
   126 C59       2.1567    1.3712   -1.7891   C.2       1 RES1   0.0000
   127 O6        1.7295    0.2560   -1.4170   O.2       1 RES1   0.0000
   128 N8        2.6746    1.5154   -3.0049   N.am      1 RES1   0.0000
   129 C60       3.3215    2.6904   -3.5679   C.3       1 RES1   0.0000
   130 C61       4.8372    2.5161   -3.5070   C.3       1 RES1   0.0000
   131 C62       2.7714    0.3240   -3.8065   C.ar      1 RES1   0.0000
   132 C63       3.5176   -0.7385   -3.3083   C.ar      1 RES1   0.0000
   133 C64       3.6626   -1.8977   -4.0441   C.ar      1 RES1   0.0000
   134 C65       3.0516   -2.0007   -5.2835   C.ar      1 RES1   0.0000
   135 C66       2.3016   -0.9471   -5.7744   C.ar      1 RES1   0.0000
   136 C67       2.1458    0.2344   -5.0517   C.ar      1 RES1   0.0000
   137 C68       1.3233    1.3411   -5.6411   C.3       1 RES1   0.0000
   138 N9        0.9217    2.3435   -0.0445   N.ar      1 RES1   0.0000
   139 C69      -2.3726    2.7040    3.2350   C.ar      1 RES1   0.0000
   140 C70      -2.0112    1.7299    4.1601   C.ar      1 RES1   0.0000
   141 C71      -2.9793    1.1195    4.9330   C.ar      1 RES1   0.0000
   142 C72      -4.3104    1.4735    4.7719   C.ar      1 RES1   0.0000
   143 C73      -4.6701    2.3966    3.8072   C.ar      1 RES1   0.0000
   144 C74      -3.7115    3.0265    3.0148   C.ar      1 RES1   0.0000
   145 C75      -4.1582    4.0366    1.9967   C.3       1 RES1   0.0000
   146 H55      -0.4364    5.9649    4.5863   H         1 RES1   0.0000
   147 H56       0.3993    4.4089    4.3774   H         1 RES1   0.0000
   148 H57      -1.2326    4.4688    5.0520   H         1 RES1   0.0000
   149 H58      -0.5951    5.3244    2.1736   H         1 RES1   0.0000
   150 H59      -2.1732    5.2427    2.9579   H         1 RES1   0.0000
   151 H60       1.3968    4.7240    2.2631   H         1 RES1   0.0000
   152 H61       3.3814    5.1112    0.8519   H         1 RES1   0.0000
   153 H62       3.8306    3.6552   -1.0702   H         1 RES1   0.0000
   154 H63       2.9808    3.5825   -3.0451   H         1 RES1   0.0000
   155 H64       3.0176    2.7743   -4.6117   H         1 RES1   0.0000
   156 H65       5.1770    2.3356   -2.4886   H         1 RES1   0.0000
   157 H66       5.3465    3.3910   -3.8990   H         1 RES1   0.0000
   158 H67       5.1210    1.6643   -4.1196   H         1 RES1   0.0000
   159 H68       3.9919   -0.6428   -2.3445   H         1 RES1   0.0000
   160 H69       4.2716   -2.7021   -3.6631   H         1 RES1   0.0000
   161 H70       3.1723   -2.8946   -5.8757   H         1 RES1   0.0000
   162 H71       1.8335   -1.0345   -6.7456   H         1 RES1   0.0000
   163 H72       0.6637    0.9518   -6.4120   H         1 RES1   0.0000
   164 H73       1.9531    2.0844   -6.1323   H         1 RES1   0.0000
   165 H74       0.7237    1.8461   -4.8877   H         1 RES1   0.0000
   166 H75      -0.9696    1.4787    4.2859   H         1 RES1   0.0000
   167 H76      -2.6972    0.4040    5.6886   H         1 RES1   0.0000
   168 H77      -5.0709    1.0404    5.4038   H         1 RES1   0.0000
   169 H78      -5.7101    2.6652    3.6827   H         1 RES1   0.0000
   170 H79      -4.4037    4.9826    2.4812   H         1 RES1   0.0000
   171 H80      -5.0700    3.7097    1.5016   H         1 RES1   0.0000
   172 H81      -3.3995    4.2173    1.2381   H         1 RES1   0.0000
@<TRIPOS>BOND
     1     1     6    1
     2     1    13    1
     3     1    24    1
     4     1    63    1
     5     1    70    1
     6     1    81    1
     7     1   120    1
     8     1   127    1
     9     1   138    1
    10     2     3    1
    11     2    32    1
    12     2    33    1
    13     2    34    1
    14     3     4    1
    15     3    35    1
    16     3    36    1
    17     4     5    1
    18     4    25    1
    19     5     6    2
    20     5     7    1
    21     7     8    1
    22     7    24    2
    23     8     9    2
    24     8    37    1
    25     9    10    1
    26     9    38    1
    27    10    11    2
    28    10    39    1
    29    11    12    1
    30    11    24    1
    31    12    13    2
    32    12    14    1
    33    14    15    1
    34    14    17    1
    35    15    16    1
    36    15    40    1
    37    15    41    1
    38    16    42    1
    39    16    43    1
    40    16    44    1
    41    17    18    1
    42    17    22    2
    43    18    19    2
    44    18    45    1
    45    19    20    1
    46    19    46    1
    47    20    21    2
    48    20    47    1
    49    21    22    1
    50    21    48    1
    51    22    23    1
    52    23    49    1
    53    23    50    1
    54    23    51    1
    55    25    26    1
    56    25    30    2
    57    26    27    2
    58    26    52    1
    59    27    28    1
    60    27    53    1
    61    28    29    2
    62    28    54    1
    63    29    30    1
    64    29    55    1
    65    30    31    1
    66    31    56    1
    67    31    57    1
    68    31    58    1
    69    59    60    1
    70    59    89    1
    71    59    90    1
    72    59    91    1
    73    60    61    1
    74    60    92    1
    75    60    93    1
    76    61    62    1
    77    61    82    1
    78    62    63    2
    79    62    64    1
    80    64    65    1
    81    64    81    2
    82    65    66    2
    83    65    94    1
    84    66    67    1
    85    66    95    1
    86    67    68    2
    87    67    96    1
    88    68    69    1
    89    68    81    1
    90    69    70    2
    91    69    71    1
    92    71    72    1
    93    71    74    1
    94    72    73    1
    95    72    97    1
    96    72    98    1
    97    73    99    1
    98    73   100    1
    99    73   101    1
   100    74    75    1
   101    74    79    2
   102    75    76    2
   103    75   102    1
   104    76    77    1
   105    76   103    1
   106    77    78    2
   107    77   104    1
   108    78    79    1
   109    78   105    1
   110    79    80    1
   111    80   106    1
   112    80   107    1
   113    80   108    1
   114    82    83    1
   115    82    87    2
   116    83    84    2
   117    83   109    1
   118    84    85    1
   119    84   110    1
   120    85    86    2
   121    85   111    1
   122    86    87    1
   123    86   112    1
   124    87    88    1
   125    88   113    1
   126    88   114    1
   127    88   115    1
   128   116   117    1
   129   116   146    1
   130   116   147    1
   131   116   148    1
   132   117   118    1
   133   117   149    1
   134   117   150    1
   135   118   119    1
   136   118   139    1
   137   119   120    2
   138   119   121    1
   139   121   122    1
   140   121   138    2
   141   122   123    2
   142   122   151    1
   143   123   124    1
   144   123   152    1
   145   124   125    2
   146   124   153    1
   147   125   126    1
   148   125   138    1
   149   126   127    2
   150   126   128    1
   151   128   129    1
   152   128   131    1
   153   129   130    1
   154   129   154    1
   155   129   155    1
   156   130   156    1
   157   130   157    1
   158   130   158    1
   159   131   132    1
   160   131   136    2
   161   132   133    2
   162   132   159    1
   163   133   134    1
   164   133   160    1
   165   134   135    2
   166   134   161    1
   167   135   136    1
   168   135   162    1
   169   136   137    1
   170   137   163    1
   171   137   164    1
   172   137   165    1
   173   139   140    1
   174   139   144    2
   175   140   141    2
   176   140   166    1
   177   141   142    1
   178   141   167    1
   179   142   143    2
   180   142   168    1
   181   143   144    1
   182   143   169    1
   183   144   145    1
   184   145   170    1
   185   145   171    1
   186   145   172    1
@<TRIPOS>SUBSTRUCTURE
     1 RES1      172 GROUP             0 ****  ****    0  
