@<TRIPOS>MOLECULE
am_c3_9H2O_c0_0_nunpairedes_0_charge_3 Charge: 3 Unpaired_Electrons: 3 XTB_Unpaired_Electrons: 0 XTB_Charge: 3
   216   223     1     0     0
SMALL
NoCharges
****
Generated from Architector

@<TRIPOS>ATOM
     1 Nd1       0.0294    0.4013    0.0125   Nd        1 RES1   0.0000
     2 C1        1.1839   -6.4209   -0.0272   C.3       1 RES1   0.0000
     3 C2        1.5024   -6.6900   -1.4982   C.3       1 RES1   0.0000
     4 C3        1.0656   -5.5506   -2.4191   C.3       1 RES1   0.0000
     5 C4       -0.4139   -5.1795   -2.3048   C.3       1 RES1   0.0000
     6 C5       -1.3877   -6.1050   -3.0280   C.3       1 RES1   0.0000
     7 C6       -2.7603   -5.4442   -3.1738   C.3       1 RES1   0.0000
     8 C7       -3.5168   -5.2176   -1.8567   C.3       1 RES1   0.0000
     9 C8       -4.4779   -4.0248   -1.9316   C.3       1 RES1   0.0000
    10 C9       -5.3896   -3.8879   -0.7077   C.3       1 RES1   0.0000
    11 C10      -4.6736   -3.5925    0.6152   C.3       1 RES1   0.0000
    12 C11      -4.3495   -2.1193    0.8993   C.3       1 RES1   0.0000
    13 C12      -3.4937   -2.0468    2.1727   C.3       1 RES1   0.0000
    14 N1       -3.2042   -0.6978    2.6741   N.am      1 RES1   0.0000
    15 C13      -4.0537   -0.2493    3.7563   C.3       1 RES1   0.0000
    16 C14      -2.1201   -0.0980    2.2068   C.2       1 RES1   0.0000
    17 O1       -1.4500   -0.6426    1.3028   O.2       1 RES1   0.0000
    18 C15      -1.5948    1.2194    2.8150   C.3       1 RES1   0.0000
    19 C16      -0.7749    0.8477    4.0703   C.3       1 RES1   0.0000
    20 C17       0.6950    0.7361    3.6422   C.3       1 RES1   0.0000
    21 O2        0.8823   -0.1007    2.4991   O.3       1 RES1   0.0000
    22 C18       0.8225   -1.4962    2.8113   C.3       1 RES1   0.0000
    23 C19       1.1809    2.1368    3.2838   C.3       1 RES1   0.0000
    24 C20       0.2021    2.7695    2.2691   C.3       1 RES1   0.0000
    25 C21       0.9677    3.1025    0.9754   C.2       1 RES1   0.0000
    26 O3        1.3434    2.1161    0.3074   O.2       1 RES1   0.0000
    27 N2        1.1582    4.3456    0.5594   N.am      1 RES1   0.0000
    28 C22       1.5117    4.5690   -0.8338   C.3       1 RES1   0.0000
    29 C23       1.2873    5.4984    1.4338   C.3       1 RES1   0.0000
    30 C24       2.7392    5.9947    1.5602   C.3       1 RES1   0.0000
    31 C25       3.7403    4.9250    2.0133   C.3       1 RES1   0.0000
    32 C26       4.2916    4.0668    0.8720   C.3       1 RES1   0.0000
    33 C27       5.4859    3.2132    1.2892   C.3       1 RES1   0.0000
    34 C28       6.1866    2.5572    0.0990   C.3       1 RES1   0.0000
    35 C29       5.3116    1.5630   -0.6747   C.3       1 RES1   0.0000
    36 C30       4.6606    2.1415   -1.9351   C.3       1 RES1   0.0000
    37 C31       5.6096    2.3152   -3.1248   C.3       1 RES1   0.0000
    38 C32       6.2365    1.0270   -3.6901   C.3       1 RES1   0.0000
    39 C33       5.7769    0.6737   -5.1091   C.3       1 RES1   0.0000
    40 C34       4.4226   -0.0265   -5.1397   C.3       1 RES1   0.0000
    41 O4       -0.7776    1.8235    1.7981   O.3       1 RES1   0.0000
    42 H1        1.8578   -6.9828    0.6125   H         1 RES1   0.0000
    43 H2        1.2911   -5.3585    0.1984   H         1 RES1   0.0000
    44 H3        0.1732   -6.7298    0.2232   H         1 RES1   0.0000
    45 H4        2.5785   -6.8243   -1.6113   H         1 RES1   0.0000
    46 H5        1.0372   -7.6209   -1.8137   H         1 RES1   0.0000
    47 H6        1.6613   -4.6638   -2.1527   H         1 RES1   0.0000
    48 H7        1.3011   -5.8032   -3.4569   H         1 RES1   0.0000
    49 H8       -0.6859   -5.1212   -1.2487   H         1 RES1   0.0000
    50 H9       -0.5318   -4.1863   -2.7412   H         1 RES1   0.0000
    51 H10      -0.9936   -6.3149   -4.0244   H         1 RES1   0.0000
    52 H11      -1.4849   -7.0506   -2.5001   H         1 RES1   0.0000
    53 H12      -2.6196   -4.4864   -3.6815   H         1 RES1   0.0000
    54 H13      -3.3782   -6.0603   -3.8215   H         1 RES1   0.0000
    55 H14      -4.1016   -6.1073   -1.6244   H         1 RES1   0.0000
    56 H15      -2.8070   -5.0710   -1.0421   H         1 RES1   0.0000
    57 H16      -3.9234   -3.0941   -2.0810   H         1 RES1   0.0000
    58 H17      -5.1122   -4.1555   -2.8095   H         1 RES1   0.0000
    59 H18      -6.1431   -3.1216   -0.8982   H         1 RES1   0.0000
    60 H19      -5.9257   -4.8289   -0.5905   H         1 RES1   0.0000
    61 H20      -5.3049   -3.9429    1.4297   H         1 RES1   0.0000
    62 H21      -3.7496   -4.1693    0.6549   H         1 RES1   0.0000
    63 H22      -3.8016   -1.6813    0.0635   H         1 RES1   0.0000
    64 H23      -5.2700   -1.5488    1.0386   H         1 RES1   0.0000
    65 H24      -3.9980   -2.5813    2.9789   H         1 RES1   0.0000
    66 H25      -2.5290   -2.5262    1.9766   H         1 RES1   0.0000
    67 H26      -5.0946   -0.3000    3.4379   H         1 RES1   0.0000
    68 H27      -3.9311   -0.9060    4.6197   H         1 RES1   0.0000
    69 H28      -3.8293    0.7670    4.0578   H         1 RES1   0.0000
    70 H29      -2.4077    1.9188    3.0520   H         1 RES1   0.0000
    71 H30      -0.8539    1.6241    4.8341   H         1 RES1   0.0000
    72 H31      -1.1377   -0.0888    4.5062   H         1 RES1   0.0000
    73 H32       1.2968    0.3525    4.4736   H         1 RES1   0.0000
    74 H33       1.4420   -1.7095    3.6780   H         1 RES1   0.0000
    75 H34      -0.1977   -1.8370    3.0051   H         1 RES1   0.0000
    76 H35       1.2186   -2.0271    1.9480   H         1 RES1   0.0000
    77 H36       1.2272    2.7430    4.1876   H         1 RES1   0.0000
    78 H37       2.1840    2.0567    2.8578   H         1 RES1   0.0000
    79 H38      -0.3299    3.6316    2.6901   H         1 RES1   0.0000
    80 H39       1.3912    3.6331   -1.3764   H         1 RES1   0.0000
    81 H40       0.8419    5.3271   -1.2404   H         1 RES1   0.0000
    82 H41       2.5360    4.9195   -0.9329   H         1 RES1   0.0000
    83 H42       0.6680    6.3083    1.0438   H         1 RES1   0.0000
    84 H43       0.9413    5.2364    2.4315   H         1 RES1   0.0000
    85 H44       3.0803    6.4433    0.6264   H         1 RES1   0.0000
    86 H45       2.7187    6.7949    2.3023   H         1 RES1   0.0000
    87 H46       4.5817    5.4295    2.4902   H         1 RES1   0.0000
    88 H47       3.2780    4.2877    2.7708   H         1 RES1   0.0000
    89 H48       3.5158    3.4050    0.4876   H         1 RES1   0.0000
    90 H49       4.6148    4.7314    0.0679   H         1 RES1   0.0000
    91 H50       6.2033    3.8423    1.8172   H         1 RES1   0.0000
    92 H51       5.1536    2.4452    1.9917   H         1 RES1   0.0000
    93 H52       6.5439    3.3346   -0.5756   H         1 RES1   0.0000
    94 H53       7.0614    2.0386    0.4892   H         1 RES1   0.0000
    95 H54       5.9314    0.7160   -0.9641   H         1 RES1   0.0000
    96 H55       4.5302    1.1831   -0.0080   H         1 RES1   0.0000
    97 H56       3.8235    1.5078   -2.2270   H         1 RES1   0.0000
    98 H57       4.2344    3.1152   -1.6998   H         1 RES1   0.0000
    99 H58       5.0661    2.8201   -3.9279   H         1 RES1   0.0000
   100 H59       6.4098    2.9830   -2.8127   H         1 RES1   0.0000
   101 H60       7.3198    1.1401   -3.7129   H         1 RES1   0.0000
   102 H61       6.0307    0.1749   -3.0381   H         1 RES1   0.0000
   103 H62       5.7316    1.5801   -5.7148   H         1 RES1   0.0000
   104 H63       6.5134    0.0178   -5.5744   H         1 RES1   0.0000
   105 H64       3.6550    0.6118   -4.7033   H         1 RES1   0.0000
   106 H65       4.1304   -0.2569   -6.1606   H         1 RES1   0.0000
   107 H66       4.4641   -0.9664   -4.5886   H         1 RES1   0.0000
   108 C35      -1.1259   -5.8580    4.7003   C.3       1 RES1   0.0000
   109 C36      -1.7984   -5.1376    5.8633   C.3       1 RES1   0.0000
   110 C37      -1.9390   -3.6345    5.6245   C.3       1 RES1   0.0000
   111 C38      -0.6084   -2.8958    5.4605   C.3       1 RES1   0.0000
   112 C39       0.2066   -2.7483    6.7436   C.3       1 RES1   0.0000
   113 C40       1.4219   -1.8271    6.5872   C.3       1 RES1   0.0000
   114 C41       2.6044   -2.4264    5.8139   C.3       1 RES1   0.0000
   115 C42       3.5112   -1.3571    5.1919   C.3       1 RES1   0.0000
   116 C43       4.6814   -1.9201    4.3800   C.3       1 RES1   0.0000
   117 C44       4.3089   -2.6068    3.0569   C.3       1 RES1   0.0000
   118 C45       4.1485   -1.7187    1.8124   C.3       1 RES1   0.0000
   119 C46       3.6979   -2.6055    0.6390   C.3       1 RES1   0.0000
   120 N3        3.5958   -1.9096   -0.6465   N.am      1 RES1   0.0000
   121 C47       4.7036   -2.0686   -1.5643   C.3       1 RES1   0.0000
   122 C48       2.5008   -1.2199   -0.9097   C.2       1 RES1   0.0000
   123 O5        1.5896   -1.1050   -0.0589   O.2       1 RES1   0.0000
   124 C49       2.2252   -0.6576   -2.3142   C.3       1 RES1   0.0000
   125 C50       1.4756   -1.7631   -3.1012   C.3       1 RES1   0.0000
   126 C51      -0.0107   -1.3828   -3.1898   C.3       1 RES1   0.0000
   127 O6       -0.5987   -1.0999   -1.9118   O.3       1 RES1   0.0000
   128 C52      -1.2876   -2.2026   -1.3268   C.3       1 RES1   0.0000
   129 C53      -0.0747   -0.1082   -4.0278   C.3       1 RES1   0.0000
   130 C54       0.7694    0.9788   -3.3106   C.3       1 RES1   0.0000
   131 C55      -0.1817    2.0621   -2.7955   C.2       1 RES1   0.0000
   132 O7       -0.5209    2.0065   -1.5910   O.2       1 RES1   0.0000
   133 N4       -0.6500    3.0025   -3.5943   N.am      1 RES1   0.0000
   134 C56      -1.4639    4.0500   -2.9969   C.3       1 RES1   0.0000
   135 C57      -0.3911    3.1134   -5.0218   C.3       1 RES1   0.0000
   136 C58      -1.6579    3.1650   -5.8856   C.3       1 RES1   0.0000
   137 C59      -2.5007    1.8840   -5.9050   C.3       1 RES1   0.0000
   138 C60      -3.4802    1.7502   -4.7378   C.3       1 RES1   0.0000
   139 C61      -4.4117    0.5449   -4.8848   C.3       1 RES1   0.0000
   140 C62      -5.6109    0.5824   -3.9339   C.3       1 RES1   0.0000
   141 C63      -5.2143    0.6424   -2.4532   C.3       1 RES1   0.0000
   142 C64      -5.2913    2.0591   -1.8624   C.3       1 RES1   0.0000
   143 C65      -6.6647    2.3744   -1.2654   C.3       1 RES1   0.0000
   144 C66      -6.9568    1.6213    0.0376   C.3       1 RES1   0.0000
   145 C67      -6.5140    2.3344    1.3183   C.3       1 RES1   0.0000
   146 C68      -5.0116    2.3094    1.5940   C.3       1 RES1   0.0000
   147 O8        1.3987    0.4931   -2.1216   O.3       1 RES1   0.0000
   148 H67      -1.2206   -6.9324    4.8196   H         1 RES1   0.0000
   149 H68      -1.5863   -5.5805    3.7533   H         1 RES1   0.0000
   150 H69      -0.0666   -5.6223    4.6495   H         1 RES1   0.0000
   151 H70      -2.7954   -5.5562    6.0095   H         1 RES1   0.0000
   152 H71      -1.2355   -5.3164    6.7778   H         1 RES1   0.0000
   153 H72      -2.5272   -3.4970    4.7080   H         1 RES1   0.0000
   154 H73      -2.4983   -3.1866    6.4495   H         1 RES1   0.0000
   155 H74      -0.0172   -3.4089    4.7027   H         1 RES1   0.0000
   156 H75      -0.8394   -1.8938    5.0863   H         1 RES1   0.0000
   157 H76      -0.4427   -2.3346    7.5167   H         1 RES1   0.0000
   158 H77       0.5326   -3.7271    7.0846   H         1 RES1   0.0000
   159 H78       1.0915   -0.9028    6.1062   H         1 RES1   0.0000
   160 H79       1.7743   -1.5527    7.5790   H         1 RES1   0.0000
   161 H80       3.2093   -3.0135    6.5024   H         1 RES1   0.0000
   162 H81       2.2413   -3.1162    5.0524   H         1 RES1   0.0000
   163 H82       2.9436   -0.6797    4.5533   H         1 RES1   0.0000
   164 H83       3.9149   -0.7526    6.0043   H         1 RES1   0.0000
   165 H84       5.4034   -1.1247    4.1886   H         1 RES1   0.0000
   166 H85       5.1852   -2.6568    5.0041   H         1 RES1   0.0000
   167 H86       5.0957   -3.3240    2.8265   H         1 RES1   0.0000
   168 H87       3.3888   -3.1774    3.1917   H         1 RES1   0.0000
   169 H88       3.4026   -0.9368    1.9657   H         1 RES1   0.0000
   170 H89       5.0945   -1.2361    1.5557   H         1 RES1   0.0000
   171 H90       4.4001   -3.4290    0.4991   H         1 RES1   0.0000
   172 H91       2.7130   -3.0282    0.8624   H         1 RES1   0.0000
   173 H92       5.5210   -2.5477   -1.0346   H         1 RES1   0.0000
   174 H93       4.4474   -2.6897   -2.4240   H         1 RES1   0.0000
   175 H94       5.0542   -1.0996   -1.9096   H         1 RES1   0.0000
   176 H95       3.1385   -0.3467   -2.8362   H         1 RES1   0.0000
   177 H96       1.8621   -1.8210   -4.1201   H         1 RES1   0.0000
   178 H97       1.6267   -2.7351   -2.6257   H         1 RES1   0.0000
   179 H98      -0.5870   -2.1722   -3.6860   H         1 RES1   0.0000
   180 H99      -2.0093   -2.6190   -2.0399   H         1 RES1   0.0000
   181 H100     -0.5994   -2.9761   -0.9683   H         1 RES1   0.0000
   182 H101     -1.8181   -1.8053   -0.4620   H         1 RES1   0.0000
   183 H102      0.3316   -0.3192   -5.0172   H         1 RES1   0.0000
   184 H103     -1.1115    0.2147   -4.1441   H         1 RES1   0.0000
   185 H104      1.5399    1.3998   -3.9746   H         1 RES1   0.0000
   186 H105     -1.4042    3.9461   -1.9130   H         1 RES1   0.0000
   187 H106     -1.0755    5.0211   -3.2995   H         1 RES1   0.0000
   188 H107     -2.5000    3.9626   -3.3216   H         1 RES1   0.0000
   189 H108      0.1743    4.0359   -5.1824   H         1 RES1   0.0000
   190 H109      0.2186    2.2761   -5.3553   H         1 RES1   0.0000
   191 H110     -2.2771    4.0100   -5.5882   H         1 RES1   0.0000
   192 H111     -1.3213    3.3634   -6.9044   H         1 RES1   0.0000
   193 H112     -3.0877    1.8865   -6.8225   H         1 RES1   0.0000
   194 H113     -1.8501    1.0104   -5.9603   H         1 RES1   0.0000
   195 H114     -2.9356    1.6752   -3.7916   H         1 RES1   0.0000
   196 H115     -4.0940    2.6511   -4.7087   H         1 RES1   0.0000
   197 H116     -4.7869    0.5135   -5.9077   H         1 RES1   0.0000
   198 H117     -3.8449   -0.3767   -4.7265   H         1 RES1   0.0000
   199 H118     -6.2356    1.4407   -4.1785   H         1 RES1   0.0000
   200 H119     -6.2033   -0.3123   -4.1224   H         1 RES1   0.0000
   201 H120     -5.8731   -0.0111   -1.8827   H         1 RES1   0.0000
   202 H121     -4.2058    0.2264   -2.3645   H         1 RES1   0.0000
   203 H122     -4.5489    2.1996   -1.0786   H         1 RES1   0.0000
   204 H123     -5.0742    2.7898   -2.6409   H         1 RES1   0.0000
   205 H124     -6.7448    3.4466   -1.0753   H         1 RES1   0.0000
   206 H125     -7.4217    2.1167   -2.0049   H         1 RES1   0.0000
   207 H126     -8.0335    1.4719    0.1172   H         1 RES1   0.0000
   208 H127     -6.5007    0.6283    0.0053   H         1 RES1   0.0000
   209 H128     -6.8487    3.3711    1.2879   H         1 RES1   0.0000
   210 H129     -7.0224    1.8626    2.1617   H         1 RES1   0.0000
   211 H130     -4.4742    3.0072    0.9576   H         1 RES1   0.0000
   212 H131     -4.8287    2.6048    2.6253   H         1 RES1   0.0000
   213 H132     -4.5997    1.3124    1.4400   H         1 RES1   0.0000
   214 O9       -2.4911    0.8586   -0.4544   O.3       1 RES1   0.0000
   215 H133     -2.5728    1.6165   -1.0565   H         1 RES1   0.0000
   216 H134     -3.3384    0.3842   -0.4914   H         1 RES1   0.0000
@<TRIPOS>BOND
     1     1    17    1
     2     1    21    1
     3     1    26    1
     4     1    41    1
     5     1   123    1
     6     1   127    1
     7     1   132    1
     8     1   147    1
     9     1   214    1
    10     2     3    1
    11     2    42    1
    12     2    43    1
    13     2    44    1
    14     3     4    1
    15     3    45    1
    16     3    46    1
    17     4     5    1
    18     4    47    1
    19     4    48    1
    20     5     6    1
    21     5    49    1
    22     5    50    1
    23     6     7    1
    24     6    51    1
    25     6    52    1
    26     7     8    1
    27     7    53    1
    28     7    54    1
    29     8     9    1
    30     8    55    1
    31     8    56    1
    32     9    10    1
    33     9    57    1
    34     9    58    1
    35    10    11    1
    36    10    59    1
    37    10    60    1
    38    11    12    1
    39    11    61    1
    40    11    62    1
    41    12    13    1
    42    12    63    1
    43    12    64    1
    44    13    14    1
    45    13    65    1
    46    13    66    1
    47    14    15    1
    48    14    16    1
    49    15    67    1
    50    15    68    1
    51    15    69    1
    52    16    17    2
    53    16    18    1
    54    18    19    1
    55    18    41    1
    56    18    70    1
    57    19    20    1
    58    19    71    1
    59    19    72    1
    60    20    21    1
    61    20    23    1
    62    20    73    1
    63    21    22    1
    64    22    74    1
    65    22    75    1
    66    22    76    1
    67    23    24    1
    68    23    77    1
    69    23    78    1
    70    24    25    1
    71    24    41    1
    72    24    79    1
    73    25    26    2
    74    25    27    1
    75    27    28    1
    76    27    29    1
    77    28    80    1
    78    28    81    1
    79    28    82    1
    80    29    30    1
    81    29    83    1
    82    29    84    1
    83    30    31    1
    84    30    85    1
    85    30    86    1
    86    31    32    1
    87    31    87    1
    88    31    88    1
    89    32    33    1
    90    32    89    1
    91    32    90    1
    92    33    34    1
    93    33    91    1
    94    33    92    1
    95    34    35    1
    96    34    93    1
    97    34    94    1
    98    35    36    1
    99    35    95    1
   100    35    96    1
   101    36    37    1
   102    36    97    1
   103    36    98    1
   104    37    38    1
   105    37    99    1
   106    37   100    1
   107    38    39    1
   108    38   101    1
   109    38   102    1
   110    39    40    1
   111    39   103    1
   112    39   104    1
   113    40   105    1
   114    40   106    1
   115    40   107    1
   116   108   109    1
   117   108   148    1
   118   108   149    1
   119   108   150    1
   120   109   110    1
   121   109   151    1
   122   109   152    1
   123   110   111    1
   124   110   153    1
   125   110   154    1
   126   111   112    1
   127   111   155    1
   128   111   156    1
   129   112   113    1
   130   112   157    1
   131   112   158    1
   132   113   114    1
   133   113   159    1
   134   113   160    1
   135   114   115    1
   136   114   161    1
   137   114   162    1
   138   115   116    1
   139   115   163    1
   140   115   164    1
   141   116   117    1
   142   116   165    1
   143   116   166    1
   144   117   118    1
   145   117   167    1
   146   117   168    1
   147   118   119    1
   148   118   169    1
   149   118   170    1
   150   119   120    1
   151   119   171    1
   152   119   172    1
   153   120   121    1
   154   120   122    1
   155   121   173    1
   156   121   174    1
   157   121   175    1
   158   122   123    2
   159   122   124    1
   160   124   125    1
   161   124   147    1
   162   124   176    1
   163   125   126    1
   164   125   177    1
   165   125   178    1
   166   126   127    1
   167   126   129    1
   168   126   179    1
   169   127   128    1
   170   128   180    1
   171   128   181    1
   172   128   182    1
   173   129   130    1
   174   129   183    1
   175   129   184    1
   176   130   131    1
   177   130   147    1
   178   130   185    1
   179   131   132    2
   180   131   133    1
   181   133   134    1
   182   133   135    1
   183   134   186    1
   184   134   187    1
   185   134   188    1
   186   135   136    1
   187   135   189    1
   188   135   190    1
   189   136   137    1
   190   136   191    1
   191   136   192    1
   192   137   138    1
   193   137   193    1
   194   137   194    1
   195   138   139    1
   196   138   195    1
   197   138   196    1
   198   139   140    1
   199   139   197    1
   200   139   198    1
   201   140   141    1
   202   140   199    1
   203   140   200    1
   204   141   142    1
   205   141   201    1
   206   141   202    1
   207   142   143    1
   208   142   203    1
   209   142   204    1
   210   143   144    1
   211   143   205    1
   212   143   206    1
   213   144   145    1
   214   144   207    1
   215   144   208    1
   216   145   146    1
   217   145   209    1
   218   145   210    1
   219   146   211    1
   220   146   212    1
   221   146   213    1
   222   214   215    1
   223   214   216    1
@<TRIPOS>SUBSTRUCTURE
     1 RES1      216 GROUP             0 ****  ****    0  
