@<TRIPOS>MOLECULE
am_c3_9H2O_c0_0_nunpairedes_0_charge_3 Charge: 3 Unpaired_Electrons: 3 XTB_Unpaired_Electrons: 0 XTB_Charge: 3
   412   417     1     0     0
SMALL
NoCharges
****
Generated from Architector

@<TRIPOS>ATOM
     1 Nd1      -0.4154   -0.0509    0.0155   Nd        1 RES1   0.0000
     2 C1       -4.9925    8.7800   -4.6525   C.3       1 RES1   0.0000
     3 C2       -5.2994    7.6346   -3.6922   C.3       1 RES1   0.0000
     4 C3       -6.7985    7.3432   -3.6268   C.3       1 RES1   0.0000
     5 C4       -7.1703    6.2248   -2.6520   C.3       1 RES1   0.0000
     6 C5       -6.7018    4.8470   -3.1182   C.3       1 RES1   0.0000
     7 C6       -7.2397    3.7011   -2.2571   C.3       1 RES1   0.0000
     8 C7       -6.6651    3.7074   -0.8389   C.3       1 RES1   0.0000
     9 C8       -6.9092    2.3853   -0.1112   C.3       1 RES1   0.0000
    10 C9       -6.1872    2.3214    1.2435   C.3       1 RES1   0.0000
    11 C10      -5.6758    0.9150    1.5987   C.3       1 RES1   0.0000
    12 N1       -4.8276    0.3237    0.5612   N.am      1 RES1   0.0000
    13 C11      -5.4514   -0.7716   -0.2023   C.3       1 RES1   0.0000
    14 C12      -4.9394   -1.0777   -1.6096   C.3       1 RES1   0.0000
    15 C13      -5.1744    0.0151   -2.6472   C.3       1 RES1   0.0000
    16 C14      -4.7583   -0.4709   -4.0384   C.3       1 RES1   0.0000
    17 C15      -4.7530    0.6572   -5.0729   C.3       1 RES1   0.0000
    18 C16      -3.5312    1.5791   -4.9714   C.3       1 RES1   0.0000
    19 C17      -2.3852    1.1950   -5.9137   C.3       1 RES1   0.0000
    20 C18      -1.7081   -0.1310   -5.5719   C.3       1 RES1   0.0000
    21 C19      -0.4609   -0.3707   -6.4182   C.3       1 RES1   0.0000
    22 C20       0.1018   -1.7748   -6.2270   C.3       1 RES1   0.0000
    23 C21      -3.5414    0.6220    0.4571   C.2       1 RES1   0.0000
    24 O1       -2.7832    0.2209   -0.4390   O.2       1 RES1   0.0000
    25 C22      -2.8761    1.5355    1.5118   C.3       1 RES1   0.0000
    26 O2       -1.6105    1.9910    1.0194   O.3       1 RES1   0.0000
    27 C23      -1.7094    3.0922    0.1137   C.3       1 RES1   0.0000
    28 C24      -1.1915    2.7881   -1.2956   C.2       1 RES1   0.0000
    29 O3       -0.8372    1.6283   -1.5883   O.2       1 RES1   0.0000
    30 N2       -1.1544    3.8038   -2.1508   N.am      1 RES1   0.0000
    31 C25      -1.2747    5.2108   -1.7715   C.3       1 RES1   0.0000
    32 C26      -2.6744    5.7107   -1.3678   C.3       1 RES1   0.0000
    33 C27      -2.6986    6.4036    0.0015   C.3       1 RES1   0.0000
    34 C28      -2.1423    7.8306    0.0253   C.3       1 RES1   0.0000
    35 C29      -0.6675    8.0040   -0.3368   C.3       1 RES1   0.0000
    36 C30       0.3289    7.3316    0.6139   C.3       1 RES1   0.0000
    37 C31       1.7127    7.2283   -0.0341   C.3       1 RES1   0.0000
    38 C32       2.7419    6.5435    0.8679   C.3       1 RES1   0.0000
    39 C33       4.0824    6.3384    0.1587   C.3       1 RES1   0.0000
    40 C34       5.1370    5.6983    1.0559   C.3       1 RES1   0.0000
    41 C35      -0.8370    3.5051   -3.5441   C.3       1 RES1   0.0000
    42 C36       0.6464    3.5977   -3.9111   C.3       1 RES1   0.0000
    43 C37       1.2818    4.9893   -3.8418   C.3       1 RES1   0.0000
    44 C38       0.6570    6.0399   -4.7735   C.3       1 RES1   0.0000
    45 C39       1.2651    6.1264   -6.1772   C.3       1 RES1   0.0000
    46 C40       1.1218    4.8669   -7.0442   C.3       1 RES1   0.0000
    47 C41       2.3588    3.9687   -6.9819   C.3       1 RES1   0.0000
    48 C42       2.1692    2.6175   -7.6654   C.3       1 RES1   0.0000
    49 C43       3.3977    1.7257   -7.4913   C.3       1 RES1   0.0000
    50 C44       3.1878    0.3421   -8.0925   C.3       1 RES1   0.0000
    51 H1       -3.9244    8.9908   -4.6750   H         1 RES1   0.0000
    52 H2       -5.5102    9.6869   -4.3478   H         1 RES1   0.0000
    53 H3       -5.3130    8.5282   -5.6610   H         1 RES1   0.0000
    54 H4       -4.9409    7.9015   -2.6923   H         1 RES1   0.0000
    55 H5       -4.7652    6.7386   -4.0248   H         1 RES1   0.0000
    56 H6       -7.1584    7.0846   -4.6245   H         1 RES1   0.0000
    57 H7       -7.3161    8.2546   -3.3238   H         1 RES1   0.0000
    58 H8       -8.2573    6.2001   -2.5603   H         1 RES1   0.0000
    59 H9       -6.7548    6.4488   -1.6665   H         1 RES1   0.0000
    60 H10      -5.6090    4.8026   -3.1265   H         1 RES1   0.0000
    61 H11      -7.0361    4.6966   -4.1467   H         1 RES1   0.0000
    62 H12      -6.9727    2.7550   -2.7359   H         1 RES1   0.0000
    63 H13      -8.3291    3.7524   -2.2234   H         1 RES1   0.0000
    64 H14      -7.0860    4.5391   -0.2740   H         1 RES1   0.0000
    65 H15      -5.5822    3.8611   -0.9108   H         1 RES1   0.0000
    66 H16      -6.5315    1.5934   -0.7545   H         1 RES1   0.0000
    67 H17      -7.9795    2.2294    0.0178   H         1 RES1   0.0000
    68 H18      -6.8554    2.6264    2.0484   H         1 RES1   0.0000
    69 H19      -5.3592    3.0339    1.2343   H         1 RES1   0.0000
    70 H20      -6.5348    0.2585    1.7168   H         1 RES1   0.0000
    71 H21      -5.1485    0.9231    2.5588   H         1 RES1   0.0000
    72 H22      -6.5122   -0.5349   -0.2650   H         1 RES1   0.0000
    73 H23      -5.3531   -1.6818    0.4017   H         1 RES1   0.0000
    74 H24      -5.4691   -1.9725   -1.9444   H         1 RES1   0.0000
    75 H25      -3.8727   -1.2886   -1.5862   H         1 RES1   0.0000
    76 H26      -4.5779    0.8888   -2.3853   H         1 RES1   0.0000
    77 H27      -6.2253    0.3106   -2.6571   H         1 RES1   0.0000
    78 H28      -5.4435   -1.2554   -4.3653   H         1 RES1   0.0000
    79 H29      -3.7617   -0.9082   -3.9664   H         1 RES1   0.0000
    80 H30      -5.6634    1.2424   -4.9367   H         1 RES1   0.0000
    81 H31      -4.7918    0.2353   -6.0774   H         1 RES1   0.0000
    82 H32      -3.1689    1.5796   -3.9388   H         1 RES1   0.0000
    83 H33      -3.8433    2.5983   -5.2150   H         1 RES1   0.0000
    84 H34      -1.6364    1.9912   -5.8927   H         1 RES1   0.0000
    85 H35      -2.7689    1.1502   -6.9337   H         1 RES1   0.0000
    86 H36      -2.4041   -0.9487   -5.7532   H         1 RES1   0.0000
    87 H37      -1.4407   -0.1434   -4.5090   H         1 RES1   0.0000
    88 H38       0.3058    0.3628   -6.1593   H         1 RES1   0.0000
    89 H39      -0.7103   -0.2281   -7.4699   H         1 RES1   0.0000
    90 H40       0.4505   -1.9199   -5.2035   H         1 RES1   0.0000
    91 H41       0.9369   -1.9507   -6.9020   H         1 RES1   0.0000
    92 H42      -0.6597   -2.5229   -6.4382   H         1 RES1   0.0000
    93 H43      -2.6416    0.9313    2.3993   H         1 RES1   0.0000
    94 H44      -3.4983    2.3868    1.7970   H         1 RES1   0.0000
    95 H45      -1.1178    3.9161    0.5266   H         1 RES1   0.0000
    96 H46      -2.7446    3.4278    0.0336   H         1 RES1   0.0000
    97 H47      -0.9178    5.7883   -2.6218   H         1 RES1   0.0000
    98 H48      -0.5846    5.3939   -0.9479   H         1 RES1   0.0000
    99 H49      -3.3733    4.8723   -1.3745   H         1 RES1   0.0000
   100 H50      -3.0333    6.4104   -2.1212   H         1 RES1   0.0000
   101 H51      -2.1737    5.8006    0.7448   H         1 RES1   0.0000
   102 H52      -3.7357    6.4629    0.3307   H         1 RES1   0.0000
   103 H53      -2.3029    8.2284    1.0276   H         1 RES1   0.0000
   104 H54      -2.7273    8.4397   -0.6631   H         1 RES1   0.0000
   105 H55      -0.4533    9.0727   -0.3397   H         1 RES1   0.0000
   106 H56      -0.4995    7.6482   -1.3534   H         1 RES1   0.0000
   107 H57      -0.0105    6.3266    0.8947   H         1 RES1   0.0000
   108 H58       0.4052    7.9090    1.5375   H         1 RES1   0.0000
   109 H59       2.0590    8.2338   -0.2819   H         1 RES1   0.0000
   110 H60       1.6364    6.6685   -0.9747   H         1 RES1   0.0000
   111 H61       2.3544    5.5693    1.1952   H         1 RES1   0.0000
   112 H62       2.8940    7.1549    1.7595   H         1 RES1   0.0000
   113 H63       4.4543    7.3060   -0.1802   H         1 RES1   0.0000
   114 H64       3.9355    5.7156   -0.7312   H         1 RES1   0.0000
   115 H65       5.3358    6.3267    1.9197   H         1 RES1   0.0000
   116 H66       6.0689    5.5761    0.5097   H         1 RES1   0.0000
   117 H67       4.8182    4.7194    1.4150   H         1 RES1   0.0000
   118 H68      -1.4396    4.1617   -4.1750   H         1 RES1   0.0000
   119 H69      -1.1521    2.4748   -3.7085   H         1 RES1   0.0000
   120 H70       0.7327    3.2234   -4.9282   H         1 RES1   0.0000
   121 H71       1.2079    2.9048   -3.2770   H         1 RES1   0.0000
   122 H72       2.3382    4.8922   -4.0999   H         1 RES1   0.0000
   123 H73       1.2464    5.3488   -2.8098   H         1 RES1   0.0000
   124 H74       0.7817    7.0221   -4.3115   H         1 RES1   0.0000
   125 H75      -0.4161    5.8763   -4.8795   H         1 RES1   0.0000
   126 H76       2.3214    6.3816   -6.0913   H         1 RES1   0.0000
   127 H77       0.7788    6.9647   -6.6799   H         1 RES1   0.0000
   128 H78       0.9689    5.1658   -8.0811   H         1 RES1   0.0000
   129 H79       0.2283    4.3144   -6.7441   H         1 RES1   0.0000
   130 H80       2.6375    3.7962   -5.9404   H         1 RES1   0.0000
   131 H81       3.1888    4.4888   -7.4619   H         1 RES1   0.0000
   132 H82       1.9799    2.7670   -8.7283   H         1 RES1   0.0000
   133 H83       1.2974    2.1053   -7.2490   H         1 RES1   0.0000
   134 H84       3.6260    1.6258   -6.4245   H         1 RES1   0.0000
   135 H85       4.2597    2.1990   -7.9625   H         1 RES1   0.0000
   136 H86       2.3648   -0.1676   -7.5962   H         1 RES1   0.0000
   137 H87       4.0841   -0.2655   -7.9918   H         1 RES1   0.0000
   138 H88       2.9490    0.4197   -9.1492   H         1 RES1   0.0000
   139 C45      11.2988    3.9224    4.7172   C.3       1 RES1   0.0000
   140 C46      10.6129    3.5121    3.4196   C.3       1 RES1   0.0000
   141 C47      11.2551    4.1665    2.1922   C.3       1 RES1   0.0000
   142 C48      10.4001    4.0250    0.9308   C.3       1 RES1   0.0000
   143 C49      10.2721    2.5760    0.4689   C.3       1 RES1   0.0000
   144 C50       9.4025    2.3966   -0.7727   C.3       1 RES1   0.0000
   145 C51       7.9603    2.8779   -0.5935   C.3       1 RES1   0.0000
   146 C52       7.0268    2.2882   -1.6586   C.3       1 RES1   0.0000
   147 C53       5.6147    2.8572   -1.5305   C.3       1 RES1   0.0000
   148 C54       4.6116    2.3332   -2.5677   C.3       1 RES1   0.0000
   149 N3        4.0406    0.9911   -2.3636   N.am      1 RES1   0.0000
   150 C55       4.5574   -0.0795   -3.2448   C.3       1 RES1   0.0000
   151 C56       4.8877   -1.4676   -2.6327   C.3       1 RES1   0.0000
   152 C57       6.3431   -1.6512   -2.1561   C.3       1 RES1   0.0000
   153 C58       7.0014   -3.0691   -2.1964   C.3       1 RES1   0.0000
   154 C59       6.2222   -4.3938   -2.0073   C.3       1 RES1   0.0000
   155 C60       6.0774   -4.9432   -0.5776   C.3       1 RES1   0.0000
   156 C61       5.2164   -6.2297   -0.5026   C.3       1 RES1   0.0000
   157 C62       4.2669   -6.2797    0.7023   C.3       1 RES1   0.0000
   158 C63       3.4231   -7.5558    0.7572   C.3       1 RES1   0.0000
   159 C64       2.1889   -7.3774    1.6361   C.3       1 RES1   0.0000
   160 C65       2.9080    0.8855   -1.6604   C.2       1 RES1   0.0000
   161 O4        2.0939   -0.0525   -1.6659   O.2       1 RES1   0.0000
   162 C66       2.6405    2.0310   -0.6682   C.3       1 RES1   0.0000
   163 O5        1.4921    1.7342    0.1178   O.3       1 RES1   0.0000
   164 C67       1.4851    2.4530    1.3469   C.3       1 RES1   0.0000
   165 C68       1.1306    1.4414    2.4512   C.2       1 RES1   0.0000
   166 O6        0.6740    0.3382    2.0995   O.2       1 RES1   0.0000
   167 N4        1.4666    1.7855    3.6893   N.am      1 RES1   0.0000
   168 C69       1.3930    3.1763    4.1036   C.3       1 RES1   0.0000
   169 C70       2.6894    3.9649    4.2643   C.3       1 RES1   0.0000
   170 C71       2.3838    5.4657    4.3290   C.3       1 RES1   0.0000
   171 C72       1.9769    6.0003    5.7051   C.3       1 RES1   0.0000
   172 C73       0.7344    5.4023    6.3667   C.3       1 RES1   0.0000
   173 C74      -0.5509    5.4693    5.5391   C.3       1 RES1   0.0000
   174 C75      -1.6940    4.7006    6.2108   C.3       1 RES1   0.0000
   175 C76      -2.8557    4.4193    5.2539   C.3       1 RES1   0.0000
   176 C77      -3.9899    3.6601    5.9454   C.3       1 RES1   0.0000
   177 C78      -5.0721    3.2030    4.9721   C.3       1 RES1   0.0000
   178 C79       1.8682    0.7622    4.6582   C.3       1 RES1   0.0000
   179 C80       1.3895    0.9325    6.1045   C.3       1 RES1   0.0000
   180 C81       2.4957    1.4198    7.0504   C.3       1 RES1   0.0000
   181 C82       3.4296    0.3075    7.5366   C.3       1 RES1   0.0000
   182 C83       2.7133   -0.8317    8.2791   C.3       1 RES1   0.0000
   183 C84       2.5785   -2.0914    7.4191   C.3       1 RES1   0.0000
   184 C85       1.6413   -3.1265    8.0387   C.3       1 RES1   0.0000
   185 C86       1.4774   -4.3589    7.1473   C.3       1 RES1   0.0000
   186 C87       0.3344   -5.2642    7.6102   C.3       1 RES1   0.0000
   187 C88       0.1931   -6.5041    6.7339   C.3       1 RES1   0.0000
   188 H89      10.8242    3.4338    5.5661   H         1 RES1   0.0000
   189 H90      11.2378    4.9988    4.8579   H         1 RES1   0.0000
   190 H91      12.3491    3.6444    4.6997   H         1 RES1   0.0000
   191 H92       9.5566    3.7973    3.4702   H         1 RES1   0.0000
   192 H93      10.6551    2.4241    3.3270   H         1 RES1   0.0000
   193 H94      12.2392    3.7273    2.0154   H         1 RES1   0.0000
   194 H95      11.4011    5.2305    2.3981   H         1 RES1   0.0000
   195 H96      10.8473    4.6108    0.1250   H         1 RES1   0.0000
   196 H97       9.4114    4.4401    1.1391   H         1 RES1   0.0000
   197 H98       9.8515    1.9664    1.2693   H         1 RES1   0.0000
   198 H99      11.2686    2.1965    0.2379   H         1 RES1   0.0000
   199 H100      9.3865    1.3347   -1.0283   H         1 RES1   0.0000
   200 H101      9.8545    2.9245   -1.6112   H         1 RES1   0.0000
   201 H102      7.9206    3.9673   -0.6693   H         1 RES1   0.0000
   202 H103      7.5972    2.5930    0.3984   H         1 RES1   0.0000
   203 H104      6.9933    1.1993   -1.5643   H         1 RES1   0.0000
   204 H105      7.4242    2.5328   -2.6455   H         1 RES1   0.0000
   205 H106      5.6646    3.9414   -1.6566   H         1 RES1   0.0000
   206 H107      5.2656    2.6761   -0.5153   H         1 RES1   0.0000
   207 H108      5.0809    2.3496   -3.5505   H         1 RES1   0.0000
   208 H109      3.7822    3.0401   -2.6295   H         1 RES1   0.0000
   209 H110      5.4758    0.3094   -3.6917   H         1 RES1   0.0000
   210 H111      3.8274   -0.2182   -4.0548   H         1 RES1   0.0000
   211 H112      4.7328   -2.1745   -3.4448   H         1 RES1   0.0000
   212 H113      4.1795   -1.7040   -1.8392   H         1 RES1   0.0000
   213 H114      6.4566   -1.2412   -1.1515   H         1 RES1   0.0000
   214 H115      6.9658   -1.0409   -2.8135   H         1 RES1   0.0000
   215 H116      7.7929   -3.0545   -1.4470   H         1 RES1   0.0000
   216 H117      7.4997   -3.1549   -3.1634   H         1 RES1   0.0000
   217 H118      6.7787   -5.1625   -2.5448   H         1 RES1   0.0000
   218 H119      5.2459   -4.3306   -2.4856   H         1 RES1   0.0000
   219 H120      5.6640   -4.1876    0.0929   H         1 RES1   0.0000
   220 H121      7.0721   -5.1805   -0.1964   H         1 RES1   0.0000
   221 H122      5.8668   -7.1084   -0.4751   H         1 RES1   0.0000
   222 H123      4.5991   -6.3314   -1.3999   H         1 RES1   0.0000
   223 H124      3.5757   -5.4420    0.6393   H         1 RES1   0.0000
   224 H125      4.8352   -6.1749    1.6272   H         1 RES1   0.0000
   225 H126      4.0246   -8.3784    1.1417   H         1 RES1   0.0000
   226 H127      3.1144   -7.8269   -0.2566   H         1 RES1   0.0000
   227 H128      2.4682   -7.0240    2.6282   H         1 RES1   0.0000
   228 H129      1.6643   -8.3250    1.7309   H         1 RES1   0.0000
   229 H130      1.5037   -6.6456    1.2012   H         1 RES1   0.0000
   230 H131      2.4894    2.9976   -1.1652   H         1 RES1   0.0000
   231 H132      3.5206    2.0985   -0.0181   H         1 RES1   0.0000
   232 H133      0.8006    3.3076    1.2806   H         1 RES1   0.0000
   233 H134      2.4901    2.8252    1.5825   H         1 RES1   0.0000
   234 H135      0.8737    3.1898    5.0597   H         1 RES1   0.0000
   235 H136      0.7501    3.6945    3.3916   H         1 RES1   0.0000
   236 H137      3.3567    3.7621    3.4255   H         1 RES1   0.0000
   237 H138      3.2055    3.6641    5.1726   H         1 RES1   0.0000
   238 H139      1.6108    5.7006    3.5958   H         1 RES1   0.0000
   239 H140      3.2797    6.0094    4.0274   H         1 RES1   0.0000
   240 H141      1.8244    7.0733    5.6002   H         1 RES1   0.0000
   241 H142      2.8150    5.8607    6.3876   H         1 RES1   0.0000
   242 H143      0.5674    5.9449    7.2982   H         1 RES1   0.0000
   243 H144      0.9308    4.3661    6.6466   H         1 RES1   0.0000
   244 H145     -0.3981    5.0413    4.5466   H         1 RES1   0.0000
   245 H146     -0.8466    6.5088    5.3925   H         1 RES1   0.0000
   246 H147     -2.0595    5.2644    7.0697   H         1 RES1   0.0000
   247 H148     -1.3181    3.7429    6.5867   H         1 RES1   0.0000
   248 H149     -2.4856    3.8213    4.4099   H         1 RES1   0.0000
   249 H150     -3.2351    5.3624    4.8533   H         1 RES1   0.0000
   250 H151     -4.4411    4.2994    6.7052   H         1 RES1   0.0000
   251 H152     -3.5717    2.7882    6.4554   H         1 RES1   0.0000
   252 H153     -5.5117    4.0551    4.4582   H         1 RES1   0.0000
   253 H154     -5.8639    2.6880    5.5108   H         1 RES1   0.0000
   254 H155     -4.6571    2.5218    4.2260   H         1 RES1   0.0000
   255 H156      2.9632    0.7778    4.6603   H         1 RES1   0.0000
   256 H157      1.5457   -0.1930    4.2399   H         1 RES1   0.0000
   257 H158      1.0181   -0.0266    6.4580   H         1 RES1   0.0000
   258 H159      0.5394    1.6117    6.1482   H         1 RES1   0.0000
   259 H160      2.0451    1.8923    7.9269   H         1 RES1   0.0000
   260 H161      3.1001    2.1781    6.5450   H         1 RES1   0.0000
   261 H162      4.1617    0.7714    8.1975   H         1 RES1   0.0000
   262 H163      3.9821   -0.1173    6.6961   H         1 RES1   0.0000
   263 H164      1.7258   -0.4994    8.6069   H         1 RES1   0.0000
   264 H165      3.2732   -1.0906    9.1775   H         1 RES1   0.0000
   265 H166      3.5694   -2.5296    7.2841   H         1 RES1   0.0000
   266 H167      2.2016   -1.8207    6.4283   H         1 RES1   0.0000
   267 H168      0.6657   -2.6605    8.2112   H         1 RES1   0.0000
   268 H169      2.0340   -3.4393    9.0070   H         1 RES1   0.0000
   269 H170      2.4124   -4.9249    7.1480   H         1 RES1   0.0000
   270 H171      1.2890   -4.0416    6.1158   H         1 RES1   0.0000
   271 H172     -0.6040   -4.6990    7.5869   H         1 RES1   0.0000
   272 H173      0.5151   -5.5696    8.6430   H         1 RES1   0.0000
   273 H174      0.0084   -6.2230    5.6977   H         1 RES1   0.0000
   274 H175     -0.6364   -7.1149    7.0786   H         1 RES1   0.0000
   275 H176      1.0959   -7.1088    6.7695   H         1 RES1   0.0000
   276 C89      -5.2870   -0.7474    9.2440   C.3       1 RES1   0.0000
   277 C90      -4.2945   -1.1463    8.1596   C.3       1 RES1   0.0000
   278 C91      -3.2647   -0.0470    7.9101   C.3       1 RES1   0.0000
   279 C92      -2.1521   -0.4487    6.9432   C.3       1 RES1   0.0000
   280 C93      -2.6233   -0.6697    5.5061   C.3       1 RES1   0.0000
   281 C94      -1.4490   -0.8584    4.5384   C.3       1 RES1   0.0000
   282 C95      -0.6257   -2.1334    4.7759   C.3       1 RES1   0.0000
   283 C96      -0.8964   -3.2890    3.8098   C.3       1 RES1   0.0000
   284 C97      -2.2994   -3.8939    3.9347   C.3       1 RES1   0.0000
   285 C98      -3.3358   -3.2243    3.0271   C.3       1 RES1   0.0000
   286 N5       -3.0787   -3.5228    1.6213   N.am      1 RES1   0.0000
   287 C99      -3.3689   -4.8872    1.1723   C.3       1 RES1   0.0000
   288 C100     -4.7262   -5.4590    1.6026   C.3       1 RES1   0.0000
   289 C101     -5.9571   -4.7024    1.0966   C.3       1 RES1   0.0000
   290 C102     -6.0502   -4.5800   -0.4252   C.3       1 RES1   0.0000
   291 C103     -6.2033   -5.9087   -1.1617   C.3       1 RES1   0.0000
   292 C104     -6.1386   -5.7639   -2.6835   C.3       1 RES1   0.0000
   293 C105     -4.7693   -5.3629   -3.2392   C.3       1 RES1   0.0000
   294 C106     -3.6665   -6.3538   -2.8715   C.3       1 RES1   0.0000
   295 C107     -2.3549   -6.0417   -3.5848   C.3       1 RES1   0.0000
   296 C108     -1.2050   -6.8986   -3.0665   C.3       1 RES1   0.0000
   297 C109     -2.3868   -2.6402    0.9077   C.2       1 RES1   0.0000
   298 O7       -2.0383   -1.5205    1.3305   O.2       1 RES1   0.0000
   299 C110     -2.0783   -3.0261   -0.5423   C.3       1 RES1   0.0000
   300 O8       -1.3798   -1.9915   -1.2333   O.3       1 RES1   0.0000
   301 C111     -0.1433   -2.4320   -1.7708   C.3       1 RES1   0.0000
   302 C112      0.8749   -2.5527   -0.6266   C.2       1 RES1   0.0000
   303 O9        0.5536   -1.9524    0.4233   O.2       1 RES1   0.0000
   304 N6        2.0265   -3.1935   -0.6988   N.am      1 RES1   0.0000
   305 C113      2.4717   -4.1291   -1.7297   C.3       1 RES1   0.0000
   306 C114      1.9713   -3.8831   -3.1557   C.3       1 RES1   0.0000
   307 C115      3.0143   -4.2047   -4.2285   C.3       1 RES1   0.0000
   308 C116      3.3834   -5.6744   -4.3753   C.3       1 RES1   0.0000
   309 C117      4.3802   -5.8130   -5.5282   C.3       1 RES1   0.0000
   310 C118      4.9357   -7.2210   -5.7769   C.3       1 RES1   0.0000
   311 C119      6.2068   -7.5325   -4.9663   C.3       1 RES1   0.0000
   312 C120      5.9782   -8.4235   -3.7437   C.3       1 RES1   0.0000
   313 C121      7.2315   -8.5349   -2.8741   C.3       1 RES1   0.0000
   314 C122      7.0514   -9.5433   -1.7417   C.3       1 RES1   0.0000
   315 C123      2.8807   -3.1011    0.4988   C.3       1 RES1   0.0000
   316 C124      3.2373   -1.6673    0.9301   C.3       1 RES1   0.0000
   317 C125      4.7501   -1.4981    1.0634   C.3       1 RES1   0.0000
   318 C126      5.3437   -2.2096    2.2760   C.3       1 RES1   0.0000
   319 C127      6.8747   -2.2853    2.2530   C.3       1 RES1   0.0000
   320 C128      7.6443   -0.9765    2.0723   C.3       1 RES1   0.0000
   321 C129      7.4859    0.0454    3.2051   C.3       1 RES1   0.0000
   322 C130      6.2930    0.9977    3.0516   C.3       1 RES1   0.0000
   323 C131      6.4576    2.3589    3.7448   C.3       1 RES1   0.0000
   324 C132      6.6592    2.3145    5.2545   C.3       1 RES1   0.0000
   325 H177     -6.0244   -1.5290    9.3999   H         1 RES1   0.0000
   326 H178     -5.8132    0.1645    8.9741   H         1 RES1   0.0000
   327 H179     -4.7718   -0.5780   10.1839   H         1 RES1   0.0000
   328 H180     -4.8411   -1.3577    7.2387   H         1 RES1   0.0000
   329 H181     -3.7779   -2.0609    8.4598   H         1 RES1   0.0000
   330 H182     -2.8071    0.2178    8.8648   H         1 RES1   0.0000
   331 H183     -3.7755    0.8461    7.5434   H         1 RES1   0.0000
   332 H184     -1.6796   -1.3559    7.3216   H         1 RES1   0.0000
   333 H185     -1.3983    0.3387    6.9384   H         1 RES1   0.0000
   334 H186     -3.2059    0.1996    5.1877   H         1 RES1   0.0000
   335 H187     -3.2849   -1.5307    5.4764   H         1 RES1   0.0000
   336 H188     -0.8044    0.0141    4.6465   H         1 RES1   0.0000
   337 H189     -1.7742   -0.8554    3.4944   H         1 RES1   0.0000
   338 H190     -0.7793   -2.4862    5.7928   H         1 RES1   0.0000
   339 H191      0.4345   -1.8908    4.6855   H         1 RES1   0.0000
   340 H192     -0.1657   -4.0729    4.0241   H         1 RES1   0.0000
   341 H193     -0.7149   -2.9448    2.7886   H         1 RES1   0.0000
   342 H194     -2.6366   -3.8040    4.9665   H         1 RES1   0.0000
   343 H195     -2.2692   -4.9602    3.6992   H         1 RES1   0.0000
   344 H196     -3.3019   -2.1403    3.1315   H         1 RES1   0.0000
   345 H197     -4.3407   -3.5689    3.2744   H         1 RES1   0.0000
   346 H198     -2.5880   -5.5513    1.5623   H         1 RES1   0.0000
   347 H199     -3.3360   -4.9276    0.0872   H         1 RES1   0.0000
   348 H200     -4.7779   -5.5699    2.6859   H         1 RES1   0.0000
   349 H201     -4.7585   -6.4699    1.1995   H         1 RES1   0.0000
   350 H202     -5.9707   -3.7021    1.5405   H         1 RES1   0.0000
   351 H203     -6.8393   -5.2348    1.4513   H         1 RES1   0.0000
   352 H204     -5.1641   -4.0600   -0.7858   H         1 RES1   0.0000
   353 H205     -6.9087   -3.9498   -0.6595   H         1 RES1   0.0000
   354 H206     -7.1660   -6.3447   -0.9004   H         1 RES1   0.0000
   355 H207     -5.4326   -6.6088   -0.8446   H         1 RES1   0.0000
   356 H208     -6.8822   -5.0373   -3.0168   H         1 RES1   0.0000
   357 H209     -6.4033   -6.7257   -3.1232   H         1 RES1   0.0000
   358 H210     -4.4850   -4.3597   -2.9011   H         1 RES1   0.0000
   359 H211     -4.8437   -5.3216   -4.3285   H         1 RES1   0.0000
   360 H212     -3.9845   -7.3614   -3.1388   H         1 RES1   0.0000
   361 H213     -3.4906   -6.3433   -1.7937   H         1 RES1   0.0000
   362 H214     -2.1172   -4.9800   -3.4596   H         1 RES1   0.0000
   363 H215     -2.4813   -6.2165   -4.6521   H         1 RES1   0.0000
   364 H216     -0.9810   -6.6626   -2.0249   H         1 RES1   0.0000
   365 H217     -0.3073   -6.7471   -3.6638   H         1 RES1   0.0000
   366 H218     -1.4703   -7.9516   -3.1196   H         1 RES1   0.0000
   367 H219     -3.0354   -3.1745   -1.0559   H         1 RES1   0.0000
   368 H220     -1.5064   -3.9579   -0.5630   H         1 RES1   0.0000
   369 H221      0.1690   -1.6321   -2.4584   H         1 RES1   0.0000
   370 H222     -0.3117   -3.3581   -2.3223   H         1 RES1   0.0000
   371 H223      2.2284   -5.1545   -1.4194   H         1 RES1   0.0000
   372 H224      3.5558   -4.0537   -1.7410   H         1 RES1   0.0000
   373 H225      1.7230   -2.8285   -3.2768   H         1 RES1   0.0000
   374 H226      1.0935   -4.5029   -3.3526   H         1 RES1   0.0000
   375 H227      3.9189   -3.6254   -4.0424   H         1 RES1   0.0000
   376 H228      2.6154   -3.8475   -5.1796   H         1 RES1   0.0000
   377 H229      2.4761   -6.2445   -4.5870   H         1 RES1   0.0000
   378 H230      3.8204   -6.0498   -3.4519   H         1 RES1   0.0000
   379 H231      5.2189   -5.1305   -5.3541   H         1 RES1   0.0000
   380 H232      3.8829   -5.4603   -6.4326   H         1 RES1   0.0000
   381 H233      5.1759   -7.2857   -6.8415   H         1 RES1   0.0000
   382 H234      4.1705   -7.9744   -5.5735   H         1 RES1   0.0000
   383 H235      6.6694   -6.5935   -4.6485   H         1 RES1   0.0000
   384 H236      6.9235   -8.0338   -5.6200   H         1 RES1   0.0000
   385 H237      5.6963   -9.4224   -4.0809   H         1 RES1   0.0000
   386 H238      5.1544   -8.0324   -3.1421   H         1 RES1   0.0000
   387 H239      7.4677   -7.5521   -2.4542   H         1 RES1   0.0000
   388 H240      8.0766   -8.8340   -3.4980   H         1 RES1   0.0000
   389 H241      6.1798   -9.2846   -1.1387   H         1 RES1   0.0000
   390 H242      7.9312   -9.5488   -1.0996   H         1 RES1   0.0000
   391 H243      6.9072  -10.5469   -2.1409   H         1 RES1   0.0000
   392 H244      3.8050   -3.6085    0.2411   H         1 RES1   0.0000
   393 H245      2.4022   -3.6470    1.3114   H         1 RES1   0.0000
   394 H246      2.7461   -1.3920    1.8660   H         1 RES1   0.0000
   395 H247      2.8792   -0.9977    0.1495   H         1 RES1   0.0000
   396 H248      4.9884   -0.4347    1.1240   H         1 RES1   0.0000
   397 H249      5.2086   -1.9034    0.1653   H         1 RES1   0.0000
   398 H250      4.9714   -3.2375    2.2965   H         1 RES1   0.0000
   399 H251      5.0148   -1.7198    3.1944   H         1 RES1   0.0000
   400 H252      7.1719   -2.9616    1.4495   H         1 RES1   0.0000
   401 H253      7.1932   -2.7420    3.1896   H         1 RES1   0.0000
   402 H254      7.3566   -0.5163    1.1265   H         1 RES1   0.0000
   403 H255      8.7007   -1.2512    1.9984   H         1 RES1   0.0000
   404 H256      8.3934    0.6479    3.2474   H         1 RES1   0.0000
   405 H257      7.3954   -0.4919    4.1472   H         1 RES1   0.0000
   406 H258      5.3857    0.5126    3.4213   H         1 RES1   0.0000
   407 H259      6.1499    1.2068    1.9850   H         1 RES1   0.0000
   408 H260      7.3005    2.8891    3.3008   H         1 RES1   0.0000
   409 H261      5.5695    2.9631    3.5256   H         1 RES1   0.0000
   410 H262      5.8934    1.7107    5.7385   H         1 RES1   0.0000
   411 H263      6.6089    3.3243    5.6575   H         1 RES1   0.0000
   412 H264      7.6372    1.9151    5.5060   H         1 RES1   0.0000
@<TRIPOS>BOND
     1     1    24    1
     2     1    26    1
     3     1    29    1
     4     1   161    1
     5     1   163    1
     6     1   166    1
     7     1   298    1
     8     1   300    1
     9     1   303    1
    10     2     3    1
    11     2    51    1
    12     2    52    1
    13     2    53    1
    14     3     4    1
    15     3    54    1
    16     3    55    1
    17     4     5    1
    18     4    56    1
    19     4    57    1
    20     5     6    1
    21     5    58    1
    22     5    59    1
    23     6     7    1
    24     6    60    1
    25     6    61    1
    26     7     8    1
    27     7    62    1
    28     7    63    1
    29     8     9    1
    30     8    64    1
    31     8    65    1
    32     9    10    1
    33     9    66    1
    34     9    67    1
    35    10    11    1
    36    10    68    1
    37    10    69    1
    38    11    12    1
    39    11    70    1
    40    11    71    1
    41    12    13    1
    42    12    23    1
    43    13    14    1
    44    13    72    1
    45    13    73    1
    46    14    15    1
    47    14    74    1
    48    14    75    1
    49    15    16    1
    50    15    76    1
    51    15    77    1
    52    16    17    1
    53    16    78    1
    54    16    79    1
    55    17    18    1
    56    17    80    1
    57    17    81    1
    58    18    19    1
    59    18    82    1
    60    18    83    1
    61    19    20    1
    62    19    84    1
    63    19    85    1
    64    20    21    1
    65    20    86    1
    66    20    87    1
    67    21    22    1
    68    21    88    1
    69    21    89    1
    70    22    90    1
    71    22    91    1
    72    22    92    1
    73    23    24    2
    74    23    25    1
    75    25    26    1
    76    25    93    1
    77    25    94    1
    78    26    27    1
    79    27    28    1
    80    27    95    1
    81    27    96    1
    82    28    29    2
    83    28    30    1
    84    30    31    1
    85    30    41    1
    86    31    32    1
    87    31    97    1
    88    31    98    1
    89    32    33    1
    90    32    99    1
    91    32   100    1
    92    33    34    1
    93    33   101    1
    94    33   102    1
    95    34    35    1
    96    34   103    1
    97    34   104    1
    98    35    36    1
    99    35   105    1
   100    35   106    1
   101    36    37    1
   102    36   107    1
   103    36   108    1
   104    37    38    1
   105    37   109    1
   106    37   110    1
   107    38    39    1
   108    38   111    1
   109    38   112    1
   110    39    40    1
   111    39   113    1
   112    39   114    1
   113    40   115    1
   114    40   116    1
   115    40   117    1
   116    41    42    1
   117    41   118    1
   118    41   119    1
   119    42    43    1
   120    42   120    1
   121    42   121    1
   122    43    44    1
   123    43   122    1
   124    43   123    1
   125    44    45    1
   126    44   124    1
   127    44   125    1
   128    45    46    1
   129    45   126    1
   130    45   127    1
   131    46    47    1
   132    46   128    1
   133    46   129    1
   134    47    48    1
   135    47   130    1
   136    47   131    1
   137    48    49    1
   138    48   132    1
   139    48   133    1
   140    49    50    1
   141    49   134    1
   142    49   135    1
   143    50   136    1
   144    50   137    1
   145    50   138    1
   146   139   140    1
   147   139   188    1
   148   139   189    1
   149   139   190    1
   150   140   141    1
   151   140   191    1
   152   140   192    1
   153   141   142    1
   154   141   193    1
   155   141   194    1
   156   142   143    1
   157   142   195    1
   158   142   196    1
   159   143   144    1
   160   143   197    1
   161   143   198    1
   162   144   145    1
   163   144   199    1
   164   144   200    1
   165   145   146    1
   166   145   201    1
   167   145   202    1
   168   146   147    1
   169   146   203    1
   170   146   204    1
   171   147   148    1
   172   147   205    1
   173   147   206    1
   174   148   149    1
   175   148   207    1
   176   148   208    1
   177   149   150    1
   178   149   160    1
   179   150   151    1
   180   150   209    1
   181   150   210    1
   182   151   152    1
   183   151   211    1
   184   151   212    1
   185   152   153    1
   186   152   213    1
   187   152   214    1
   188   153   154    1
   189   153   215    1
   190   153   216    1
   191   154   155    1
   192   154   217    1
   193   154   218    1
   194   155   156    1
   195   155   219    1
   196   155   220    1
   197   156   157    1
   198   156   221    1
   199   156   222    1
   200   157   158    1
   201   157   223    1
   202   157   224    1
   203   158   159    1
   204   158   225    1
   205   158   226    1
   206   159   227    1
   207   159   228    1
   208   159   229    1
   209   160   161    2
   210   160   162    1
   211   162   163    1
   212   162   230    1
   213   162   231    1
   214   163   164    1
   215   164   165    1
   216   164   232    1
   217   164   233    1
   218   165   166    2
   219   165   167    1
   220   167   168    1
   221   167   178    1
   222   168   169    1
   223   168   234    1
   224   168   235    1
   225   169   170    1
   226   169   236    1
   227   169   237    1
   228   170   171    1
   229   170   238    1
   230   170   239    1
   231   171   172    1
   232   171   240    1
   233   171   241    1
   234   172   173    1
   235   172   242    1
   236   172   243    1
   237   173   174    1
   238   173   244    1
   239   173   245    1
   240   174   175    1
   241   174   246    1
   242   174   247    1
   243   175   176    1
   244   175   248    1
   245   175   249    1
   246   176   177    1
   247   176   250    1
   248   176   251    1
   249   177   252    1
   250   177   253    1
   251   177   254    1
   252   178   179    1
   253   178   255    1
   254   178   256    1
   255   179   180    1
   256   179   257    1
   257   179   258    1
   258   180   181    1
   259   180   259    1
   260   180   260    1
   261   181   182    1
   262   181   261    1
   263   181   262    1
   264   182   183    1
   265   182   263    1
   266   182   264    1
   267   183   184    1
   268   183   265    1
   269   183   266    1
   270   184   185    1
   271   184   267    1
   272   184   268    1
   273   185   186    1
   274   185   269    1
   275   185   270    1
   276   186   187    1
   277   186   271    1
   278   186   272    1
   279   187   273    1
   280   187   274    1
   281   187   275    1
   282   276   277    1
   283   276   325    1
   284   276   326    1
   285   276   327    1
   286   277   278    1
   287   277   328    1
   288   277   329    1
   289   278   279    1
   290   278   330    1
   291   278   331    1
   292   279   280    1
   293   279   332    1
   294   279   333    1
   295   280   281    1
   296   280   334    1
   297   280   335    1
   298   281   282    1
   299   281   336    1
   300   281   337    1
   301   282   283    1
   302   282   338    1
   303   282   339    1
   304   283   284    1
   305   283   340    1
   306   283   341    1
   307   284   285    1
   308   284   342    1
   309   284   343    1
   310   285   286    1
   311   285   344    1
   312   285   345    1
   313   286   287    1
   314   286   297    1
   315   287   288    1
   316   287   346    1
   317   287   347    1
   318   288   289    1
   319   288   348    1
   320   288   349    1
   321   289   290    1
   322   289   350    1
   323   289   351    1
   324   290   291    1
   325   290   352    1
   326   290   353    1
   327   291   292    1
   328   291   354    1
   329   291   355    1
   330   292   293    1
   331   292   356    1
   332   292   357    1
   333   293   294    1
   334   293   358    1
   335   293   359    1
   336   294   295    1
   337   294   360    1
   338   294   361    1
   339   295   296    1
   340   295   362    1
   341   295   363    1
   342   296   364    1
   343   296   365    1
   344   296   366    1
   345   297   298    2
   346   297   299    1
   347   299   300    1
   348   299   367    1
   349   299   368    1
   350   300   301    1
   351   301   302    1
   352   301   369    1
   353   301   370    1
   354   302   303    2
   355   302   304    1
   356   304   305    1
   357   304   315    1
   358   305   306    1
   359   305   371    1
   360   305   372    1
   361   306   307    1
   362   306   373    1
   363   306   374    1
   364   307   308    1
   365   307   375    1
   366   307   376    1
   367   308   309    1
   368   308   377    1
   369   308   378    1
   370   309   310    1
   371   309   379    1
   372   309   380    1
   373   310   311    1
   374   310   381    1
   375   310   382    1
   376   311   312    1
   377   311   383    1
   378   311   384    1
   379   312   313    1
   380   312   385    1
   381   312   386    1
   382   313   314    1
   383   313   387    1
   384   313   388    1
   385   314   389    1
   386   314   390    1
   387   314   391    1
   388   315   316    1
   389   315   392    1
   390   315   393    1
   391   316   317    1
   392   316   394    1
   393   316   395    1
   394   317   318    1
   395   317   396    1
   396   317   397    1
   397   318   319    1
   398   318   398    1
   399   318   399    1
   400   319   320    1
   401   319   400    1
   402   319   401    1
   403   320   321    1
   404   320   402    1
   405   320   403    1
   406   321   322    1
   407   321   404    1
   408   321   405    1
   409   322   323    1
   410   322   406    1
   411   322   407    1
   412   323   324    1
   413   323   408    1
   414   323   409    1
   415   324   410    1
   416   324   411    1
   417   324   412    1
@<TRIPOS>SUBSTRUCTURE
     1 RES1      412 GROUP             0 ****  ****    0  
