@<TRIPOS>MOLECULE
am_c3_9H2O_c0_0_nunpairedes_0_charge_3 Charge: 3 Unpaired_Electrons: 3 XTB_Unpaired_Electrons: 0 XTB_Charge: 3
   343   351     1     0     0
SMALL
NoCharges
****
Generated from Architector

@<TRIPOS>ATOM
     1 Nd1      -0.0847   -0.0425    0.0810   Nd        1 RES1   0.0000
     2 C1        6.2156    3.1652   -8.9124   C.3       1 RES1   0.0000
     3 C2        6.4164    3.4367   -7.4252   C.3       1 RES1   0.0000
     4 C3        5.1181    3.9023   -6.7613   C.3       1 RES1   0.0000
     5 C4        5.3138    4.2691   -5.2902   C.3       1 RES1   0.0000
     6 C5        4.0278    4.6595   -4.5460   C.3       1 RES1   0.0000
     7 C6        3.1397    3.5001   -4.0524   C.3       1 RES1   0.0000
     8 C7        1.9791    3.1163   -4.9762   C.3       1 RES1   0.0000
     9 C8        1.0986    2.0130   -4.3747   C.3       1 RES1   0.0000
    10 C9        0.0350    1.4789   -5.3452   C.3       1 RES1   0.0000
    11 C10      -0.2039   -0.0380   -5.3017   C.3       1 RES1   0.0000
    12 C11      -0.7901   -0.6112   -4.0005   C.3       1 RES1   0.0000
    13 C12      -2.2288   -0.1321   -3.8785   C.3       1 RES1   0.0000
    14 N1       -3.0885   -0.6418   -2.8067   N.am      1 RES1   0.0000
    15 C13      -4.3981   -1.0768   -3.2750   C.3       1 RES1   0.0000
    16 C14      -4.1983   -2.2433   -4.2718   C.3       1 RES1   0.0000
    17 C15      -4.9128   -3.5364   -3.8905   C.3       1 RES1   0.0000
    18 C16      -4.3029   -4.2235   -2.6561   C.3       1 RES1   0.0000
    19 C17      -3.7282   -5.6188   -2.9301   C.3       1 RES1   0.0000
    20 C18      -2.3648   -5.6416   -3.6474   C.3       1 RES1   0.0000
    21 C19      -2.4361   -6.1300   -5.0960   C.3       1 RES1   0.0000
    22 C20      -1.0970   -6.0894   -5.8450   C.3       1 RES1   0.0000
    23 C21      -0.1169   -7.2415   -5.5882   C.3       1 RES1   0.0000
    24 C22       0.5665   -7.2324   -4.2184   C.3       1 RES1   0.0000
    25 C23       1.9385   -7.9132   -4.2215   C.3       1 RES1   0.0000
    26 C24       1.8664   -9.4121   -4.4779   C.3       1 RES1   0.0000
    27 C25      -2.6944   -0.7770   -1.5423   C.2       1 RES1   0.0000
    28 O1       -1.5383   -1.0837   -1.2105   O.2       1 RES1   0.0000
    29 C26      -3.6796   -0.4348   -0.3907   C.3       1 RES1   0.0000
    30 O2       -2.8637    0.3806    0.4527   O.3       1 RES1   0.0000
    31 C27      -3.3944    0.9891    1.6648   C.3       1 RES1   0.0000
    32 C28      -4.8896    0.8958    1.9976   C.3       1 RES1   0.0000
    33 C29      -5.5930    2.2534    2.0226   C.3       1 RES1   0.0000
    34 C30      -4.7856    3.2992    2.7840   C.3       1 RES1   0.0000
    35 N2       -3.4413    3.4288    2.2463   N.am      1 RES1   0.0000
    36 C31      -2.6621    4.6619    2.4792   C.3       1 RES1   0.0000
    37 C32      -3.4167    5.9091    2.9506   C.3       1 RES1   0.0000
    38 C33      -4.0324    6.6601    1.7678   C.3       1 RES1   0.0000
    39 C34      -3.0177    7.5610    1.0558   C.3       1 RES1   0.0000
    40 C35      -3.5682    8.1127   -0.2560   C.3       1 RES1   0.0000
    41 C36      -2.5317    8.9418   -1.0027   C.3       1 RES1   0.0000
    42 C37      -2.7891    2.4109    1.6791   C.2       1 RES1   0.0000
    43 O3       -1.6429    2.5334    1.2188   O.2       1 RES1   0.0000
    44 H1        7.1220    2.7549   -9.3489   H         1 RES1   0.0000
    45 H2        5.9753    4.0840   -9.4413   H         1 RES1   0.0000
    46 H3        5.4015    2.4585   -9.0693   H         1 RES1   0.0000
    47 H4        7.1889    4.1990   -7.3016   H         1 RES1   0.0000
    48 H5        6.7670    2.5235   -6.9335   H         1 RES1   0.0000
    49 H6        4.3807    3.1016   -6.8543   H         1 RES1   0.0000
    50 H7        4.7362    4.7774   -7.2940   H         1 RES1   0.0000
    51 H8        5.9921    5.1244   -5.2408   H         1 RES1   0.0000
    52 H9        5.8072    3.4466   -4.7653   H         1 RES1   0.0000
    53 H10       3.4398    5.3306   -5.1737   H         1 RES1   0.0000
    54 H11       4.3314    5.2290   -3.6640   H         1 RES1   0.0000
    55 H12       2.7193    3.7894   -3.0828   H         1 RES1   0.0000
    56 H13       3.7667    2.6240   -3.8711   H         1 RES1   0.0000
    57 H14       2.3766    2.7807   -5.9322   H         1 RES1   0.0000
    58 H15       1.3738    4.0034   -5.1682   H         1 RES1   0.0000
    59 H16       0.6106    2.3989   -3.4773   H         1 RES1   0.0000
    60 H17       1.7407    1.1956   -4.0530   H         1 RES1   0.0000
    61 H18       0.3389    1.7191   -6.3651   H         1 RES1   0.0000
    62 H19      -0.9078    1.9969   -5.1696   H         1 RES1   0.0000
    63 H20       0.7302   -0.5542   -5.5264   H         1 RES1   0.0000
    64 H21      -0.8887   -0.2830   -6.1177   H         1 RES1   0.0000
    65 H22      -0.1911   -0.3166   -3.1331   H         1 RES1   0.0000
    66 H23      -0.7792   -1.7015   -4.0601   H         1 RES1   0.0000
    67 H24      -2.7318   -0.3574   -4.8158   H         1 RES1   0.0000
    68 H25      -2.2106    0.9550   -3.7757   H         1 RES1   0.0000
    69 H26      -4.9091   -0.2450   -3.7625   H         1 RES1   0.0000
    70 H27      -5.0039   -1.4062   -2.4336   H         1 RES1   0.0000
    71 H28      -3.1347   -2.4705   -4.3356   H         1 RES1   0.0000
    72 H29      -4.5273   -1.9331   -5.2624   H         1 RES1   0.0000
    73 H30      -4.8483   -4.2137   -4.7417   H         1 RES1   0.0000
    74 H31      -5.9725   -3.3332   -3.7349   H         1 RES1   0.0000
    75 H32      -5.0746   -4.3346   -1.8947   H         1 RES1   0.0000
    76 H33      -3.5167   -3.5944   -2.2262   H         1 RES1   0.0000
    77 H34      -4.4563   -6.1913   -3.5043   H         1 RES1   0.0000
    78 H35      -3.6222   -6.1243   -1.9686   H         1 RES1   0.0000
    79 H36      -1.6909   -6.3010   -3.1016   H         1 RES1   0.0000
    80 H37      -1.9195   -4.6421   -3.6346   H         1 RES1   0.0000
    81 H38      -3.1400   -5.4992   -5.6445   H         1 RES1   0.0000
    82 H39      -2.8237   -7.1490   -5.1219   H         1 RES1   0.0000
    83 H40      -0.5975   -5.1376   -5.6374   H         1 RES1   0.0000
    84 H41      -1.3206   -6.1102   -6.9141   H         1 RES1   0.0000
    85 H42       0.6644   -7.1754   -6.3499   H         1 RES1   0.0000
    86 H43      -0.6317   -8.1897   -5.7376   H         1 RES1   0.0000
    87 H44      -0.0616   -7.7265   -3.4751   H         1 RES1   0.0000
    88 H45       0.7051   -6.1940   -3.9062   H         1 RES1   0.0000
    89 H46       2.4175   -7.7475   -3.2519   H         1 RES1   0.0000
    90 H47       2.5702   -7.4500   -4.9823   H         1 RES1   0.0000
    91 H48       1.2475   -9.9014   -3.7302   H         1 RES1   0.0000
    92 H49       2.8597   -9.8521   -4.4374   H         1 RES1   0.0000
    93 H50       1.4463   -9.6203   -5.4566   H         1 RES1   0.0000
    94 H51      -4.0150   -1.3417    0.1388   H         1 RES1   0.0000
    95 H52      -4.5336    0.1313   -0.7833   H         1 RES1   0.0000
    96 H53      -2.8349    0.4810    2.4678   H         1 RES1   0.0000
    97 H54      -4.9744    0.4483    2.9903   H         1 RES1   0.0000
    98 H55      -5.4211    0.2386    1.3085   H         1 RES1   0.0000
    99 H56      -6.5574    2.1383    2.5181   H         1 RES1   0.0000
   100 H57      -5.7946    2.5927    1.0064   H         1 RES1   0.0000
   101 H58      -4.7392    3.0439    3.8519   H         1 RES1   0.0000
   102 H59      -5.2882    4.2644    2.6911   H         1 RES1   0.0000
   103 H60      -2.1741    4.8850    1.5270   H         1 RES1   0.0000
   104 H61      -1.8859    4.4116    3.2085   H         1 RES1   0.0000
   105 H62      -2.7011    6.5637    3.4534   H         1 RES1   0.0000
   106 H63      -4.1756    5.6527    3.6896   H         1 RES1   0.0000
   107 H64      -4.8831    7.2620    2.0832   H         1 RES1   0.0000
   108 H65      -4.4164    5.9128    1.0709   H         1 RES1   0.0000
   109 H66      -2.0962    7.0094    0.8545   H         1 RES1   0.0000
   110 H67      -2.7417    8.3975    1.7014   H         1 RES1   0.0000
   111 H68      -4.4368    8.7374   -0.0449   H         1 RES1   0.0000
   112 H69      -3.9016    7.2846   -0.8895   H         1 RES1   0.0000
   113 H70      -2.2923    9.8408   -0.4395   H         1 RES1   0.0000
   114 H71      -2.9214    9.2393   -1.9749   H         1 RES1   0.0000
   115 H72      -1.6103    8.3817   -1.1570   H         1 RES1   0.0000
   116 C38      -5.9952   -4.1463    8.7001   C.3       1 RES1   0.0000
   117 C39      -5.4322   -5.1463    7.6971   C.3       1 RES1   0.0000
   118 C40      -5.2117   -4.4920    6.3344   C.3       1 RES1   0.0000
   119 C41      -4.8997   -5.5097    5.2421   C.3       1 RES1   0.0000
   120 C42      -4.7646   -4.8917    3.8457   C.3       1 RES1   0.0000
   121 C43      -3.5586   -3.9480    3.7033   C.3       1 RES1   0.0000
   122 C44      -3.8213   -2.4710    4.0402   C.3       1 RES1   0.0000
   123 C45      -2.5676   -1.7810    4.5967   C.3       1 RES1   0.0000
   124 C46      -2.8734   -0.4588    5.3043   C.3       1 RES1   0.0000
   125 C47      -1.7482    0.0362    6.2208   C.3       1 RES1   0.0000
   126 C48      -0.3877    0.2863    5.5560   C.3       1 RES1   0.0000
   127 C49      -0.4352    1.5179    4.6568   C.3       1 RES1   0.0000
   128 N3        0.7745    1.9476    3.9461   N.am      1 RES1   0.0000
   129 C50       1.8681    2.4710    4.7564   C.3       1 RES1   0.0000
   130 C51       2.8096    1.3423    5.2169   C.3       1 RES1   0.0000
   131 C52       3.9373    1.8485    6.1338   C.3       1 RES1   0.0000
   132 C53       5.2545    1.0922    5.9122   C.3       1 RES1   0.0000
   133 C54       5.2942   -0.2915    6.5679   C.3       1 RES1   0.0000
   134 C55       6.2947   -1.2419    5.8839   C.3       1 RES1   0.0000
   135 C56       5.7330   -2.6634    5.7819   C.3       1 RES1   0.0000
   136 C57       6.7473   -3.7461    5.3864   C.3       1 RES1   0.0000
   137 C58       7.1188   -3.8300    3.8990   C.3       1 RES1   0.0000
   138 C59       5.9776   -4.3696    3.0234   C.3       1 RES1   0.0000
   139 C60       6.4441   -5.2241    1.8422   C.3       1 RES1   0.0000
   140 C61       7.2870   -4.4763    0.8146   C.3       1 RES1   0.0000
   141 C62       0.7778    1.7645    2.6180   C.2       1 RES1   0.0000
   142 O4        0.1311    0.8263    2.1128   O.2       1 RES1   0.0000
   143 C63       1.3439    2.8103    1.6407   C.3       1 RES1   0.0000
   144 O5        1.3541    2.2563    0.3194   O.3       1 RES1   0.0000
   145 C64       0.9208    3.0696   -0.8027   C.3       1 RES1   0.0000
   146 C65       1.1510    4.5770   -0.8012   C.3       1 RES1   0.0000
   147 C66      -0.0744    5.3621   -0.3552   C.3       1 RES1   0.0000
   148 C67      -1.2820    5.0322   -1.2290   C.3       1 RES1   0.0000
   149 N4       -1.4681    3.6030   -1.3896   N.am      1 RES1   0.0000
   150 C68      -2.7610    3.0152   -1.7825   C.3       1 RES1   0.0000
   151 C69      -3.8904    3.9055   -2.3036   C.3       1 RES1   0.0000
   152 C70      -4.8364    4.4106   -1.2138   C.3       1 RES1   0.0000
   153 C71      -6.2585    4.6666   -1.7131   C.3       1 RES1   0.0000
   154 C72      -7.0984    5.4320   -0.6795   C.3       1 RES1   0.0000
   155 C73      -8.1679    6.2930   -1.3426   C.3       1 RES1   0.0000
   156 C74      -0.5231    2.7019   -1.1621   C.2       1 RES1   0.0000
   157 O6       -0.7576    1.4843   -1.3275   O.2       1 RES1   0.0000
   158 H73      -6.0678   -4.5912    9.6891   H         1 RES1   0.0000
   159 H74      -6.9893   -3.8266    8.3930   H         1 RES1   0.0000
   160 H75      -5.3573   -3.2657    8.7655   H         1 RES1   0.0000
   161 H76      -6.1251   -5.9840    7.6008   H         1 RES1   0.0000
   162 H77      -4.4842   -5.5433    8.0667   H         1 RES1   0.0000
   163 H78      -4.3884   -3.7795    6.4275   H         1 RES1   0.0000
   164 H79      -6.1159   -3.9441    6.0568   H         1 RES1   0.0000
   165 H80      -5.7019   -6.2508    5.2145   H         1 RES1   0.0000
   166 H81      -3.9801   -6.0424    5.4965   H         1 RES1   0.0000
   167 H82      -5.6904   -4.3730    3.5876   H         1 RES1   0.0000
   168 H83      -4.6361   -5.7132    3.1369   H         1 RES1   0.0000
   169 H84      -3.1648   -4.0120    2.6824   H         1 RES1   0.0000
   170 H85      -2.7806   -4.3218    4.3691   H         1 RES1   0.0000
   171 H86      -4.6211   -2.4017    4.7778   H         1 RES1   0.0000
   172 H87      -4.1635   -1.9530    3.1391   H         1 RES1   0.0000
   173 H88      -1.8544   -1.6242    3.7821   H         1 RES1   0.0000
   174 H89      -2.1065   -2.4460    5.3318   H         1 RES1   0.0000
   175 H90      -3.7439   -0.6170    5.9403   H         1 RES1   0.0000
   176 H91      -3.1516    0.3196    4.5886   H         1 RES1   0.0000
   177 H92      -1.6054   -0.6980    7.0174   H         1 RES1   0.0000
   178 H93      -2.0707    0.9640    6.6992   H         1 RES1   0.0000
   179 H94      -0.0959   -0.5822    4.9712   H         1 RES1   0.0000
   180 H95       0.3345    0.4341    6.3575   H         1 RES1   0.0000
   181 H96      -0.7437    2.3710    5.2678   H         1 RES1   0.0000
   182 H97      -1.1911    1.3523    3.8887   H         1 RES1   0.0000
   183 H98       1.4371    2.9613    5.6308   H         1 RES1   0.0000
   184 H99       2.4387    3.2087    4.1919   H         1 RES1   0.0000
   185 H100      3.2496    0.8709    4.3367   H         1 RES1   0.0000
   186 H101      2.2370    0.5746    5.7331   H         1 RES1   0.0000
   187 H102      3.6452    1.7521    7.1821   H         1 RES1   0.0000
   188 H103      4.1114    2.9105    5.9399   H         1 RES1   0.0000
   189 H104      6.0792    1.6940    6.2947   H         1 RES1   0.0000
   190 H105      5.4238    0.9769    4.8381   H         1 RES1   0.0000
   191 H106      4.2929   -0.7286    6.5261   H         1 RES1   0.0000
   192 H107      5.5502   -0.1882    7.6209   H         1 RES1   0.0000
   193 H108      7.2297   -1.2549    6.4441   H         1 RES1   0.0000
   194 H109      6.5266   -0.8709    4.8830   H         1 RES1   0.0000
   195 H110      4.8996   -2.6627    5.0703   H         1 RES1   0.0000
   196 H111      5.3321   -2.9364    6.7615   H         1 RES1   0.0000
   197 H112      6.3367   -4.7159    5.6838   H         1 RES1   0.0000
   198 H113      7.6610   -3.5996    5.9654   H         1 RES1   0.0000
   199 H114      7.9695   -4.5098    3.8173   H         1 RES1   0.0000
   200 H115      7.4485   -2.8529    3.5363   H         1 RES1   0.0000
   201 H116      5.3730   -3.5458    2.6429   H         1 RES1   0.0000
   202 H117      5.3274   -4.9948    3.6428   H         1 RES1   0.0000
   203 H118      5.5630   -5.6381    1.3412   H         1 RES1   0.0000
   204 H119      7.0224   -6.0644    2.2253   H         1 RES1   0.0000
   205 H120      6.7204   -3.6692    0.3487   H         1 RES1   0.0000
   206 H121      7.6040   -5.1597    0.0293   H         1 RES1   0.0000
   207 H122      8.1782   -4.0564    1.2737   H         1 RES1   0.0000
   208 H123      2.3417    3.1845    1.8970   H         1 RES1   0.0000
   209 H124      0.6207    3.6281    1.6937   H         1 RES1   0.0000
   210 H125      1.5198    2.6201   -1.6114   H         1 RES1   0.0000
   211 H126      1.3665    4.8645   -1.8323   H         1 RES1   0.0000
   212 H127      2.0217    4.8404   -0.2067   H         1 RES1   0.0000
   213 H128      0.1396    6.4279   -0.4396   H         1 RES1   0.0000
   214 H129     -0.2973    5.1644    0.6920   H         1 RES1   0.0000
   215 H130     -1.1521    5.4869   -2.2184   H         1 RES1   0.0000
   216 H131     -2.1943    5.4457   -0.7888   H         1 RES1   0.0000
   217 H132     -3.1144    2.4496   -0.9132   H         1 RES1   0.0000
   218 H133     -2.5182    2.2849   -2.5556   H         1 RES1   0.0000
   219 H134     -4.4723    3.2882   -2.9957   H         1 RES1   0.0000
   220 H135     -3.4974    4.7478   -2.8744   H         1 RES1   0.0000
   221 H136     -4.4522    5.3518   -0.8293   H         1 RES1   0.0000
   222 H137     -4.8706    3.6960   -0.3886   H         1 RES1   0.0000
   223 H138     -6.7392    3.7177   -1.9654   H         1 RES1   0.0000
   224 H139     -6.2100    5.2617   -2.6273   H         1 RES1   0.0000
   225 H140     -6.4410    6.0932   -0.1098   H         1 RES1   0.0000
   226 H141     -7.5549    4.7415    0.0333   H         1 RES1   0.0000
   227 H142     -7.6881    7.0955   -1.8979   H         1 RES1   0.0000
   228 H143     -8.8202    6.7357   -0.5925   H         1 RES1   0.0000
   229 H144     -8.7732    5.7058   -2.0317   H         1 RES1   0.0000
   230 C75       1.2762   -7.9792   -0.4939   C.3       1 RES1   0.0000
   231 C76       2.6633   -8.0443    0.1339   C.3       1 RES1   0.0000
   232 C77       2.9413   -9.4306    0.7160   C.3       1 RES1   0.0000
   233 C78       4.1716   -9.4939    1.6281   C.3       1 RES1   0.0000
   234 C79       4.0469   -8.6894    2.9279   C.3       1 RES1   0.0000
   235 C80       2.8492   -9.0991    3.7846   C.3       1 RES1   0.0000
   236 C81       2.7896   -8.3153    5.0968   C.3       1 RES1   0.0000
   237 C82       1.3901   -8.2490    5.7189   C.3       1 RES1   0.0000
   238 C83       0.6012   -7.0017    5.3087   C.3       1 RES1   0.0000
   239 C84      -0.0829   -7.0515    3.9352   C.3       1 RES1   0.0000
   240 C85      -0.2638   -5.6396    3.3718   C.3       1 RES1   0.0000
   241 C86       0.9948   -5.1453    2.6429   C.3       1 RES1   0.0000
   242 N5        0.9506   -3.6970    2.4883   N.am      1 RES1   0.0000
   243 C87       1.3272   -2.9422    3.6819   C.3       1 RES1   0.0000
   244 C88       2.1811   -1.6924    3.4170   C.3       1 RES1   0.0000
   245 C89       3.2938   -1.8736    2.3708   C.3       1 RES1   0.0000
   246 C90       3.2484   -0.8959    1.1889   C.3       1 RES1   0.0000
   247 C91       3.8214    0.5003    1.4469   C.3       1 RES1   0.0000
   248 C92       5.3120    0.4881    1.7781   C.3       1 RES1   0.0000
   249 C93       5.9518    1.8764    1.7031   C.3       1 RES1   0.0000
   250 C94       5.2753    2.9001    2.6206   C.3       1 RES1   0.0000
   251 C95       6.2585    3.9609    3.1077   C.3       1 RES1   0.0000
   252 C96       5.5852    5.0001    3.9996   C.3       1 RES1   0.0000
   253 C97       6.6232    5.8185    4.7683   C.3       1 RES1   0.0000
   254 C98       7.1376    5.0921    6.0068   C.3       1 RES1   0.0000
   255 C99       0.3217   -3.0652    1.5070   C.2       1 RES1   0.0000
   256 O7       -0.0296   -1.8674    1.5946   O.2       1 RES1   0.0000
   257 C100      0.1480   -3.6983    0.1247   C.3       1 RES1   0.0000
   258 O8        0.5960   -2.7038   -0.7944   O.3       1 RES1   0.0000
   259 C101      1.9143   -2.9022   -1.2858   C.3       1 RES1   0.0000
   260 C102      1.9398   -3.8661   -2.4822   C.3       1 RES1   0.0000
   261 C103      3.3673   -4.0199   -3.0123   C.3       1 RES1   0.0000
   262 C104      4.2509   -2.8389   -2.5853   C.3       1 RES1   0.0000
   263 N6        3.5154   -1.5896   -2.4975   N.am      1 RES1   0.0000
   264 C105      3.9961   -0.4922   -3.3233   C.3       1 RES1   0.0000
   265 C106      3.6723   -0.7881   -4.7918   C.3       1 RES1   0.0000
   266 C107      4.4645    0.0676   -5.7802   C.3       1 RES1   0.0000
   267 C108      3.8385    0.0558   -7.1770   C.3       1 RES1   0.0000
   268 C109      3.6206   -1.3311   -7.7781   C.3       1 RES1   0.0000
   269 C110      3.0165   -1.2260   -9.1735   C.3       1 RES1   0.0000
   270 C111      2.4032   -1.5363   -1.7813   C.2       1 RES1   0.0000
   271 O9        1.7597   -0.4921   -1.5345   O.2       1 RES1   0.0000
   272 H145      1.1109   -7.0262   -0.9960   H         1 RES1   0.0000
   273 H146      0.5020   -8.1122    0.2595   H         1 RES1   0.0000
   274 H147      1.1635   -8.7672   -1.2319   H         1 RES1   0.0000
   275 H148      2.7444   -7.2892    0.9196   H         1 RES1   0.0000
   276 H149      3.4174   -7.8165   -0.6225   H         1 RES1   0.0000
   277 H150      3.0927  -10.1310   -0.1063   H         1 RES1   0.0000
   278 H151      2.0650   -9.7758    1.2665   H         1 RES1   0.0000
   279 H152      5.0497   -9.1378    1.0792   H         1 RES1   0.0000
   280 H153      4.3484  -10.5409    1.8881   H         1 RES1   0.0000
   281 H154      3.9788   -7.6212    2.6933   H         1 RES1   0.0000
   282 H155      4.9602   -8.8313    3.5106   H         1 RES1   0.0000
   283 H156      2.9134  -10.1660    4.0015   H         1 RES1   0.0000
   284 H157      1.9327   -8.9390    3.2187   H         1 RES1   0.0000
   285 H158      3.1523   -7.2978    4.9278   H         1 RES1   0.0000
   286 H159      3.4806   -8.7773    5.8011   H         1 RES1   0.0000
   287 H160      1.4964   -8.2238    6.8038   H         1 RES1   0.0000
   288 H161      0.8343   -9.1535    5.4752   H         1 RES1   0.0000
   289 H162      1.2908   -6.1530    5.3482   H         1 RES1   0.0000
   290 H163     -0.1699   -6.8147    6.0580   H         1 RES1   0.0000
   291 H164     -1.0605   -7.5257    4.0401   H         1 RES1   0.0000
   292 H165      0.4886   -7.6486    3.2276   H         1 RES1   0.0000
   293 H166     -0.4904   -4.9762    4.2082   H         1 RES1   0.0000
   294 H167     -1.1066   -5.6025    2.6819   H         1 RES1   0.0000
   295 H168      1.0782   -5.6491    1.6800   H         1 RES1   0.0000
   296 H169      1.8812   -5.4019    3.2260   H         1 RES1   0.0000
   297 H170      1.8823   -3.6239    4.3227   H         1 RES1   0.0000
   298 H171      0.4247   -2.6397    4.2178   H         1 RES1   0.0000
   299 H172      2.6268   -1.4378    4.3792   H         1 RES1   0.0000
   300 H173      1.5308   -0.8678    3.1233   H         1 RES1   0.0000
   301 H174      3.2441   -2.8922    1.9741   H         1 RES1   0.0000
   302 H175      4.2664   -1.7640    2.8466   H         1 RES1   0.0000
   303 H176      2.1958   -0.7811    0.8443   H         1 RES1   0.0000
   304 H177      3.8331   -1.3349    0.3751   H         1 RES1   0.0000
   305 H178      3.2687    0.9857    2.2504   H         1 RES1   0.0000
   306 H179      3.6681    1.0925    0.5416   H         1 RES1   0.0000
   307 H180      5.8322   -0.1753    1.0853   H         1 RES1   0.0000
   308 H181      5.4557    0.0940    2.7848   H         1 RES1   0.0000
   309 H182      5.9343    2.2404    0.6737   H         1 RES1   0.0000
   310 H183      7.0043    1.7822    1.9853   H         1 RES1   0.0000
   311 H184      4.8738    2.3868    3.4954   H         1 RES1   0.0000
   312 H185      4.4343    3.3772    2.1006   H         1 RES1   0.0000
   313 H186      6.7283    4.4663    2.2615   H         1 RES1   0.0000
   314 H187      7.0475    3.4571    3.6698   H         1 RES1   0.0000
   315 H188      4.9243    4.4971    4.7122   H         1 RES1   0.0000
   316 H189      4.9711    5.6587    3.3783   H         1 RES1   0.0000
   317 H190      6.1857    6.7691    5.0762   H         1 RES1   0.0000
   318 H191      7.4576    6.0357    4.0990   H         1 RES1   0.0000
   319 H192      6.3351    4.9526    6.7286   H         1 RES1   0.0000
   320 H193      7.9210    5.6745    6.4830   H         1 RES1   0.0000
   321 H194      7.5495    4.1164    5.7576   H         1 RES1   0.0000
   322 H195     -0.9174   -3.8634   -0.0737   H         1 RES1   0.0000
   323 H196      0.6961   -4.6320   -0.0087   H         1 RES1   0.0000
   324 H197      2.5645   -3.2822   -0.4842   H         1 RES1   0.0000
   325 H198      1.2870   -3.4471   -3.2491   H         1 RES1   0.0000
   326 H199      1.5343   -4.8373   -2.1956   H         1 RES1   0.0000
   327 H200      3.3390   -4.0979   -4.0983   H         1 RES1   0.0000
   328 H201      3.8270   -4.9318   -2.6345   H         1 RES1   0.0000
   329 H202      5.0633   -2.7064   -3.2996   H         1 RES1   0.0000
   330 H203      4.7021   -3.0428   -1.6071   H         1 RES1   0.0000
   331 H204      5.0748   -0.3899   -3.1849   H         1 RES1   0.0000
   332 H205      3.5129    0.4254   -2.9853   H         1 RES1   0.0000
   333 H206      2.6037   -0.6403   -4.9489   H         1 RES1   0.0000
   334 H207      3.8884   -1.8358   -4.9985   H         1 RES1   0.0000
   335 H208      5.4896   -0.3029   -5.8339   H         1 RES1   0.0000
   336 H209      4.5029    1.0999   -5.4298   H         1 RES1   0.0000
   337 H210      4.4931    0.6133   -7.8454   H         1 RES1   0.0000
   338 H211      2.8782    0.5776   -7.1457   H         1 RES1   0.0000
   339 H212      2.9476   -1.9118   -7.1446   H         1 RES1   0.0000
   340 H213      4.5707   -1.8638   -7.8346   H         1 RES1   0.0000
   341 H214      2.0841   -0.6661   -9.1422   H         1 RES1   0.0000
   342 H215      2.8067   -2.2119   -9.5794   H         1 RES1   0.0000
   343 H216      3.7005   -0.7161   -9.8463   H         1 RES1   0.0000
@<TRIPOS>BOND
     1     1    28    1
     2     1    30    1
     3     1    43    1
     4     1   142    1
     5     1   144    1
     6     1   157    1
     7     1   256    1
     8     1   258    1
     9     1   271    1
    10     2     3    1
    11     2    44    1
    12     2    45    1
    13     2    46    1
    14     3     4    1
    15     3    47    1
    16     3    48    1
    17     4     5    1
    18     4    49    1
    19     4    50    1
    20     5     6    1
    21     5    51    1
    22     5    52    1
    23     6     7    1
    24     6    53    1
    25     6    54    1
    26     7     8    1
    27     7    55    1
    28     7    56    1
    29     8     9    1
    30     8    57    1
    31     8    58    1
    32     9    10    1
    33     9    59    1
    34     9    60    1
    35    10    11    1
    36    10    61    1
    37    10    62    1
    38    11    12    1
    39    11    63    1
    40    11    64    1
    41    12    13    1
    42    12    65    1
    43    12    66    1
    44    13    14    1
    45    13    67    1
    46    13    68    1
    47    14    15    1
    48    14    27    1
    49    15    16    1
    50    15    69    1
    51    15    70    1
    52    16    17    1
    53    16    71    1
    54    16    72    1
    55    17    18    1
    56    17    73    1
    57    17    74    1
    58    18    19    1
    59    18    75    1
    60    18    76    1
    61    19    20    1
    62    19    77    1
    63    19    78    1
    64    20    21    1
    65    20    79    1
    66    20    80    1
    67    21    22    1
    68    21    81    1
    69    21    82    1
    70    22    23    1
    71    22    83    1
    72    22    84    1
    73    23    24    1
    74    23    85    1
    75    23    86    1
    76    24    25    1
    77    24    87    1
    78    24    88    1
    79    25    26    1
    80    25    89    1
    81    25    90    1
    82    26    91    1
    83    26    92    1
    84    26    93    1
    85    27    28    2
    86    27    29    1
    87    29    30    1
    88    29    94    1
    89    29    95    1
    90    30    31    1
    91    31    32    1
    92    31    42    1
    93    31    96    1
    94    32    33    1
    95    32    97    1
    96    32    98    1
    97    33    34    1
    98    33    99    1
    99    33   100    1
   100    34    35    1
   101    34   101    1
   102    34   102    1
   103    35    36    1
   104    35    42    1
   105    36    37    1
   106    36   103    1
   107    36   104    1
   108    37    38    1
   109    37   105    1
   110    37   106    1
   111    38    39    1
   112    38   107    1
   113    38   108    1
   114    39    40    1
   115    39   109    1
   116    39   110    1
   117    40    41    1
   118    40   111    1
   119    40   112    1
   120    41   113    1
   121    41   114    1
   122    41   115    1
   123    42    43    2
   124   116   117    1
   125   116   158    1
   126   116   159    1
   127   116   160    1
   128   117   118    1
   129   117   161    1
   130   117   162    1
   131   118   119    1
   132   118   163    1
   133   118   164    1
   134   119   120    1
   135   119   165    1
   136   119   166    1
   137   120   121    1
   138   120   167    1
   139   120   168    1
   140   121   122    1
   141   121   169    1
   142   121   170    1
   143   122   123    1
   144   122   171    1
   145   122   172    1
   146   123   124    1
   147   123   173    1
   148   123   174    1
   149   124   125    1
   150   124   175    1
   151   124   176    1
   152   125   126    1
   153   125   177    1
   154   125   178    1
   155   126   127    1
   156   126   179    1
   157   126   180    1
   158   127   128    1
   159   127   181    1
   160   127   182    1
   161   128   129    1
   162   128   141    1
   163   129   130    1
   164   129   183    1
   165   129   184    1
   166   130   131    1
   167   130   185    1
   168   130   186    1
   169   131   132    1
   170   131   187    1
   171   131   188    1
   172   132   133    1
   173   132   189    1
   174   132   190    1
   175   133   134    1
   176   133   191    1
   177   133   192    1
   178   134   135    1
   179   134   193    1
   180   134   194    1
   181   135   136    1
   182   135   195    1
   183   135   196    1
   184   136   137    1
   185   136   197    1
   186   136   198    1
   187   137   138    1
   188   137   199    1
   189   137   200    1
   190   138   139    1
   191   138   201    1
   192   138   202    1
   193   139   140    1
   194   139   203    1
   195   139   204    1
   196   140   205    1
   197   140   206    1
   198   140   207    1
   199   141   142    2
   200   141   143    1
   201   143   144    1
   202   143   208    1
   203   143   209    1
   204   144   145    1
   205   145   146    1
   206   145   156    1
   207   145   210    1
   208   146   147    1
   209   146   211    1
   210   146   212    1
   211   147   148    1
   212   147   213    1
   213   147   214    1
   214   148   149    1
   215   148   215    1
   216   148   216    1
   217   149   150    1
   218   149   156    1
   219   150   151    1
   220   150   217    1
   221   150   218    1
   222   151   152    1
   223   151   219    1
   224   151   220    1
   225   152   153    1
   226   152   221    1
   227   152   222    1
   228   153   154    1
   229   153   223    1
   230   153   224    1
   231   154   155    1
   232   154   225    1
   233   154   226    1
   234   155   227    1
   235   155   228    1
   236   155   229    1
   237   156   157    2
   238   230   231    1
   239   230   272    1
   240   230   273    1
   241   230   274    1
   242   231   232    1
   243   231   275    1
   244   231   276    1
   245   232   233    1
   246   232   277    1
   247   232   278    1
   248   233   234    1
   249   233   279    1
   250   233   280    1
   251   234   235    1
   252   234   281    1
   253   234   282    1
   254   235   236    1
   255   235   283    1
   256   235   284    1
   257   236   237    1
   258   236   285    1
   259   236   286    1
   260   237   238    1
   261   237   287    1
   262   237   288    1
   263   238   239    1
   264   238   289    1
   265   238   290    1
   266   239   240    1
   267   239   291    1
   268   239   292    1
   269   240   241    1
   270   240   293    1
   271   240   294    1
   272   241   242    1
   273   241   295    1
   274   241   296    1
   275   242   243    1
   276   242   255    1
   277   243   244    1
   278   243   297    1
   279   243   298    1
   280   244   245    1
   281   244   299    1
   282   244   300    1
   283   245   246    1
   284   245   301    1
   285   245   302    1
   286   246   247    1
   287   246   303    1
   288   246   304    1
   289   247   248    1
   290   247   305    1
   291   247   306    1
   292   248   249    1
   293   248   307    1
   294   248   308    1
   295   249   250    1
   296   249   309    1
   297   249   310    1
   298   250   251    1
   299   250   311    1
   300   250   312    1
   301   251   252    1
   302   251   313    1
   303   251   314    1
   304   252   253    1
   305   252   315    1
   306   252   316    1
   307   253   254    1
   308   253   317    1
   309   253   318    1
   310   254   319    1
   311   254   320    1
   312   254   321    1
   313   255   256    2
   314   255   257    1
   315   257   258    1
   316   257   322    1
   317   257   323    1
   318   258   259    1
   319   259   260    1
   320   259   270    1
   321   259   324    1
   322   260   261    1
   323   260   325    1
   324   260   326    1
   325   261   262    1
   326   261   327    1
   327   261   328    1
   328   262   263    1
   329   262   329    1
   330   262   330    1
   331   263   264    1
   332   263   270    1
   333   264   265    1
   334   264   331    1
   335   264   332    1
   336   265   266    1
   337   265   333    1
   338   265   334    1
   339   266   267    1
   340   266   335    1
   341   266   336    1
   342   267   268    1
   343   267   337    1
   344   267   338    1
   345   268   269    1
   346   268   339    1
   347   268   340    1
   348   269   341    1
   349   269   342    1
   350   269   343    1
   351   270   271    2
@<TRIPOS>SUBSTRUCTURE
     1 RES1      343 GROUP             0 ****  ****    0  
