@<TRIPOS>MOLECULE
cn9_YICLED_0_nunpairedes_0_charge_3 Charge: 3 Unpaired_Electrons: 3 XTB_Unpaired_Electrons: 0 XTB_Charge: 3
   136   150     1     0     0
SMALL
NoCharges
****
Generated from Architector

@<TRIPOS>ATOM
     1 Nd1      -0.0386   -0.0392    0.0795   Nd        1 RES1   0.0000
     2 C1        4.3799   -0.8589    2.1113   C.3       1 RES1   0.0000
     3 N1        3.2453   -1.6544    2.5508   N.am      1 RES1   0.0000
     4 C2        2.0680   -1.5056    1.9284   C.2       1 RES1   0.0000
     5 O1        1.9816   -0.8805    0.8530   O.2       1 RES1   0.0000
     6 C3        0.7902   -2.0163    2.5603   C.ar      1 RES1   0.0000
     7 C4        0.6204   -2.5339    3.8429   C.ar      1 RES1   0.0000
     8 C5       -0.6419   -2.9740    4.2144   C.ar      1 RES1   0.0000
     9 C6       -1.7155   -2.8364    3.3463   C.ar      1 RES1   0.0000
    10 C7       -1.4912   -2.1999    2.1296   C.ar      1 RES1   0.0000
    11 C8       -2.5744   -1.6465    1.2242   C.2       1 RES1   0.0000
    12 O2       -2.3854   -0.4680    0.8711   O.2       1 RES1   0.0000
    13 N2       -3.6325   -2.4094    0.9153   N.am      1 RES1   0.0000
    14 C9       -3.6322   -3.8313    1.2292   C.3       1 RES1   0.0000
    15 C10      -4.8409   -1.9334    0.3109   C.ar      1 RES1   0.0000
    16 C11      -4.9796   -0.6195   -0.1361   C.ar      1 RES1   0.0000
    17 C12      -6.1881   -0.1647   -0.6403   C.ar      1 RES1   0.0000
    18 C13      -7.2901   -0.9964   -0.7321   C.ar      1 RES1   0.0000
    19 C14      -7.1516   -2.3075   -0.3154   C.ar      1 RES1   0.0000
    20 C15      -5.9531   -2.7756    0.1986   C.ar      1 RES1   0.0000
    21 N3       -0.2658   -1.8196    1.7652   N.ar      1 RES1   0.0000
    22 C16       3.5637   -2.8151    3.3065   C.ar      1 RES1   0.0000
    23 C17       2.9702   -4.0191    2.9280   C.ar      1 RES1   0.0000
    24 C18       3.2565   -5.1827    3.6128   C.ar      1 RES1   0.0000
    25 C19       4.1942   -5.1772    4.6324   C.ar      1 RES1   0.0000
    26 C20       4.8323   -3.9931    4.9593   C.ar      1 RES1   0.0000
    27 C21       4.5168   -2.8051    4.3177   C.ar      1 RES1   0.0000
    28 H1        4.0464   -0.0607    1.4505   H         1 RES1   0.0000
    29 H2        5.0958   -1.4867    1.5808   H         1 RES1   0.0000
    30 H3        4.8519   -0.4347    2.9953   H         1 RES1   0.0000
    31 H4        1.4414   -2.5868    4.5355   H         1 RES1   0.0000
    32 H5       -0.7859   -3.4094    5.1904   H         1 RES1   0.0000
    33 H6       -2.7076   -3.1343    3.6400   H         1 RES1   0.0000
    34 H7       -2.6329   -4.1842    1.4705   H         1 RES1   0.0000
    35 H8       -3.9944   -4.3728    0.3535   H         1 RES1   0.0000
    36 H9       -4.2973   -4.0188    2.0752   H         1 RES1   0.0000
    37 H10      -4.1560    0.0713   -0.0673   H         1 RES1   0.0000
    38 H11      -6.2721    0.8665   -0.9429   H         1 RES1   0.0000
    39 H12      -8.2409   -0.6371   -1.1007   H         1 RES1   0.0000
    40 H13      -8.0024   -2.9671   -0.3752   H         1 RES1   0.0000
    41 H14      -5.9449   -3.8026    0.5199   H         1 RES1   0.0000
    42 H15       2.2991   -4.0310    2.0793   H         1 RES1   0.0000
    43 H16       2.7670   -6.0960    3.3225   H         1 RES1   0.0000
    44 H17       4.4486   -6.0892    5.1498   H         1 RES1   0.0000
    45 H18       5.5954   -4.0065    5.7174   H         1 RES1   0.0000
    46 H19       5.0188   -1.8934    4.6060   H         1 RES1   0.0000
    47 C22      -1.6231   -4.2965   -1.6882   C.3       1 RES1   0.0000
    48 N4       -1.8005   -3.0994   -2.5081   N.am      1 RES1   0.0000
    49 C23      -1.4922   -1.9238   -1.9428   C.2       1 RES1   0.0000
    50 O3       -0.9346   -1.8876   -0.8327   O.2       1 RES1   0.0000
    51 C24      -2.0010   -0.6117   -2.4947   C.ar      1 RES1   0.0000
    52 C25      -3.0624   -0.4721   -3.3828   C.ar      1 RES1   0.0000
    53 C26      -3.5928    0.7954   -3.5611   C.ar      1 RES1   0.0000
    54 C27      -3.0674    1.8870   -2.8776   C.ar      1 RES1   0.0000
    55 C28      -1.9929    1.6756   -2.0188   C.ar      1 RES1   0.0000
    56 C29      -1.3495    2.5989   -0.9912   C.2       1 RES1   0.0000
    57 O4       -1.0055    1.9978    0.0439   O.2       1 RES1   0.0000
    58 N5       -1.0987    3.9054   -1.1377   N.am      1 RES1   0.0000
    59 C30      -1.4651    4.7177   -2.2819   C.3       1 RES1   0.0000
    60 C31      -0.4193    4.6126   -0.0784   C.ar      1 RES1   0.0000
    61 C32      -0.6181    4.2726    1.2595   C.ar      1 RES1   0.0000
    62 C33       0.1197    4.8835    2.2592   C.ar      1 RES1   0.0000
    63 C34       1.0322    5.8795    1.9595   C.ar      1 RES1   0.0000
    64 C35       1.1614    6.2852    0.6427   C.ar      1 RES1   0.0000
    65 C36       0.4540    5.6599   -0.3722   C.ar      1 RES1   0.0000
    66 N6       -1.5038    0.4421   -1.8473   N.ar      1 RES1   0.0000
    67 C37      -1.6425   -3.4118   -3.9008   C.ar      1 RES1   0.0000
    68 C38      -0.3633   -3.2341   -4.4189   C.ar      1 RES1   0.0000
    69 C39      -0.0715   -3.6830   -5.6926   C.ar      1 RES1   0.0000
    70 C40      -1.0393   -4.3430   -6.4312   C.ar      1 RES1   0.0000
    71 C41      -2.2918   -4.5701   -5.8835   C.ar      1 RES1   0.0000
    72 C42      -2.6063   -4.1104   -4.6129   C.ar      1 RES1   0.0000
    73 H20      -1.2192   -4.0206   -0.7150   H         1 RES1   0.0000
    74 H21      -0.9366   -4.9859   -2.1800   H         1 RES1   0.0000
    75 H22      -2.5950   -4.7779   -1.5759   H         1 RES1   0.0000
    76 H23      -3.4811   -1.3386   -3.8637   H         1 RES1   0.0000
    77 H24      -4.4394    0.9217   -4.2137   H         1 RES1   0.0000
    78 H25      -3.5353    2.8518   -2.9713   H         1 RES1   0.0000
    79 H26      -1.9173    4.1209   -3.0646   H         1 RES1   0.0000
    80 H27      -0.5836    5.2074   -2.6994   H         1 RES1   0.0000
    81 H28      -2.1644    5.4899   -1.9502   H         1 RES1   0.0000
    82 H29      -1.3584    3.5395    1.5341   H         1 RES1   0.0000
    83 H30      -0.0476    4.5895    3.2819   H         1 RES1   0.0000
    84 H31       1.5999    6.3671    2.7387   H         1 RES1   0.0000
    85 H32       1.8077    7.1154    0.4114   H         1 RES1   0.0000
    86 H33       0.5902    6.0201   -1.3795   H         1 RES1   0.0000
    87 H34       0.4049   -2.8074   -3.7867   H         1 RES1   0.0000
    88 H35       0.9292   -3.5572   -6.0712   H         1 RES1   0.0000
    89 H36      -0.8073   -4.7169   -7.4153   H         1 RES1   0.0000
    90 H37      -3.0121   -5.1454   -6.4401   H         1 RES1   0.0000
    91 H38      -3.5722   -4.3187   -4.1726   H         1 RES1   0.0000
    92 C43       0.3306   -0.0354   -4.7219   C.3       1 RES1   0.0000
    93 N7        1.2105    0.9254   -4.0632   N.am      1 RES1   0.0000
    94 C44       1.4459    0.7455   -2.7534   C.2       1 RES1   0.0000
    95 O5        1.0171   -0.2710   -2.1675   O.2       1 RES1   0.0000
    96 C45       2.1072    1.7848   -1.8770   C.ar      1 RES1   0.0000
    97 C46       2.9858    2.7848   -2.2788   C.ar      1 RES1   0.0000
    98 C47       3.5458    3.5753   -1.2899   C.ar      1 RES1   0.0000
    99 C48       3.2303    3.3683    0.0464   C.ar      1 RES1   0.0000
   100 C49       2.3217    2.3623    0.3811   C.ar      1 RES1   0.0000
   101 C50       1.8361    1.9040    1.7561   C.2       1 RES1   0.0000
   102 O6        0.8306    1.1742    1.7817   O.2       1 RES1   0.0000
   103 N8        2.5081    2.1588    2.8925   N.am      1 RES1   0.0000
   104 C51       3.5691    3.1402    3.0305   C.3       1 RES1   0.0000
   105 C52       2.1743    1.4448    4.0925   C.ar      1 RES1   0.0000
   106 C53       3.2119    1.0790    4.9524   C.ar      1 RES1   0.0000
   107 C54       2.9498    0.3979    6.1268   C.ar      1 RES1   0.0000
   108 C55       1.6549    0.0329    6.4533   C.ar      1 RES1   0.0000
   109 C56       0.6225    0.4142    5.6144   C.ar      1 RES1   0.0000
   110 C57       0.8663    1.1288    4.4496   C.ar      1 RES1   0.0000
   111 N9        1.7788    1.6147   -0.5905   N.ar      1 RES1   0.0000
   112 C58       1.8984    1.6966   -5.0650   C.ar      1 RES1   0.0000
   113 C59       3.2631    1.5066   -5.2620   C.ar      1 RES1   0.0000
   114 C60       3.8927    2.0844   -6.3530   C.ar      1 RES1   0.0000
   115 C61       3.1681    2.8160   -7.2781   C.ar      1 RES1   0.0000
   116 C62       1.8021    2.9625   -7.1054   C.ar      1 RES1   0.0000
   117 C63       1.1628    2.4147   -6.0059   C.ar      1 RES1   0.0000
   118 H39      -0.1143   -0.6932   -3.9811   H         1 RES1   0.0000
   119 H40       0.8996   -0.6253   -5.4423   H         1 RES1   0.0000
   120 H41      -0.4504    0.5103   -5.2526   H         1 RES1   0.0000
   121 H42       3.2173    2.9387   -3.3198   H         1 RES1   0.0000
   122 H43       4.2520    4.3386   -1.5708   H         1 RES1   0.0000
   123 H44       3.7016    3.9979    0.7750   H         1 RES1   0.0000
   124 H45       3.2128    4.1076    2.6780   H         1 RES1   0.0000
   125 H46       4.4617    2.8314    2.4839   H         1 RES1   0.0000
   126 H47       3.8231    3.2440    4.0848   H         1 RES1   0.0000
   127 H48       4.2374    1.3344    4.7325   H         1 RES1   0.0000
   128 H49       3.7642    0.1731    6.7951   H         1 RES1   0.0000
   129 H50       1.4499   -0.5208    7.3577   H         1 RES1   0.0000
   130 H51      -0.3913    0.1733    5.8937   H         1 RES1   0.0000
   131 H52       0.0346    1.4573    3.8448   H         1 RES1   0.0000
   132 H53       3.8176    0.8700   -4.5866   H         1 RES1   0.0000
   133 H54       4.9456    1.9178   -6.5003   H         1 RES1   0.0000
   134 H55       3.6476    3.2393   -8.1469   H         1 RES1   0.0000
   135 H56       1.2258    3.4736   -7.8571   H         1 RES1   0.0000
   136 H57       0.0920    2.5265   -5.9010   H         1 RES1   0.0000
@<TRIPOS>BOND
     1     1     5    1
     2     1    12    1
     3     1    21    1
     4     1    50    1
     5     1    57    1
     6     1    66    1
     7     1    95    1
     8     1   102    1
     9     1   111    1
    10     2     3    1
    11     2    28    1
    12     2    29    1
    13     2    30    1
    14     3     4    1
    15     3    22    1
    16     4     5    2
    17     4     6    1
    18     6     7    1
    19     6    21    2
    20     7     8    2
    21     7    31    1
    22     8     9    1
    23     8    32    1
    24     9    10    2
    25     9    33    1
    26    10    11    1
    27    10    21    1
    28    11    12    2
    29    11    13    1
    30    13    14    1
    31    13    15    1
    32    14    34    1
    33    14    35    1
    34    14    36    1
    35    15    16    1
    36    15    20    2
    37    16    17    2
    38    16    37    1
    39    17    18    1
    40    17    38    1
    41    18    19    2
    42    18    39    1
    43    19    20    1
    44    19    40    1
    45    20    41    1
    46    22    23    1
    47    22    27    2
    48    23    24    2
    49    23    42    1
    50    24    25    1
    51    24    43    1
    52    25    26    2
    53    25    44    1
    54    26    27    1
    55    26    45    1
    56    27    46    1
    57    47    48    1
    58    47    73    1
    59    47    74    1
    60    47    75    1
    61    48    49    1
    62    48    67    1
    63    49    50    2
    64    49    51    1
    65    51    52    1
    66    51    66    2
    67    52    53    2
    68    52    76    1
    69    53    54    1
    70    53    77    1
    71    54    55    2
    72    54    78    1
    73    55    56    1
    74    55    66    1
    75    56    57    2
    76    56    58    1
    77    58    59    1
    78    58    60    1
    79    59    79    1
    80    59    80    1
    81    59    81    1
    82    60    61    1
    83    60    65    2
    84    61    62    2
    85    61    82    1
    86    62    63    1
    87    62    83    1
    88    63    64    2
    89    63    84    1
    90    64    65    1
    91    64    85    1
    92    65    86    1
    93    67    68    1
    94    67    72    2
    95    68    69    2
    96    68    87    1
    97    69    70    1
    98    69    88    1
    99    70    71    2
   100    70    89    1
   101    71    72    1
   102    71    90    1
   103    72    91    1
   104    92    93    1
   105    92   118    1
   106    92   119    1
   107    92   120    1
   108    93    94    1
   109    93   112    1
   110    94    95    2
   111    94    96    1
   112    96    97    1
   113    96   111    2
   114    97    98    2
   115    97   121    1
   116    98    99    1
   117    98   122    1
   118    99   100    2
   119    99   123    1
   120   100   101    1
   121   100   111    1
   122   101   102    2
   123   101   103    1
   124   103   104    1
   125   103   105    1
   126   104   124    1
   127   104   125    1
   128   104   126    1
   129   105   106    1
   130   105   110    2
   131   106   107    2
   132   106   127    1
   133   107   108    1
   134   107   128    1
   135   108   109    2
   136   108   129    1
   137   109   110    1
   138   109   130    1
   139   110   131    1
   140   112   113    1
   141   112   117    2
   142   113   114    2
   143   113   132    1
   144   114   115    1
   145   114   133    1
   146   115   116    2
   147   115   134    1
   148   116   117    1
   149   116   135    1
   150   117   136    1
@<TRIPOS>SUBSTRUCTURE
     1 RES1      136 GROUP             0 ****  ****    0  
