@<TRIPOS>MOLECULE
am_c3_9H2O_c0_0_nunpairedes_0_charge_3 Charge: 3 Unpaired_Electrons: 3 XTB_Unpaired_Electrons: 0 XTB_Charge: 3
   160   171     1     0     0
SMALL
NoCharges
****
Generated from Architector

@<TRIPOS>ATOM
     1 Nd1      -0.0194    0.0508   -0.0124   Nd        1 RES1   0.0000
     2 C1        1.4375    5.4856   -1.2653   C.3       1 RES1   0.0000
     3 N1        1.6915    4.2278   -0.5814   N.am      1 RES1   0.0000
     4 C2        0.7432    3.2979   -0.4183   C.2       1 RES1   0.0000
     5 O1        0.9610    2.1916    0.0959   O.2       1 RES1   0.0000
     6 C3       -0.6911    3.6471   -0.8128   C.3       1 RES1   0.0000
     7 C4       -1.1395    2.6908   -1.9285   C.2       1 RES1   0.0000
     8 O2       -0.9701    1.4892   -1.6735   O.2       1 RES1   0.0000
     9 N2       -1.6865    3.1424   -3.0683   N.am      1 RES1   0.0000
    10 C5       -1.8573    4.5611   -3.3286   C.3       1 RES1   0.0000
    11 C6       -2.1820    2.2903   -4.1147   C.ar      1 RES1   0.0000
    12 C7       -2.8476    2.8615   -5.2029   C.ar      1 RES1   0.0000
    13 C8       -3.3202    2.0777   -6.2399   C.ar      1 RES1   0.0000
    14 C9       -3.1459    0.7070   -6.2324   C.ar      1 RES1   0.0000
    15 C10      -2.4968    0.1299   -5.1569   C.ar      1 RES1   0.0000
    16 C11      -2.0199    0.9038   -4.1109   C.ar      1 RES1   0.0000
    17 C12       2.9915    4.0890   -0.0071   C.ar      1 RES1   0.0000
    18 C13       3.5624    5.2115    0.5841   C.ar      1 RES1   0.0000
    19 C14       4.8490    5.1536    1.0827   C.ar      1 RES1   0.0000
    20 C15       5.5628    3.9696    1.0360   C.ar      1 RES1   0.0000
    21 C16       4.9712    2.8391    0.4997   C.ar      1 RES1   0.0000
    22 C17       3.6955    2.8936   -0.0404   C.ar      1 RES1   0.0000
    23 H1        0.9317    5.3053   -2.2114   H         1 RES1   0.0000
    24 H2        2.3819    5.9696   -1.5037   H         1 RES1   0.0000
    25 H3        0.8572    6.1721   -0.6441   H         1 RES1   0.0000
    26 H4       -0.8122    4.7046   -0.9769   H         1 RES1   0.0000
    27 H5       -1.2891    3.3739    0.0660   H         1 RES1   0.0000
    28 H6       -1.3990    5.1704   -2.5650   H         1 RES1   0.0000
    29 H7       -2.9184    4.8073   -3.3619   H         1 RES1   0.0000
    30 H8       -1.3922    4.8226   -4.2787   H         1 RES1   0.0000
    31 H9       -3.0220    3.9180   -5.2868   H         1 RES1   0.0000
    32 H10      -3.8365    2.5522   -7.0578   H         1 RES1   0.0000
    33 H11      -3.5135    0.1068   -7.0498   H         1 RES1   0.0000
    34 H12      -2.3545   -0.9405   -5.1302   H         1 RES1   0.0000
    35 H13      -1.5125    0.4062   -3.3033   H         1 RES1   0.0000
    36 H14       3.0067    6.1318    0.6601   H         1 RES1   0.0000
    37 H15       5.2830    6.0345    1.5239   H         1 RES1   0.0000
    38 H16       6.5686    3.9341    1.4240   H         1 RES1   0.0000
    39 H17       5.5141    1.9069    0.5067   H         1 RES1   0.0000
    40 H18       3.2591    2.0213   -0.5018   H         1 RES1   0.0000
    41 C18       2.7105   -1.2526    5.0603   C.3       1 RES1   0.0000
    42 N3        2.5490   -0.4682    3.8457   N.am      1 RES1   0.0000
    43 C19       1.7781   -0.8651    2.8268   C.2       1 RES1   0.0000
    44 O3        1.5477   -0.1469    1.8432   O.2       1 RES1   0.0000
    45 C20       1.1976   -2.2764    2.8784   C.3       1 RES1   0.0000
    46 C21      -0.3206   -2.1927    2.7167   C.2       1 RES1   0.0000
    47 O4       -0.7514   -1.5080    1.7749   O.2       1 RES1   0.0000
    48 N4       -1.1238   -2.8473    3.5660   N.am      1 RES1   0.0000
    49 C22      -0.6219   -3.6635    4.6572   C.3       1 RES1   0.0000
    50 C23      -2.5524   -2.8531    3.4451   C.ar      1 RES1   0.0000
    51 C24      -3.2674   -3.9268    3.9749   C.ar      1 RES1   0.0000
    52 C25      -4.6487   -3.9465    3.9355   C.ar      1 RES1   0.0000
    53 C26      -5.3493   -2.9069    3.3512   C.ar      1 RES1   0.0000
    54 C27      -4.6459   -1.8423    2.8133   C.ar      1 RES1   0.0000
    55 C28      -3.2603   -1.8033    2.8665   C.ar      1 RES1   0.0000
    56 C29       3.2374    0.7854    3.8382   C.ar      1 RES1   0.0000
    57 C30       4.5202    0.8207    4.3752   C.ar      1 RES1   0.0000
    58 C31       5.1661    2.0292    4.5484   C.ar      1 RES1   0.0000
    59 C32       4.5526    3.2078    4.1626   C.ar      1 RES1   0.0000
    60 C33       3.3102    3.1615    3.5543   C.ar      1 RES1   0.0000
    61 C34       2.6447    1.9575    3.3903   C.ar      1 RES1   0.0000
    62 H19       1.7399   -1.5655    5.4429   H         1 RES1   0.0000
    63 H20       3.1723   -0.6395    5.8307   H         1 RES1   0.0000
    64 H21       3.3539   -2.1191    4.9020   H         1 RES1   0.0000
    65 H22       1.5490   -2.8272    3.7341   H         1 RES1   0.0000
    66 H23       1.5629   -2.7955    1.9855   H         1 RES1   0.0000
    67 H24       0.3670   -3.3589    4.9749   H         1 RES1   0.0000
    68 H25      -0.5842   -4.7122    4.3602   H         1 RES1   0.0000
    69 H26      -1.2852   -3.5514    5.5128   H         1 RES1   0.0000
    70 H27      -2.7707   -4.7639    4.4307   H         1 RES1   0.0000
    71 H28      -5.1714   -4.7858    4.3648   H         1 RES1   0.0000
    72 H29      -6.4282   -2.9346    3.3273   H         1 RES1   0.0000
    73 H30      -5.1800   -1.0222    2.3561   H         1 RES1   0.0000
    74 H31      -2.7443   -0.9473    2.4596   H         1 RES1   0.0000
    75 H32       5.0129   -0.0936    4.6638   H         1 RES1   0.0000
    76 H33       6.1495    2.0426    4.9866   H         1 RES1   0.0000
    77 H34       5.0473    4.1509    4.3334   H         1 RES1   0.0000
    78 H35       2.8502    4.0746    3.2132   H         1 RES1   0.0000
    79 H36       1.6694    1.9413    2.9260   H         1 RES1   0.0000
    80 C35       4.3400   -3.6557   -1.2165   C.3       1 RES1   0.0000
    81 N5        3.0633   -3.3583   -0.5917   N.am      1 RES1   0.0000
    82 C36       2.5546   -2.1166   -0.5604   C.2       1 RES1   0.0000
    83 O5        1.4057   -1.8802   -0.1701   O.2       1 RES1   0.0000
    84 C37       3.4452   -0.9324   -0.9300   C.3       1 RES1   0.0000
    85 C38       2.7657   -0.1725   -2.0858   C.2       1 RES1   0.0000
    86 O6        1.6208    0.2253   -1.8251   O.2       1 RES1   0.0000
    87 N6        3.3838    0.0291   -3.2609   N.am      1 RES1   0.0000
    88 C39       4.7340   -0.4486   -3.5046   C.3       1 RES1   0.0000
    89 C40       2.8133    0.7515   -4.3686   C.ar      1 RES1   0.0000
    90 C41       3.5893    0.9806   -5.5091   C.ar      1 RES1   0.0000
    91 C42       3.0790    1.6677   -6.5958   C.ar      1 RES1   0.0000
    92 C43       1.7826    2.1443   -6.5880   C.ar      1 RES1   0.0000
    93 C44       1.0048    1.9207   -5.4672   C.ar      1 RES1   0.0000
    94 C45       1.5046    1.2343   -4.3713   C.ar      1 RES1   0.0000
    95 C46       2.4098   -4.4442    0.0668   C.ar      1 RES1   0.0000
    96 C47       3.2021   -5.3727    0.7384   C.ar      1 RES1   0.0000
    97 C48       2.6221   -6.4549    1.3725   C.ar      1 RES1   0.0000
    98 C49       1.2460   -6.5999    1.3911   C.ar      1 RES1   0.0000
    99 C50       0.4556   -5.6517    0.7645   C.ar      1 RES1   0.0000
   100 C51       1.0261   -4.5901    0.0773   C.ar      1 RES1   0.0000
   101 H37       4.4104   -3.1416   -2.1719   H         1 RES1   0.0000
   102 H38       4.4122   -4.7227   -1.4191   H         1 RES1   0.0000
   103 H39       5.1774   -3.3809   -0.5723   H         1 RES1   0.0000
   104 H40       4.4838   -1.2029   -1.0368   H         1 RES1   0.0000
   105 H41       3.3685   -0.2618   -0.0615   H         1 RES1   0.0000
   106 H42       5.1106   -1.0232   -2.6730   H         1 RES1   0.0000
   107 H43       5.4051    0.3960   -3.6618   H         1 RES1   0.0000
   108 H44       4.7516   -1.0904   -4.3854   H         1 RES1   0.0000
   109 H45       4.6042    0.6410   -5.5992   H         1 RES1   0.0000
   110 H46       3.7125    1.8360   -7.4512   H         1 RES1   0.0000
   111 H47       1.3936    2.6798   -7.4398   H         1 RES1   0.0000
   112 H48      -0.0097    2.2882   -5.4439   H         1 RES1   0.0000
   113 H49       0.8566    1.0787   -3.5266   H         1 RES1   0.0000
   114 H50       4.2726   -5.2579    0.7764   H         1 RES1   0.0000
   115 H51       3.2505   -7.1806    1.8609   H         1 RES1   0.0000
   116 H52       0.8036   -7.4520    1.8836   H         1 RES1   0.0000
   117 H53      -0.6190   -5.7448    0.8077   H         1 RES1   0.0000
   118 H54       0.3938   -3.8900   -0.4480   H         1 RES1   0.0000
   119 C52      -5.4953   -1.5646   -1.0969   C.3       1 RES1   0.0000
   120 N7       -4.5334   -0.6443   -0.5149   N.am      1 RES1   0.0000
   121 C53      -3.2322   -0.9503   -0.4082   C.2       1 RES1   0.0000
   122 O7       -2.3956   -0.1588    0.0466   O.2       1 RES1   0.0000
   123 C54      -2.7571   -2.3535   -0.7959   C.3       1 RES1   0.0000
   124 C55      -1.7531   -2.2340   -1.9584   C.2       1 RES1   0.0000
   125 O8       -0.8072   -1.4648   -1.7417   O.2       1 RES1   0.0000
   126 N8       -1.9030   -2.9360   -3.0966   N.am      1 RES1   0.0000
   127 C56      -3.0559   -3.7912   -3.3212   C.3       1 RES1   0.0000
   128 C57      -0.9426   -2.9563   -4.1693   C.ar      1 RES1   0.0000
   129 C58      -1.1168   -3.8542   -5.2270   C.ar      1 RES1   0.0000
   130 C59      -0.2154   -3.9045   -6.2752   C.ar      1 RES1   0.0000
   131 C60       0.8850   -3.0698   -6.3062   C.ar      1 RES1   0.0000
   132 C61       1.0692   -2.1810   -5.2636   C.ar      1 RES1   0.0000
   133 C62       0.1697   -2.1153   -4.2113   C.ar      1 RES1   0.0000
   134 C63      -5.0682    0.5501    0.0613   C.ar      1 RES1   0.0000
   135 C64      -6.3234    0.4932    0.6642   C.ar      1 RES1   0.0000
   136 C65      -6.8833    1.6248    1.2274   C.ar      1 RES1   0.0000
   137 C66      -6.1888    2.8207    1.2345   C.ar      1 RES1   0.0000
   138 C67      -4.9288    2.8716    0.6641   C.ar      1 RES1   0.0000
   139 C68      -4.3730    1.7548    0.0565   C.ar      1 RES1   0.0000
   140 H55      -5.1128   -1.9564   -2.0363   H         1 RES1   0.0000
   141 H56      -6.4222   -1.0416   -1.3236   H         1 RES1   0.0000
   142 H57      -5.7293   -2.3793   -0.4074   H         1 RES1   0.0000
   143 H58      -3.5654   -3.0599   -0.8997   H         1 RES1   0.0000
   144 H59      -2.1553   -2.6744    0.0651   H         1 RES1   0.0000
   145 H60      -3.8067   -3.6560   -2.5577   H         1 RES1   0.0000
   146 H61      -2.7525   -4.8388   -3.3209   H         1 RES1   0.0000
   147 H62      -3.5191   -3.5512   -4.2784   H         1 RES1   0.0000
   148 H63      -1.9410   -4.5420   -5.2754   H         1 RES1   0.0000
   149 H64      -0.3773   -4.6147   -7.0693   H         1 RES1   0.0000
   150 H65       1.5809   -3.1166   -7.1287   H         1 RES1   0.0000
   151 H66       1.9269   -1.5252   -5.2673   H         1 RES1   0.0000
   152 H67       0.3520   -1.3987   -3.4296   H         1 RES1   0.0000
   153 H68      -6.8756   -0.4308    0.7123   H         1 RES1   0.0000
   154 H69      -7.8590    1.5634    1.6791   H         1 RES1   0.0000
   155 H70      -6.6324    3.6973    1.6807   H         1 RES1   0.0000
   156 H71      -4.3734    3.7962    0.7012   H         1 RES1   0.0000
   157 H72      -3.4081    1.8316   -0.4216   H         1 RES1   0.0000
   158 O9       -1.1257    1.7772    1.8740   O.3       1 RES1   0.0000
   159 H73      -1.9704    1.4941    2.2534   H         1 RES1   0.0000
   160 H74      -0.5852    2.1026    2.6095   H         1 RES1   0.0000
@<TRIPOS>BOND
     1     1     5    1
     2     1     8    1
     3     1    44    1
     4     1    47    1
     5     1    83    1
     6     1    86    1
     7     1   122    1
     8     1   125    1
     9     1   158    1
    10     2     3    1
    11     2    23    1
    12     2    24    1
    13     2    25    1
    14     3     4    1
    15     3    17    1
    16     4     5    2
    17     4     6    1
    18     6     7    1
    19     6    26    1
    20     6    27    1
    21     7     8    2
    22     7     9    1
    23     9    10    1
    24     9    11    1
    25    10    28    1
    26    10    29    1
    27    10    30    1
    28    11    12    1
    29    11    16    2
    30    12    13    2
    31    12    31    1
    32    13    14    1
    33    13    32    1
    34    14    15    2
    35    14    33    1
    36    15    16    1
    37    15    34    1
    38    16    35    1
    39    17    18    1
    40    17    22    2
    41    18    19    2
    42    18    36    1
    43    19    20    1
    44    19    37    1
    45    20    21    2
    46    20    38    1
    47    21    22    1
    48    21    39    1
    49    22    40    1
    50    41    42    1
    51    41    62    1
    52    41    63    1
    53    41    64    1
    54    42    43    1
    55    42    56    1
    56    43    44    2
    57    43    45    1
    58    45    46    1
    59    45    65    1
    60    45    66    1
    61    46    47    2
    62    46    48    1
    63    48    49    1
    64    48    50    1
    65    49    67    1
    66    49    68    1
    67    49    69    1
    68    50    51    1
    69    50    55    2
    70    51    52    2
    71    51    70    1
    72    52    53    1
    73    52    71    1
    74    53    54    2
    75    53    72    1
    76    54    55    1
    77    54    73    1
    78    55    74    1
    79    56    57    1
    80    56    61    2
    81    57    58    2
    82    57    75    1
    83    58    59    1
    84    58    76    1
    85    59    60    2
    86    59    77    1
    87    60    61    1
    88    60    78    1
    89    61    79    1
    90    80    81    1
    91    80   101    1
    92    80   102    1
    93    80   103    1
    94    81    82    1
    95    81    95    1
    96    82    83    2
    97    82    84    1
    98    84    85    1
    99    84   104    1
   100    84   105    1
   101    85    86    2
   102    85    87    1
   103    87    88    1
   104    87    89    1
   105    88   106    1
   106    88   107    1
   107    88   108    1
   108    89    90    1
   109    89    94    2
   110    90    91    2
   111    90   109    1
   112    91    92    1
   113    91   110    1
   114    92    93    2
   115    92   111    1
   116    93    94    1
   117    93   112    1
   118    94   113    1
   119    95    96    1
   120    95   100    2
   121    96    97    2
   122    96   114    1
   123    97    98    1
   124    97   115    1
   125    98    99    2
   126    98   116    1
   127    99   100    1
   128    99   117    1
   129   100   118    1
   130   119   120    1
   131   119   140    1
   132   119   141    1
   133   119   142    1
   134   120   121    1
   135   120   134    1
   136   121   122    2
   137   121   123    1
   138   123   124    1
   139   123   143    1
   140   123   144    1
   141   124   125    2
   142   124   126    1
   143   126   127    1
   144   126   128    1
   145   127   145    1
   146   127   146    1
   147   127   147    1
   148   128   129    1
   149   128   133    2
   150   129   130    2
   151   129   148    1
   152   130   131    1
   153   130   149    1
   154   131   132    2
   155   131   150    1
   156   132   133    1
   157   132   151    1
   158   133   152    1
   159   134   135    1
   160   134   139    2
   161   135   136    2
   162   135   153    1
   163   136   137    1
   164   136   154    1
   165   137   138    2
   166   137   155    1
   167   138   139    1
   168   138   156    1
   169   139   157    1
   170   158   159    1
   171   158   160    1
@<TRIPOS>SUBSTRUCTURE
     1 RES1      160 GROUP             0 ****  ****    0  
