@<TRIPOS>MOLECULE
cn9_YICLED_0_nunpairedes_0_charge_3 Charge: 3 Unpaired_Electrons: 3 XTB_Unpaired_Electrons: 0 XTB_Charge: 3
   358   363     1     0     0
SMALL
NoCharges
****
Generated from Architector

@<TRIPOS>ATOM
     1 Nd1       0.2200    0.5242    0.2939   Nd        1 RES1   0.0000
     2 C1        2.5156    5.6502    7.8218   C.3       1 RES1   0.0000
     3 C2        1.0137    5.4942    7.6352   C.3       1 RES1   0.0000
     4 C3        0.6010    4.0268    7.6702   C.3       1 RES1   0.0000
     5 C4       -0.8886    3.8177    7.4048   C.3       1 RES1   0.0000
     6 C5       -1.3879    2.3904    7.6456   C.3       1 RES1   0.0000
     7 C6       -0.8514    1.3673    6.6382   C.3       1 RES1   0.0000
     8 C7        0.4799    0.7473    7.0648   C.3       1 RES1   0.0000
     9 C8        1.2526    0.0610    5.9178   C.3       1 RES1   0.0000
    10 N1        1.0748    0.7167    4.6363   N.am      1 RES1   0.0000
    11 C9        1.7235    2.0063    4.4593   C.3       1 RES1   0.0000
    12 C10       3.0262    1.8454    3.6709   C.3       1 RES1   0.0000
    13 C11       3.3784    3.0772    2.8265   C.3       1 RES1   0.0000
    14 C12       4.7931    2.8684    2.2920   C.3       1 RES1   0.0000
    15 C13       2.4128    3.2441    1.6347   C.3       1 RES1   0.0000
    16 C14       1.6122    4.5494    1.4558   C.3       1 RES1   0.0000
    17 C15       0.5491    4.6910    2.5423   C.3       1 RES1   0.0000
    18 C16       0.9471    4.4442    0.0789   C.3       1 RES1   0.0000
    19 C17       2.5069    5.7850    1.4423   C.3       1 RES1   0.0000
    20 C18       0.3181    0.2706    3.6467   C.2       1 RES1   0.0000
    21 O1        0.1095    0.9330    2.6071   O.2       1 RES1   0.0000
    22 C19      -0.3563   -1.0894    3.7907   C.3       1 RES1   0.0000
    23 O2       -0.9914   -1.3901    2.5647   O.3       1 RES1   0.0000
    24 C20      -2.3327   -1.8359    2.7040   C.3       1 RES1   0.0000
    25 C21      -3.1647   -1.2306    1.5843   C.2       1 RES1   0.0000
    26 O3       -2.5705   -0.5814    0.7082   O.2       1 RES1   0.0000
    27 N2       -4.4803   -1.4467    1.6218   N.am      1 RES1   0.0000
    28 C22      -5.3565   -0.7582    0.6771   C.3       1 RES1   0.0000
    29 C23      -6.4351   -1.6249    0.0042   C.3       1 RES1   0.0000
    30 C24      -6.6652   -1.2071   -1.4548   C.3       1 RES1   0.0000
    31 C25      -5.5439   -1.7154   -2.3622   C.3       1 RES1   0.0000
    32 C26      -5.6317   -1.2608   -3.8212   C.3       1 RES1   0.0000
    33 C27      -5.4119    0.2383   -4.0241   C.3       1 RES1   0.0000
    34 C28      -5.2721    0.6246   -5.4987   C.3       1 RES1   0.0000
    35 C29      -3.9560    0.1754   -6.1285   C.3       1 RES1   0.0000
    36 C30      -5.1793   -2.1564    2.6878   C.3       1 RES1   0.0000
    37 C31      -5.6436   -1.2160    3.8019   C.3       1 RES1   0.0000
    38 C32      -6.1884   -1.9520    5.0396   C.3       1 RES1   0.0000
    39 C33      -7.2997   -2.9250    4.6457   C.3       1 RES1   0.0000
    40 C34      -5.1030   -2.6752    5.8542   C.3       1 RES1   0.0000
    41 C35      -4.4973   -1.8895    7.0334   C.3       1 RES1   0.0000
    42 C36      -3.3081   -2.6912    7.5713   C.3       1 RES1   0.0000
    43 C37      -4.0035   -0.5079    6.6030   C.3       1 RES1   0.0000
    44 C38      -5.5146   -1.7161    8.1594   C.3       1 RES1   0.0000
    45 H1        2.7848    6.6975    7.8921   H         1 RES1   0.0000
    46 H2        2.8399    5.1553    8.7319   H         1 RES1   0.0000
    47 H3        3.0580    5.2156    6.9856   H         1 RES1   0.0000
    48 H4        0.7104    5.9338    6.6842   H         1 RES1   0.0000
    49 H5        0.4892    6.0313    8.4218   H         1 RES1   0.0000
    50 H6        1.1913    3.5008    6.9192   H         1 RES1   0.0000
    51 H7        0.8505    3.6138    8.6486   H         1 RES1   0.0000
    52 H8       -1.4486    4.4839    8.0618   H         1 RES1   0.0000
    53 H9       -1.1170    4.1082    6.3756   H         1 RES1   0.0000
    54 H10      -1.1348    2.0813    8.6594   H         1 RES1   0.0000
    55 H11      -2.4779    2.4052    7.5765   H         1 RES1   0.0000
    56 H12      -1.5828    0.5711    6.5228   H         1 RES1   0.0000
    57 H13      -0.7526    1.8651    5.6718   H         1 RES1   0.0000
    58 H14       1.0985    1.5192    7.5120   H         1 RES1   0.0000
    59 H15       0.3017    0.0028    7.8423   H         1 RES1   0.0000
    60 H16       2.3179    0.0950    6.1545   H         1 RES1   0.0000
    61 H17       0.9577   -0.9803    5.8375   H         1 RES1   0.0000
    62 H18       1.0315    2.6486    3.9127   H         1 RES1   0.0000
    63 H19       1.9188    2.4444    5.4372   H         1 RES1   0.0000
    64 H20       3.8514    1.6364    4.3583   H         1 RES1   0.0000
    65 H21       2.9263    0.9911    2.9913   H         1 RES1   0.0000
    66 H22       3.3509    3.9629    3.4710   H         1 RES1   0.0000
    67 H23       4.8337    1.9495    1.7074   H         1 RES1   0.0000
    68 H24       5.0858    3.6943    1.6576   H         1 RES1   0.0000
    69 H25       5.5103    2.7853    3.1008   H         1 RES1   0.0000
    70 H26       3.0080    3.1301    0.7301   H         1 RES1   0.0000
    71 H27       1.6789    2.4068    1.6322   H         1 RES1   0.0000
    72 H28      -0.1150    3.8295    2.5359   H         1 RES1   0.0000
    73 H29       1.0152    4.7943    3.5170   H         1 RES1   0.0000
    74 H30      -0.0436    5.5869    2.3837   H         1 RES1   0.0000
    75 H31       0.3740    3.5115   -0.0060   H         1 RES1   0.0000
    76 H32       0.2928    5.2931   -0.0848   H         1 RES1   0.0000
    77 H33       1.6923    4.4549   -0.7130   H         1 RES1   0.0000
    78 H34       3.1372    5.8390    2.3228   H         1 RES1   0.0000
    79 H35       3.1366    5.7950    0.5632   H         1 RES1   0.0000
    80 H36       1.8923    6.6772    1.4177   H         1 RES1   0.0000
    81 H37       0.3610   -1.8787    4.0272   H         1 RES1   0.0000
    82 H38      -1.0734   -1.0243    4.6149   H         1 RES1   0.0000
    83 H39      -2.3662   -2.9266    2.6418   H         1 RES1   0.0000
    84 H40      -2.7492   -1.5237    3.6657   H         1 RES1   0.0000
    85 H41      -5.8403    0.0689    1.2080   H         1 RES1   0.0000
    86 H42      -4.7108   -0.3368   -0.0884   H         1 RES1   0.0000
    87 H43      -6.1446   -2.6760    0.0237   H         1 RES1   0.0000
    88 H44      -7.3771   -1.5179    0.5424   H         1 RES1   0.0000
    89 H45      -7.6145   -1.6254   -1.7947   H         1 RES1   0.0000
    90 H46      -6.7454   -0.1206   -1.5062   H         1 RES1   0.0000
    91 H47      -4.5794   -1.3978   -1.9534   H         1 RES1   0.0000
    92 H48      -5.5647   -2.8078   -2.3411   H         1 RES1   0.0000
    93 H49      -4.8717   -1.8107   -4.3805   H         1 RES1   0.0000
    94 H50      -6.6043   -1.5378   -4.2285   H         1 RES1   0.0000
    95 H51      -6.2595    0.7798   -3.6066   H         1 RES1   0.0000
    96 H52      -4.5164    0.5657   -3.4852   H         1 RES1   0.0000
    97 H53      -6.1033    0.1960   -6.0589   H         1 RES1   0.0000
    98 H54      -5.3492    1.7100   -5.5867   H         1 RES1   0.0000
    99 H55      -3.8473   -0.9068   -6.0919   H         1 RES1   0.0000
   100 H56      -3.9314    0.4713   -7.1738   H         1 RES1   0.0000
   101 H57      -3.1031    0.6366   -5.6272   H         1 RES1   0.0000
   102 H58      -6.0489   -2.6249    2.2352   H         1 RES1   0.0000
   103 H59      -4.5525   -2.9478    3.0900   H         1 RES1   0.0000
   104 H60      -4.8247   -0.5600    4.0904   H         1 RES1   0.0000
   105 H61      -6.4453   -0.5818    3.4209   H         1 RES1   0.0000
   106 H62      -6.6416   -1.1844    5.6730   H         1 RES1   0.0000
   107 H63      -6.9011   -3.8085    4.1501   H         1 RES1   0.0000
   108 H64      -7.8338   -3.2473    5.5353   H         1 RES1   0.0000
   109 H65      -8.0137   -2.4451    3.9807   H         1 RES1   0.0000
   110 H66      -5.5367   -3.5890    6.2624   H         1 RES1   0.0000
   111 H67      -4.2889   -2.9889    5.1964   H         1 RES1   0.0000
   112 H68      -2.5349   -2.8107    6.8134   H         1 RES1   0.0000
   113 H69      -2.8727   -2.1885    8.4288   H         1 RES1   0.0000
   114 H70      -3.6289   -3.6784    7.8900   H         1 RES1   0.0000
   115 H71      -3.2697   -0.5915    5.8008   H         1 RES1   0.0000
   116 H72      -4.8209    0.1227    6.2641   H         1 RES1   0.0000
   117 H73      -3.5337   -0.0125    7.4473   H         1 RES1   0.0000
   118 H74      -5.8535   -2.6821    8.5208   H         1 RES1   0.0000
   119 H75      -5.0597   -1.1826    8.9895   H         1 RES1   0.0000
   120 H76      -6.3795   -1.1473    7.8308   H         1 RES1   0.0000
   121 C39      -2.5401   -4.2285    0.3295   C.3       1 RES1   0.0000
   122 C40      -2.5781   -5.5700   -0.3864   C.3       1 RES1   0.0000
   123 C41      -1.8885   -5.4808   -1.7446   C.3       1 RES1   0.0000
   124 C42      -2.3775   -6.5525   -2.7156   C.3       1 RES1   0.0000
   125 C43      -1.8301   -6.3873   -4.1354   C.3       1 RES1   0.0000
   126 C44      -2.1289   -5.0050   -4.7348   C.3       1 RES1   0.0000
   127 C45      -0.9918   -3.9953   -4.5144   C.3       1 RES1   0.0000
   128 C46      -1.4844   -2.5413   -4.4766   C.3       1 RES1   0.0000
   129 N3       -0.4330   -1.6531   -3.9987   N.am      1 RES1   0.0000
   130 C47       0.7241   -1.5108   -4.8961   C.3       1 RES1   0.0000
   131 C48       2.1020   -1.7184   -4.2607   C.3       1 RES1   0.0000
   132 C49       2.9150   -2.9802   -4.6427   C.3       1 RES1   0.0000
   133 C50       4.1163   -2.5448   -5.4824   C.3       1 RES1   0.0000
   134 C51       3.2995   -3.7009   -3.3367   C.3       1 RES1   0.0000
   135 C52       4.2918   -4.8889   -3.3275   C.3       1 RES1   0.0000
   136 C53       5.7447   -4.4030   -3.3131   C.3       1 RES1   0.0000
   137 C54       4.0507   -5.6406   -2.0102   C.3       1 RES1   0.0000
   138 C55       4.0998   -5.8681   -4.4814   C.3       1 RES1   0.0000
   139 C56      -0.5456   -0.8755   -2.9248   C.2       1 RES1   0.0000
   140 O4        0.4004   -0.2974   -2.3631   O.2       1 RES1   0.0000
   141 C57      -1.9342   -0.5458   -2.3611   C.3       1 RES1   0.0000
   142 O5       -1.6954    0.5534   -1.4794   O.3       1 RES1   0.0000
   143 C58      -2.8093    1.4116   -1.3046   C.3       1 RES1   0.0000
   144 C59      -2.4752    2.3408   -0.1370   C.2       1 RES1   0.0000
   145 O6       -1.3259    2.2591    0.3537   O.2       1 RES1   0.0000
   146 N4       -3.3336    3.2766    0.2363   N.am      1 RES1   0.0000
   147 C60      -4.7672    3.2477   -0.0183   C.3       1 RES1   0.0000
   148 C61      -5.5503    3.1633    1.3024   C.3       1 RES1   0.0000
   149 C62      -7.0126    3.6067    1.2102   C.3       1 RES1   0.0000
   150 C63      -7.9596    2.6652    0.4603   C.3       1 RES1   0.0000
   151 C64      -8.1230    2.9767   -1.0269   C.3       1 RES1   0.0000
   152 C65      -9.2820    2.1782   -1.6248   C.3       1 RES1   0.0000
   153 C66      -9.6742    2.6236   -3.0332   C.3       1 RES1   0.0000
   154 C67      -8.6330    2.2863   -4.0920   C.3       1 RES1   0.0000
   155 C68      -2.8218    4.3748    1.0655   C.3       1 RES1   0.0000
   156 C69      -3.4070    5.7584    0.7587   C.3       1 RES1   0.0000
   157 C70      -2.8449    6.5173   -0.4715   C.3       1 RES1   0.0000
   158 C71      -1.6967    7.4226   -0.0316   C.3       1 RES1   0.0000
   159 C72      -2.4813    5.5496   -1.6088   C.3       1 RES1   0.0000
   160 C73      -2.1179    6.1258   -2.9990   C.3       1 RES1   0.0000
   161 C74      -0.6370    6.4999   -3.0912   C.3       1 RES1   0.0000
   162 C75      -2.9816    7.3300   -3.3667   C.3       1 RES1   0.0000
   163 C76      -2.3708    5.0130   -4.0267   C.3       1 RES1   0.0000
   164 H77      -2.9950   -4.3291    1.3088   H         1 RES1   0.0000
   165 H78      -3.1003   -3.4819   -0.2304   H         1 RES1   0.0000
   166 H79      -1.5183   -3.8646    0.4419   H         1 RES1   0.0000
   167 H80      -3.6191   -5.8647   -0.5241   H         1 RES1   0.0000
   168 H81      -2.1032   -6.3368    0.2268   H         1 RES1   0.0000
   169 H82      -0.8054   -5.5615   -1.6114   H         1 RES1   0.0000
   170 H83      -2.1048   -4.4948   -2.1606   H         1 RES1   0.0000
   171 H84      -3.4692   -6.5095   -2.7558   H         1 RES1   0.0000
   172 H85      -2.1032   -7.5392   -2.3369   H         1 RES1   0.0000
   173 H86      -2.3004   -7.1504   -4.7563   H         1 RES1   0.0000
   174 H87      -0.7549   -6.5735   -4.1508   H         1 RES1   0.0000
   175 H88      -3.0599   -4.6313   -4.3036   H         1 RES1   0.0000
   176 H89      -2.2919   -5.1151   -5.8056   H         1 RES1   0.0000
   177 H90      -0.2643   -4.1255   -5.3154   H         1 RES1   0.0000
   178 H91      -0.4813   -4.2025   -3.5748   H         1 RES1   0.0000
   179 H92      -2.3446   -2.4830   -3.8105   H         1 RES1   0.0000
   180 H93      -1.8100   -2.2311   -5.4725   H         1 RES1   0.0000
   181 H94       0.6674   -0.4901   -5.2805   H         1 RES1   0.0000
   182 H95       0.5762   -2.1879   -5.7322   H         1 RES1   0.0000
   183 H96       1.9620   -1.6697   -3.1850   H         1 RES1   0.0000
   184 H97       2.7047   -0.8573   -4.5498   H         1 RES1   0.0000
   185 H98       2.3102   -3.6655   -5.2447   H         1 RES1   0.0000
   186 H99       4.8120   -1.9553   -4.8870   H         1 RES1   0.0000
   187 H100      3.7849   -1.9383   -6.3222   H         1 RES1   0.0000
   188 H101      4.6538   -3.3932   -5.8866   H         1 RES1   0.0000
   189 H102      2.3602   -4.0506   -2.8967   H         1 RES1   0.0000
   190 H103      3.7126   -2.9535   -2.6527   H         1 RES1   0.0000
   191 H104      5.8880   -3.6240   -2.5666   H         1 RES1   0.0000
   192 H105      6.0571   -4.0224   -4.2787   H         1 RES1   0.0000
   193 H106      6.3971   -5.2311   -3.0552   H         1 RES1   0.0000
   194 H107      4.2098   -4.9730   -1.1628   H         1 RES1   0.0000
   195 H108      4.7417   -6.4735   -1.9256   H         1 RES1   0.0000
   196 H109      3.0378   -6.0361   -1.9619   H         1 RES1   0.0000
   197 H110      4.2908   -5.4027   -5.4416   H         1 RES1   0.0000
   198 H111      3.0967   -6.2826   -4.4914   H         1 RES1   0.0000
   199 H112      4.8041   -6.6864   -4.3674   H         1 RES1   0.0000
   200 H113     -2.3799   -1.3813   -1.7998   H         1 RES1   0.0000
   201 H114     -2.5959   -0.2437   -3.1847   H         1 RES1   0.0000
   202 H115     -3.7120    0.8264   -1.1136   H         1 RES1   0.0000
   203 H116     -2.9524    2.0266   -2.2071   H         1 RES1   0.0000
   204 H117     -5.0107    2.4066   -0.6615   H         1 RES1   0.0000
   205 H118     -5.0538    4.1626   -0.5405   H         1 RES1   0.0000
   206 H119     -5.0726    3.8168    2.0299   H         1 RES1   0.0000
   207 H120     -5.5029    2.1473    1.7024   H         1 RES1   0.0000
   208 H121     -7.0576    4.6018    0.7650   H         1 RES1   0.0000
   209 H122     -7.3671    3.6983    2.2390   H         1 RES1   0.0000
   210 H123     -8.9442    2.7493    0.9210   H         1 RES1   0.0000
   211 H124     -7.6377    1.6286    0.5923   H         1 RES1   0.0000
   212 H125     -7.1988    2.7598   -1.5669   H         1 RES1   0.0000
   213 H126     -8.3377    4.0406   -1.1448   H         1 RES1   0.0000
   214 H127    -10.1517    2.2982   -0.9766   H         1 RES1   0.0000
   215 H128     -9.0278    1.1156   -1.6341   H         1 RES1   0.0000
   216 H129     -9.8560    3.6994   -3.0295   H         1 RES1   0.0000
   217 H130    -10.6112    2.1323   -3.2987   H         1 RES1   0.0000
   218 H131     -7.6926    2.7977   -3.8974   H         1 RES1   0.0000
   219 H132     -8.9858    2.5933   -5.0720   H         1 RES1   0.0000
   220 H133     -8.4556    1.2133   -4.1208   H         1 RES1   0.0000
   221 H134     -1.7466    4.3936    0.9106   H         1 RES1   0.0000
   222 H135     -2.9974    4.1479    2.1202   H         1 RES1   0.0000
   223 H136     -3.1841    6.3634    1.6386   H         1 RES1   0.0000
   224 H137     -4.4916    5.7062    0.6863   H         1 RES1   0.0000
   225 H138     -3.6437    7.1705   -0.8319   H         1 RES1   0.0000
   226 H139     -0.8493    6.8388    0.3157   H         1 RES1   0.0000
   227 H140     -2.0257    8.0741    0.7744   H         1 RES1   0.0000
   228 H141     -1.3689    8.0616   -0.8439   H         1 RES1   0.0000
   229 H142     -3.3525    4.9079   -1.7628   H         1 RES1   0.0000
   230 H143     -1.6527    4.9096   -1.2972   H         1 RES1   0.0000
   231 H144     -0.3682    7.2808   -2.3904   H         1 RES1   0.0000
   232 H145     -0.4175    6.8637   -4.0907   H         1 RES1   0.0000
   233 H146     -0.0078    5.6333   -2.8981   H         1 RES1   0.0000
   234 H147     -2.7430    8.1915   -2.7510   H         1 RES1   0.0000
   235 H148     -4.0376    7.0978   -3.2522   H         1 RES1   0.0000
   236 H149     -2.8062    7.5995   -4.4042   H         1 RES1   0.0000
   237 H150     -1.7957    4.1203   -3.7792   H         1 RES1   0.0000
   238 H151     -2.0675    5.3490   -5.0136   H         1 RES1   0.0000
   239 H152     -3.4265    4.7528   -4.0719   H         1 RES1   0.0000
   240 C77       2.3702   -1.6073   10.1195   C.3       1 RES1   0.0000
   241 C78       3.1374   -2.6454    9.3091   C.3       1 RES1   0.0000
   242 C79       2.5985   -2.7420    7.8834   C.3       1 RES1   0.0000
   243 C80       3.2413   -3.8466    7.0411   C.3       1 RES1   0.0000
   244 C81       4.6449   -3.5356    6.5107   C.3       1 RES1   0.0000
   245 C82       4.7770   -2.4468    5.4371   C.3       1 RES1   0.0000
   246 C83       4.4237   -2.8814    4.0065   C.3       1 RES1   0.0000
   247 C84       2.9676   -2.5817    3.6418   C.3       1 RES1   0.0000
   248 N5        2.6969   -2.8991    2.2419   N.am      1 RES1   0.0000
   249 C85       2.7225   -4.3052    1.8767   C.3       1 RES1   0.0000
   250 C86       1.3413   -4.9781    1.9833   C.3       1 RES1   0.0000
   251 C87       0.8689   -5.4463    3.3774   C.3       1 RES1   0.0000
   252 C88       1.9636   -6.2197    4.1050   C.3       1 RES1   0.0000
   253 C89      -0.3607   -6.3533    3.1630   C.3       1 RES1   0.0000
   254 C90      -1.4537   -6.4035    4.2537   C.3       1 RES1   0.0000
   255 C91      -0.9048   -6.6240    5.6620   C.3       1 RES1   0.0000
   256 C92      -2.2759   -5.1135    4.2527   C.3       1 RES1   0.0000
   257 C93      -2.3874   -7.5664    3.9012   C.3       1 RES1   0.0000
   258 C94       2.3541   -1.9592    1.3670   C.2       1 RES1   0.0000
   259 O7        1.9634   -0.8130    1.6778   O.2       1 RES1   0.0000
   260 C95       2.5251   -2.2380   -0.1350   C.3       1 RES1   0.0000
   261 O8        2.3209   -1.0235   -0.8380   O.3       1 RES1   0.0000
   262 C96       3.5073   -0.3186   -1.1975   C.3       1 RES1   0.0000
   263 C97       3.1769    1.1725   -1.3915   C.2       1 RES1   0.0000
   264 O9        2.2010    1.6232   -0.7576   O.2       1 RES1   0.0000
   265 N6        4.0328    1.9130   -2.1034   N.am      1 RES1   0.0000
   266 C98       4.6574    1.4066   -3.3255   C.3       1 RES1   0.0000
   267 C99       4.5256    2.3993   -4.4950   C.3       1 RES1   0.0000
   268 C100      3.1121    2.9335   -4.7491   C.3       1 RES1   0.0000
   269 C101      2.0978    1.8932   -5.2175   C.3       1 RES1   0.0000
   270 C102      2.3820    1.2907   -6.5940   C.3       1 RES1   0.0000
   271 C103      2.1152    2.2704   -7.7344   C.3       1 RES1   0.0000
   272 C104      2.0421    1.5711   -9.0894   C.3       1 RES1   0.0000
   273 C105      3.3731    0.9695   -9.5200   C.3       1 RES1   0.0000
   274 C106      4.3920    3.2945   -1.7515   C.3       1 RES1   0.0000
   275 C107      5.9003    3.3932   -1.4605   C.3       1 RES1   0.0000
   276 C108      6.4974    4.8101   -1.4024   C.3       1 RES1   0.0000
   277 C109      6.3331    5.5632   -2.7211   C.3       1 RES1   0.0000
   278 C110      5.9797    5.6299   -0.2105   C.3       1 RES1   0.0000
   279 C111      7.0334    5.9944    0.8564   C.3       1 RES1   0.0000
   280 C112      7.9426    4.8138    1.2079   C.3       1 RES1   0.0000
   281 C113      7.9026    7.1469    0.3564   C.3       1 RES1   0.0000
   282 C114      6.2879    6.4441    2.1150   C.3       1 RES1   0.0000
   283 H153      2.7842   -1.5268   11.1191   H         1 RES1   0.0000
   284 H154      1.3235   -1.8895   10.2091   H         1 RES1   0.0000
   285 H155      2.4286   -0.6272    9.6508   H         1 RES1   0.0000
   286 H156      3.0473   -3.6158    9.7979   H         1 RES1   0.0000
   287 H157      4.1938   -2.3803    9.2895   H         1 RES1   0.0000
   288 H158      2.7274   -1.7761    7.3940   H         1 RES1   0.0000
   289 H159      1.5252   -2.9407    7.9413   H         1 RES1   0.0000
   290 H160      2.5749   -4.0949    6.2105   H         1 RES1   0.0000
   291 H161      3.3165   -4.7413    7.6625   H         1 RES1   0.0000
   292 H162      5.0626   -4.4631    6.1151   H         1 RES1   0.0000
   293 H163      5.2650   -3.2438    7.3582   H         1 RES1   0.0000
   294 H164      5.8252   -2.1450    5.4288   H         1 RES1   0.0000
   295 H165      4.1886   -1.5713    5.7108   H         1 RES1   0.0000
   296 H166      4.6352   -3.9468    3.9110   H         1 RES1   0.0000
   297 H167      5.0660   -2.3507    3.3002   H         1 RES1   0.0000
   298 H168      2.7861   -1.5161    3.7772   H         1 RES1   0.0000
   299 H169      2.2980   -3.1559    4.2805   H         1 RES1   0.0000
   300 H170      3.4288   -4.8190    2.5226   H         1 RES1   0.0000
   301 H171      3.0802   -4.4112    0.8537   H         1 RES1   0.0000
   302 H172      1.3899   -5.8666    1.3522   H         1 RES1   0.0000
   303 H173      0.5856   -4.3099    1.5500   H         1 RES1   0.0000
   304 H174      0.5745   -4.5771    3.9736   H         1 RES1   0.0000
   305 H175      2.2950   -7.0557    3.4996   H         1 RES1   0.0000
   306 H176      1.5904   -6.6158    5.0416   H         1 RES1   0.0000
   307 H177      2.8231   -5.6026    4.3437   H         1 RES1   0.0000
   308 H178      0.0008   -7.3720    3.0113   H         1 RES1   0.0000
   309 H179     -0.8575   -6.0563    2.2353   H         1 RES1   0.0000
   310 H180     -0.3153   -5.7749    5.9997   H         1 RES1   0.0000
   311 H181     -0.2987   -7.5222    5.7095   H         1 RES1   0.0000
   312 H182     -1.7296   -6.7529    6.3582   H         1 RES1   0.0000
   313 H183     -1.6363   -4.2402    4.3762   H         1 RES1   0.0000
   314 H184     -2.9873   -5.1270    5.0743   H         1 RES1   0.0000
   315 H185     -2.8318   -5.0301    3.3205   H         1 RES1   0.0000
   316 H186     -1.8834   -8.5170    4.0453   H         1 RES1   0.0000
   317 H187     -2.7110   -7.5012    2.8641   H         1 RES1   0.0000
   318 H188     -3.2695   -7.5509    4.5349   H         1 RES1   0.0000
   319 H189      1.7790   -2.9507   -0.5002   H         1 RES1   0.0000
   320 H190      3.5253   -2.6343   -0.3339   H         1 RES1   0.0000
   321 H191      3.9763   -0.7748   -2.0750   H         1 RES1   0.0000
   322 H192      4.2314   -0.3402   -0.3657   H         1 RES1   0.0000
   323 H193      4.1743    0.4705   -3.6038   H         1 RES1   0.0000
   324 H194      5.7162    1.1986   -3.1581   H         1 RES1   0.0000
   325 H195      4.8866    1.8841   -5.3843   H         1 RES1   0.0000
   326 H196      5.1992    3.2447   -4.3456   H         1 RES1   0.0000
   327 H197      3.1794    3.7271   -5.4923   H         1 RES1   0.0000
   328 H198      2.7137    3.3791   -3.8377   H         1 RES1   0.0000
   329 H199      1.1226    2.3840   -5.2577   H         1 RES1   0.0000
   330 H200      2.0288    1.1101   -4.4577   H         1 RES1   0.0000
   331 H201      1.7239    0.4311   -6.7431   H         1 RES1   0.0000
   332 H202      3.4083    0.9264   -6.6385   H         1 RES1   0.0000
   333 H203      2.8909    3.0344   -7.7659   H         1 RES1   0.0000
   334 H204      1.1637    2.7704   -7.5448   H         1 RES1   0.0000
   335 H205      1.7252    2.2978   -9.8362   H         1 RES1   0.0000
   336 H206      1.2809    0.7881   -9.0540   H         1 RES1   0.0000
   337 H207      4.1487    1.7312   -9.5297   H         1 RES1   0.0000
   338 H208      3.2947    0.5548  -10.5210   H         1 RES1   0.0000
   339 H209      3.6830    0.1714   -8.8491   H         1 RES1   0.0000
   340 H210      3.8076    3.5746   -0.8794   H         1 RES1   0.0000
   341 H211      4.1402    3.9790   -2.5553   H         1 RES1   0.0000
   342 H212      6.4431    2.8756   -2.2502   H         1 RES1   0.0000
   343 H213      6.1146    2.8824   -0.5211   H         1 RES1   0.0000
   344 H214      7.5682    4.6514   -1.2722   H         1 RES1   0.0000
   345 H215      5.2969    5.8275   -2.9096   H         1 RES1   0.0000
   346 H216      6.7051    4.9656   -3.5498   H         1 RES1   0.0000
   347 H217      6.9127    6.4817   -2.6919   H         1 RES1   0.0000
   348 H218      5.1758    5.0806    0.2747   H         1 RES1   0.0000
   349 H219      5.5500    6.5642   -0.5774   H         1 RES1   0.0000
   350 H220      8.7123    4.6774    0.4544   H         1 RES1   0.0000
   351 H221      7.3858    3.8852    1.3093   H         1 RES1   0.0000
   352 H222      8.4539    5.0061    2.1470   H         1 RES1   0.0000
   353 H223      8.3632    6.9052   -0.5967   H         1 RES1   0.0000
   354 H224      8.6972    7.3523    1.0688   H         1 RES1   0.0000
   355 H225      7.3121    8.0521    0.2339   H         1 RES1   0.0000
   356 H226      5.7564    5.6144    2.5709   H         1 RES1   0.0000
   357 H227      5.5708    7.2250    1.8754   H         1 RES1   0.0000
   358 H228      6.9829    6.8420    2.8461   H         1 RES1   0.0000
@<TRIPOS>BOND
     1     1    21    1
     2     1    23    1
     3     1    26    1
     4     1   140    1
     5     1   142    1
     6     1   145    1
     7     1   259    1
     8     1   261    1
     9     1   264    1
    10     2     3    1
    11     2    45    1
    12     2    46    1
    13     2    47    1
    14     3     4    1
    15     3    48    1
    16     3    49    1
    17     4     5    1
    18     4    50    1
    19     4    51    1
    20     5     6    1
    21     5    52    1
    22     5    53    1
    23     6     7    1
    24     6    54    1
    25     6    55    1
    26     7     8    1
    27     7    56    1
    28     7    57    1
    29     8     9    1
    30     8    58    1
    31     8    59    1
    32     9    10    1
    33     9    60    1
    34     9    61    1
    35    10    11    1
    36    10    20    1
    37    11    12    1
    38    11    62    1
    39    11    63    1
    40    12    13    1
    41    12    64    1
    42    12    65    1
    43    13    14    1
    44    13    15    1
    45    13    66    1
    46    14    67    1
    47    14    68    1
    48    14    69    1
    49    15    16    1
    50    15    70    1
    51    15    71    1
    52    16    17    1
    53    16    18    1
    54    16    19    1
    55    17    72    1
    56    17    73    1
    57    17    74    1
    58    18    75    1
    59    18    76    1
    60    18    77    1
    61    19    78    1
    62    19    79    1
    63    19    80    1
    64    20    21    2
    65    20    22    1
    66    22    23    1
    67    22    81    1
    68    22    82    1
    69    23    24    1
    70    24    25    1
    71    24    83    1
    72    24    84    1
    73    25    26    2
    74    25    27    1
    75    27    28    1
    76    27    36    1
    77    28    29    1
    78    28    85    1
    79    28    86    1
    80    29    30    1
    81    29    87    1
    82    29    88    1
    83    30    31    1
    84    30    89    1
    85    30    90    1
    86    31    32    1
    87    31    91    1
    88    31    92    1
    89    32    33    1
    90    32    93    1
    91    32    94    1
    92    33    34    1
    93    33    95    1
    94    33    96    1
    95    34    35    1
    96    34    97    1
    97    34    98    1
    98    35    99    1
    99    35   100    1
   100    35   101    1
   101    36    37    1
   102    36   102    1
   103    36   103    1
   104    37    38    1
   105    37   104    1
   106    37   105    1
   107    38    39    1
   108    38    40    1
   109    38   106    1
   110    39   107    1
   111    39   108    1
   112    39   109    1
   113    40    41    1
   114    40   110    1
   115    40   111    1
   116    41    42    1
   117    41    43    1
   118    41    44    1
   119    42   112    1
   120    42   113    1
   121    42   114    1
   122    43   115    1
   123    43   116    1
   124    43   117    1
   125    44   118    1
   126    44   119    1
   127    44   120    1
   128   121   122    1
   129   121   164    1
   130   121   165    1
   131   121   166    1
   132   122   123    1
   133   122   167    1
   134   122   168    1
   135   123   124    1
   136   123   169    1
   137   123   170    1
   138   124   125    1
   139   124   171    1
   140   124   172    1
   141   125   126    1
   142   125   173    1
   143   125   174    1
   144   126   127    1
   145   126   175    1
   146   126   176    1
   147   127   128    1
   148   127   177    1
   149   127   178    1
   150   128   129    1
   151   128   179    1
   152   128   180    1
   153   129   130    1
   154   129   139    1
   155   130   131    1
   156   130   181    1
   157   130   182    1
   158   131   132    1
   159   131   183    1
   160   131   184    1
   161   132   133    1
   162   132   134    1
   163   132   185    1
   164   133   186    1
   165   133   187    1
   166   133   188    1
   167   134   135    1
   168   134   189    1
   169   134   190    1
   170   135   136    1
   171   135   137    1
   172   135   138    1
   173   136   191    1
   174   136   192    1
   175   136   193    1
   176   137   194    1
   177   137   195    1
   178   137   196    1
   179   138   197    1
   180   138   198    1
   181   138   199    1
   182   139   140    2
   183   139   141    1
   184   141   142    1
   185   141   200    1
   186   141   201    1
   187   142   143    1
   188   143   144    1
   189   143   202    1
   190   143   203    1
   191   144   145    2
   192   144   146    1
   193   146   147    1
   194   146   155    1
   195   147   148    1
   196   147   204    1
   197   147   205    1
   198   148   149    1
   199   148   206    1
   200   148   207    1
   201   149   150    1
   202   149   208    1
   203   149   209    1
   204   150   151    1
   205   150   210    1
   206   150   211    1
   207   151   152    1
   208   151   212    1
   209   151   213    1
   210   152   153    1
   211   152   214    1
   212   152   215    1
   213   153   154    1
   214   153   216    1
   215   153   217    1
   216   154   218    1
   217   154   219    1
   218   154   220    1
   219   155   156    1
   220   155   221    1
   221   155   222    1
   222   156   157    1
   223   156   223    1
   224   156   224    1
   225   157   158    1
   226   157   159    1
   227   157   225    1
   228   158   226    1
   229   158   227    1
   230   158   228    1
   231   159   160    1
   232   159   229    1
   233   159   230    1
   234   160   161    1
   235   160   162    1
   236   160   163    1
   237   161   231    1
   238   161   232    1
   239   161   233    1
   240   162   234    1
   241   162   235    1
   242   162   236    1
   243   163   237    1
   244   163   238    1
   245   163   239    1
   246   240   241    1
   247   240   283    1
   248   240   284    1
   249   240   285    1
   250   241   242    1
   251   241   286    1
   252   241   287    1
   253   242   243    1
   254   242   288    1
   255   242   289    1
   256   243   244    1
   257   243   290    1
   258   243   291    1
   259   244   245    1
   260   244   292    1
   261   244   293    1
   262   245   246    1
   263   245   294    1
   264   245   295    1
   265   246   247    1
   266   246   296    1
   267   246   297    1
   268   247   248    1
   269   247   298    1
   270   247   299    1
   271   248   249    1
   272   248   258    1
   273   249   250    1
   274   249   300    1
   275   249   301    1
   276   250   251    1
   277   250   302    1
   278   250   303    1
   279   251   252    1
   280   251   253    1
   281   251   304    1
   282   252   305    1
   283   252   306    1
   284   252   307    1
   285   253   254    1
   286   253   308    1
   287   253   309    1
   288   254   255    1
   289   254   256    1
   290   254   257    1
   291   255   310    1
   292   255   311    1
   293   255   312    1
   294   256   313    1
   295   256   314    1
   296   256   315    1
   297   257   316    1
   298   257   317    1
   299   257   318    1
   300   258   259    2
   301   258   260    1
   302   260   261    1
   303   260   319    1
   304   260   320    1
   305   261   262    1
   306   262   263    1
   307   262   321    1
   308   262   322    1
   309   263   264    2
   310   263   265    1
   311   265   266    1
   312   265   274    1
   313   266   267    1
   314   266   323    1
   315   266   324    1
   316   267   268    1
   317   267   325    1
   318   267   326    1
   319   268   269    1
   320   268   327    1
   321   268   328    1
   322   269   270    1
   323   269   329    1
   324   269   330    1
   325   270   271    1
   326   270   331    1
   327   270   332    1
   328   271   272    1
   329   271   333    1
   330   271   334    1
   331   272   273    1
   332   272   335    1
   333   272   336    1
   334   273   337    1
   335   273   338    1
   336   273   339    1
   337   274   275    1
   338   274   340    1
   339   274   341    1
   340   275   276    1
   341   275   342    1
   342   275   343    1
   343   276   277    1
   344   276   278    1
   345   276   344    1
   346   277   345    1
   347   277   346    1
   348   277   347    1
   349   278   279    1
   350   278   348    1
   351   278   349    1
   352   279   280    1
   353   279   281    1
   354   279   282    1
   355   280   350    1
   356   280   351    1
   357   280   352    1
   358   281   353    1
   359   281   354    1
   360   281   355    1
   361   282   356    1
   362   282   357    1
   363   282   358    1
@<TRIPOS>SUBSTRUCTURE
     1 RES1      358 GROUP             0 ****  ****    0  
