@<TRIPOS>MOLECULE
tricapped_trigonal_prismatic_0_nunpairedes_0_charge_3 Charge: 3 Unpaired_Electrons: 3 XTB_Unpaired_Electrons: 0 XTB_Charge: 3
   412   417     1     0     0
SMALL
NoCharges
****
Generated from Architector

@<TRIPOS>ATOM
     1 Nd1      -0.3438   -0.0653    0.2193   Nd        1 RES1   0.0000
     2 C1       -1.8315   -8.3269    1.8824   C.3       1 RES1   0.0000
     3 C2       -0.3955   -8.4818    1.4006   C.3       1 RES1   0.0000
     4 C3       -0.2253   -7.9699   -0.0280   C.3       1 RES1   0.0000
     5 C4        1.2273   -7.9716   -0.5060   C.3       1 RES1   0.0000
     6 C5        2.2164   -7.1948    0.3681   C.3       1 RES1   0.0000
     7 C6        1.8383   -5.7403    0.6694   C.3       1 RES1   0.0000
     8 C7        2.9292   -5.1176    1.5380   C.3       1 RES1   0.0000
     9 C8        2.8653   -3.5962    1.6905   C.3       1 RES1   0.0000
    10 N1        1.8904   -3.1275    2.6777   N.am      1 RES1   0.0000
    11 C9        2.0130   -3.5980    4.0641   C.3       1 RES1   0.0000
    12 C10       3.4210   -3.5311    4.7035   C.3       1 RES1   0.0000
    13 C11       3.7341   -2.2359    5.4796   C.3       1 RES1   0.0000
    14 C12       5.1982   -2.1959    5.9610   C.3       1 RES1   0.0000
    15 C13       5.6096   -1.1033    6.9817   C.3       1 RES1   0.0000
    16 C14       5.0640   -1.4262    8.3723   C.3       1 RES1   0.0000
    17 C15       5.1960    0.3177    6.5715   C.3       1 RES1   0.0000
    18 C16       6.2848    1.3994    6.5602   C.3       1 RES1   0.0000
    19 C17       5.6062    2.7760    6.6594   C.3       1 RES1   0.0000
    20 C18       6.3348    3.9783    6.0370   C.3       1 RES1   0.0000
    21 C19       7.8093    4.0531    6.4191   C.3       1 RES1   0.0000
    22 C20       6.1681    3.9758    4.5190   C.3       1 RES1   0.0000
    23 C21       0.9049   -2.3623    2.2185   C.2       1 RES1   0.0000
    24 O1        0.9217   -1.8624    1.0708   O.2       1 RES1   0.0000
    25 C22      -0.3078   -2.0418    3.0996   C.3       1 RES1   0.0000
    26 O2       -1.4167   -1.8834    2.2164   O.3       1 RES1   0.0000
    27 C23      -2.5442   -1.3676    2.9056   C.3       1 RES1   0.0000
    28 C24      -2.2945    0.1340    3.0933   C.2       1 RES1   0.0000
    29 O3       -1.5861    0.6874    2.2192   O.2       1 RES1   0.0000
    30 N2       -2.7600    0.7537    4.1639   N.am      1 RES1   0.0000
    31 C25      -3.7290    0.1445    5.0685   C.3       1 RES1   0.0000
    32 C26      -3.1320   -0.5731    6.2861   C.3       1 RES1   0.0000
    33 C27      -4.1198   -1.5930    6.8634   C.3       1 RES1   0.0000
    34 C28      -3.5517   -2.3314    8.0869   C.3       1 RES1   0.0000
    35 C29      -2.8667   -3.6663    7.7878   C.3       1 RES1   0.0000
    36 C30      -1.6081   -3.5383    6.9235   C.3       1 RES1   0.0000
    37 C31      -0.5850   -4.6471    7.1766   C.3       1 RES1   0.0000
    38 C32      -1.0899   -6.0314    6.7957   C.3       1 RES1   0.0000
    39 C33      -2.2865    2.1154    4.4333   C.3       1 RES1   0.0000
    40 C34      -3.3573    3.1439    4.7778   C.3       1 RES1   0.0000
    41 C35      -4.4339    3.2887    3.6916   C.3       1 RES1   0.0000
    42 C36      -5.8683    3.2291    4.2408   C.3       1 RES1   0.0000
    43 C37      -6.8867    2.5474    3.3160   C.3       1 RES1   0.0000
    44 C38      -8.2932    2.7525    3.8735   C.3       1 RES1   0.0000
    45 C39      -6.5617    1.0559    3.1766   C.3       1 RES1   0.0000
    46 C40      -7.4140    0.3104    2.1488   C.3       1 RES1   0.0000
    47 C41      -6.7672   -1.0073    1.7079   C.3       1 RES1   0.0000
    48 C42      -6.4627   -1.9929    2.8432   C.3       1 RES1   0.0000
    49 C43      -5.8812   -3.2827    2.2644   C.3       1 RES1   0.0000
    50 C44      -7.7069   -2.3106    3.6652   C.3       1 RES1   0.0000
    51 H1       -1.9237   -8.6625    2.9116   H         1 RES1   0.0000
    52 H2       -2.5051   -8.9134    1.2640   H         1 RES1   0.0000
    53 H3       -2.1397   -7.2827    1.8364   H         1 RES1   0.0000
    54 H4       -0.1038   -9.5302    1.4421   H         1 RES1   0.0000
    55 H5        0.2611   -7.9279    2.0722   H         1 RES1   0.0000
    56 H6       -0.6330   -6.9579   -0.0999   H         1 RES1   0.0000
    57 H7       -0.8111   -8.6005   -0.7032   H         1 RES1   0.0000
    58 H8        1.2617   -7.5725   -1.5221   H         1 RES1   0.0000
    59 H9        1.5754   -9.0029   -0.5539   H         1 RES1   0.0000
    60 H10       3.1801   -7.1933   -0.1443   H         1 RES1   0.0000
    61 H11       2.3593   -7.7278    1.3098   H         1 RES1   0.0000
    62 H12       0.8842   -5.6947    1.1956   H         1 RES1   0.0000
    63 H13       1.7420   -5.1791   -0.2662   H         1 RES1   0.0000
    64 H14       3.8989   -5.3537    1.0948   H         1 RES1   0.0000
    65 H15       2.9087   -5.5924    2.5186   H         1 RES1   0.0000
    66 H16       2.5850   -3.1347    0.7384   H         1 RES1   0.0000
    67 H17       3.8456   -3.2182    1.9776   H         1 RES1   0.0000
    68 H18       1.6716   -4.6409    4.0990   H         1 RES1   0.0000
    69 H19       1.3412   -3.0146    4.6887   H         1 RES1   0.0000
    70 H20       4.1934   -3.7118    3.9596   H         1 RES1   0.0000
    71 H21       3.4833   -4.3607    5.4138   H         1 RES1   0.0000
    72 H22       3.0730   -2.1729    6.3446   H         1 RES1   0.0000
    73 H23       3.5267   -1.3737    4.8397   H         1 RES1   0.0000
    74 H24       5.8488   -2.1055    5.0888   H         1 RES1   0.0000
    75 H25       5.4359   -3.1521    6.4384   H         1 RES1   0.0000
    76 H26       6.7039   -1.1439    7.0209   H         1 RES1   0.0000
    77 H27       3.9911   -1.5961    8.3272   H         1 RES1   0.0000
    78 H28       5.2475   -0.5978    9.0544   H         1 RES1   0.0000
    79 H29       5.5354   -2.3140    8.7869   H         1 RES1   0.0000
    80 H30       4.4041    0.6523    7.2450   H         1 RES1   0.0000
    81 H31       4.7656    0.2819    5.5715   H         1 RES1   0.0000
    82 H32       6.8869    1.3328    5.6484   H         1 RES1   0.0000
    83 H33       6.9645    1.2787    7.4032   H         1 RES1   0.0000
    84 H34       5.4139    2.9840    7.7136   H         1 RES1   0.0000
    85 H35       4.6337    2.7075    6.1596   H         1 RES1   0.0000
    86 H36       5.8377    4.8740    6.4210   H         1 RES1   0.0000
    87 H37       8.3849    3.2702    5.9333   H         1 RES1   0.0000
    88 H38       7.9314    3.9517    7.4954   H         1 RES1   0.0000
    89 H39       8.2286    5.0103    6.1180   H         1 RES1   0.0000
    90 H40       6.5835    3.0610    4.1028   H         1 RES1   0.0000
    91 H41       5.1104    4.0434    4.2516   H         1 RES1   0.0000
    92 H42       6.6825    4.8235    4.0798   H         1 RES1   0.0000
    93 H43      -0.1014   -1.0948    3.6256   H         1 RES1   0.0000
    94 H44      -0.5417   -2.8339    3.8232   H         1 RES1   0.0000
    95 H45      -2.6989   -1.9039    3.8483   H         1 RES1   0.0000
    96 H46      -3.4165   -1.5244    2.2604   H         1 RES1   0.0000
    97 H47      -4.3399   -0.5610    4.5036   H         1 RES1   0.0000
    98 H48      -4.3835    0.9432    5.4118   H         1 RES1   0.0000
    99 H49      -2.8967    0.1453    7.0715   H         1 RES1   0.0000
   100 H50      -2.2070   -1.0797    5.9980   H         1 RES1   0.0000
   101 H51      -4.4005   -2.3066    6.0851   H         1 RES1   0.0000
   102 H52      -5.0288   -1.0614    7.1556   H         1 RES1   0.0000
   103 H53      -4.3633   -2.5252    8.7904   H         1 RES1   0.0000
   104 H54      -2.8390   -1.6749    8.5941   H         1 RES1   0.0000
   105 H55      -3.5804   -4.3479    7.3237   H         1 RES1   0.0000
   106 H56      -2.5845   -4.1006    8.7491   H         1 RES1   0.0000
   107 H57      -1.1271   -2.5859    7.1508   H         1 RES1   0.0000
   108 H58      -1.8891   -3.5443    5.8635   H         1 RES1   0.0000
   109 H59      -0.3143   -4.6414    8.2337   H         1 RES1   0.0000
   110 H60       0.3216   -4.4225    6.6038   H         1 RES1   0.0000
   111 H61      -1.9167   -6.3226    7.4355   H         1 RES1   0.0000
   112 H62      -0.3000   -6.7697    6.9137   H         1 RES1   0.0000
   113 H63      -1.4269   -6.0469    5.7605   H         1 RES1   0.0000
   114 H64      -1.7722    2.4426    3.5286   H         1 RES1   0.0000
   115 H65      -1.5607    2.0623    5.2519   H         1 RES1   0.0000
   116 H66      -2.8275    4.0872    4.9207   H         1 RES1   0.0000
   117 H67      -3.8195    2.9084    5.7323   H         1 RES1   0.0000
   118 H68      -4.2890    2.5048    2.9457   H         1 RES1   0.0000
   119 H69      -4.2924    4.2412    3.1826   H         1 RES1   0.0000
   120 H70      -6.2044    4.2467    4.4350   H         1 RES1   0.0000
   121 H71      -5.8925    2.7078    5.2013   H         1 RES1   0.0000
   122 H72      -6.8459    3.0114    2.3259   H         1 RES1   0.0000
   123 H73      -8.3874    2.2894    4.8531   H         1 RES1   0.0000
   124 H74      -9.0389    2.3137    3.2147   H         1 RES1   0.0000
   125 H75      -8.5121    3.8136    3.9780   H         1 RES1   0.0000
   126 H76      -6.6762    0.5858    4.1548   H         1 RES1   0.0000
   127 H77      -5.5172    0.9520    2.8715   H         1 RES1   0.0000
   128 H78      -7.5472    0.9384    1.2637   H         1 RES1   0.0000
   129 H79      -8.4027    0.1069    2.5538   H         1 RES1   0.0000
   130 H80      -5.8305   -0.7810    1.1791   H         1 RES1   0.0000
   131 H81      -7.4288   -1.5007    0.9910   H         1 RES1   0.0000
   132 H82      -5.7123   -1.5439    3.5058   H         1 RES1   0.0000
   133 H83      -6.6404   -3.8070    1.6904   H         1 RES1   0.0000
   134 H84      -5.5480   -3.9441    3.0607   H         1 RES1   0.0000
   135 H85      -5.0360   -3.0840    1.6034   H         1 RES1   0.0000
   136 H86      -8.5036   -2.6714    3.0194   H         1 RES1   0.0000
   137 H87      -8.0653   -1.4330    4.1955   H         1 RES1   0.0000
   138 H88      -7.4866   -3.0799    4.4008   H         1 RES1   0.0000
   139 C45      -4.6065    0.0174   -8.3264   C.3       1 RES1   0.0000
   140 C46      -3.1735    0.2432   -8.7928   C.3       1 RES1   0.0000
   141 C47      -2.1045   -0.0695   -7.7370   C.3       1 RES1   0.0000
   142 C48      -1.6618   -1.5342   -7.6688   C.3       1 RES1   0.0000
   143 C49      -2.6198   -2.4829   -6.9501   C.3       1 RES1   0.0000
   144 C50      -2.8931   -2.1048   -5.4924   C.3       1 RES1   0.0000
   145 C51      -3.4633   -3.3035   -4.7383   C.3       1 RES1   0.0000
   146 C52      -3.8235   -3.0044   -3.2842   C.3       1 RES1   0.0000
   147 N3       -2.6572   -2.8114   -2.4289   N.am      1 RES1   0.0000
   148 C53      -1.7941   -3.9790   -2.2573   C.3       1 RES1   0.0000
   149 C54      -0.4959   -3.8390   -3.0630   C.3       1 RES1   0.0000
   150 C55       0.2318   -5.1800   -3.1433   C.3       1 RES1   0.0000
   151 C56       1.6595   -5.0588   -3.6746   C.3       1 RES1   0.0000
   152 C57       1.7840   -4.6876   -5.1600   C.3       1 RES1   0.0000
   153 C58       3.2431   -4.3321   -5.4571   C.3       1 RES1   0.0000
   154 C59       1.3192   -5.8211   -6.0959   C.3       1 RES1   0.0000
   155 C60       0.0157   -5.5257   -6.8411   C.3       1 RES1   0.0000
   156 C61      -0.3373   -6.6918   -7.7671   C.3       1 RES1   0.0000
   157 C62      -1.6975   -6.6207   -8.4774   C.3       1 RES1   0.0000
   158 C63      -2.8672   -6.5865   -7.4949   C.3       1 RES1   0.0000
   159 C64      -1.7793   -5.4626   -9.4690   C.3       1 RES1   0.0000
   160 C65      -2.3802   -1.7302   -1.7245   C.2       1 RES1   0.0000
   161 O4       -1.5482   -1.7308   -0.7905   O.2       1 RES1   0.0000
   162 C66      -2.9907   -0.3603   -2.0622   C.3       1 RES1   0.0000
   163 O5       -1.9313    0.5926   -1.9646   O.3       1 RES1   0.0000
   164 C67      -1.1857    0.7981   -3.1667   C.3       1 RES1   0.0000
   165 C68       0.3201    0.6500   -2.8921   C.2       1 RES1   0.0000
   166 O6        0.6560   -0.1518   -1.9968   O.2       1 RES1   0.0000
   167 N4        1.1957    1.3279   -3.6333   N.am      1 RES1   0.0000
   168 C69       0.8587    2.4516   -4.5025   C.3       1 RES1   0.0000
   169 C70       0.6609    2.0926   -5.9833   C.3       1 RES1   0.0000
   170 C71      -0.2999    3.0448   -6.7082   C.3       1 RES1   0.0000
   171 C72       0.1877    4.4925   -6.8798   C.3       1 RES1   0.0000
   172 C73       0.8955    4.7747   -8.2113   C.3       1 RES1   0.0000
   173 C74       2.2451    4.0814   -8.3969   C.3       1 RES1   0.0000
   174 C75       3.3062    4.5122   -7.3852   C.3       1 RES1   0.0000
   175 C76       4.6182    3.7845   -7.6421   C.3       1 RES1   0.0000
   176 C77       2.6309    1.0833   -3.4691   C.3       1 RES1   0.0000
   177 C78       3.2779    0.3618   -4.6557   C.3       1 RES1   0.0000
   178 C79       4.8053    0.5076   -4.6975   C.3       1 RES1   0.0000
   179 C80       5.5706   -0.1589   -3.5510   C.3       1 RES1   0.0000
   180 C81       5.8833    0.7303   -2.3386   C.3       1 RES1   0.0000
   181 C82       6.3468   -0.1729   -1.1959   C.3       1 RES1   0.0000
   182 C83       6.9414    1.8164   -2.6230   C.3       1 RES1   0.0000
   183 C84       6.3819    3.2268   -2.8488   C.3       1 RES1   0.0000
   184 C85       5.6683    3.7819   -1.6169   C.3       1 RES1   0.0000
   185 C86       5.2209    5.2408   -1.7505   C.3       1 RES1   0.0000
   186 C87       4.6460    5.7198   -0.4165   C.3       1 RES1   0.0000
   187 C88       4.1864    5.4196   -2.8615   C.3       1 RES1   0.0000
   188 H89      -5.2994    0.3810   -9.0792   H         1 RES1   0.0000
   189 H90      -4.8004    0.5604   -7.4028   H         1 RES1   0.0000
   190 H91      -4.8180   -1.0353   -8.1642   H         1 RES1   0.0000
   191 H92      -3.0741    1.2951   -9.0727   H         1 RES1   0.0000
   192 H93      -2.9819   -0.3557   -9.6855   H         1 RES1   0.0000
   193 H94      -2.4577    0.2620   -6.7556   H         1 RES1   0.0000
   194 H95      -1.2156    0.5173   -7.9785   H         1 RES1   0.0000
   195 H96      -0.6866   -1.5833   -7.1709   H         1 RES1   0.0000
   196 H97      -1.5130   -1.9001   -8.6872   H         1 RES1   0.0000
   197 H98      -2.1731   -3.4784   -6.9740   H         1 RES1   0.0000
   198 H99      -3.5661   -2.5380   -7.4864   H         1 RES1   0.0000
   199 H100     -3.6086   -1.2799   -5.4562   H         1 RES1   0.0000
   200 H101     -1.9576   -1.7829   -5.0195   H         1 RES1   0.0000
   201 H102     -2.7511   -4.1299   -4.7804   H         1 RES1   0.0000
   202 H103     -4.3730   -3.6342   -5.2401   H         1 RES1   0.0000
   203 H104     -4.3750   -3.8527   -2.8676   H         1 RES1   0.0000
   204 H105     -4.4731   -2.1330   -3.2287   H         1 RES1   0.0000
   205 H106     -2.3543   -4.8549   -2.5764   H         1 RES1   0.0000
   206 H107     -1.5511   -4.0815   -1.1953   H         1 RES1   0.0000
   207 H108      0.1425   -3.0870   -2.5932   H         1 RES1   0.0000
   208 H109     -0.7236   -3.4936   -4.0733   H         1 RES1   0.0000
   209 H110     -0.3342   -5.8623   -3.7728   H         1 RES1   0.0000
   210 H111      0.2672   -5.6126   -2.1420   H         1 RES1   0.0000
   211 H112      2.1670   -6.0144   -3.5223   H         1 RES1   0.0000
   212 H113      2.1881   -4.3089   -3.0798   H         1 RES1   0.0000
   213 H114      1.1793   -3.7949   -5.3537   H         1 RES1   0.0000
   214 H115      3.8892   -5.1817   -5.2478   H         1 RES1   0.0000
   215 H116      3.5841   -3.4939   -4.8475   H         1 RES1   0.0000
   216 H117      3.3669   -4.0618   -6.5046   H         1 RES1   0.0000
   217 H118      1.1940   -6.7416   -5.5239   H         1 RES1   0.0000
   218 H119      2.0979   -6.0143   -6.8340   H         1 RES1   0.0000
   219 H120      0.1345   -4.6144   -7.4307   H         1 RES1   0.0000
   220 H121     -0.7856   -5.3609   -6.1174   H         1 RES1   0.0000
   221 H122     -0.3094   -7.6148   -7.1820   H         1 RES1   0.0000
   222 H123      0.4404   -6.7662   -8.5298   H         1 RES1   0.0000
   223 H124     -1.7853   -7.5477   -9.0530   H         1 RES1   0.0000
   224 H125     -2.9196   -5.6332   -6.9723   H         1 RES1   0.0000
   225 H126     -2.7692   -7.3837   -6.7603   H         1 RES1   0.0000
   226 H127     -3.8065   -6.7275   -8.0257   H         1 RES1   0.0000
   227 H128     -1.6303   -4.5029   -8.9794   H         1 RES1   0.0000
   228 H129     -2.7569   -5.4512   -9.9469   H         1 RES1   0.0000
   229 H130     -1.0229   -5.5745  -10.2427   H         1 RES1   0.0000
   230 H131     -3.7224   -0.0754   -1.2974   H         1 RES1   0.0000
   231 H132     -3.4581   -0.3036   -3.0477   H         1 RES1   0.0000
   232 H133     -1.4571    1.7779   -3.5729   H         1 RES1   0.0000
   233 H134     -1.4188    0.0311   -3.9134   H         1 RES1   0.0000
   234 H135      1.6830    3.1624   -4.4205   H         1 RES1   0.0000
   235 H136     -0.0299    2.9510   -4.1123   H         1 RES1   0.0000
   236 H137      0.2605    1.0784   -6.0592   H         1 RES1   0.0000
   237 H138      1.6240    2.1063   -6.4903   H         1 RES1   0.0000
   238 H139     -1.2477    3.0407   -6.1638   H         1 RES1   0.0000
   239 H140     -0.4988    2.6396   -7.7019   H         1 RES1   0.0000
   240 H141      0.8401    4.7801   -6.0533   H         1 RES1   0.0000
   241 H142     -0.6858    5.1463   -6.8476   H         1 RES1   0.0000
   242 H143      1.0483    5.8538   -8.2924   H         1 RES1   0.0000
   243 H144      0.2333    4.4782   -9.0287   H         1 RES1   0.0000
   244 H145      2.6114    4.3224   -9.3967   H         1 RES1   0.0000
   245 H146      2.1155    2.9972   -8.3574   H         1 RES1   0.0000
   246 H147      2.9652    4.3000   -6.3661   H         1 RES1   0.0000
   247 H148      3.4628    5.5901   -7.4646   H         1 RES1   0.0000
   248 H149      4.4812    2.7099   -7.5465   H         1 RES1   0.0000
   249 H150      5.3855    4.1025   -6.9430   H         1 RES1   0.0000
   250 H151      4.9684    3.9922   -8.6478   H         1 RES1   0.0000
   251 H152      2.7504    0.4823   -2.5685   H         1 RES1   0.0000
   252 H153      3.1254    2.0504   -3.3420   H         1 RES1   0.0000
   253 H154      2.8900    0.7884   -5.5801   H         1 RES1   0.0000
   254 H155      2.9948   -0.6922   -4.6445   H         1 RES1   0.0000
   255 H156      5.0622    1.5627   -4.7532   H         1 RES1   0.0000
   256 H157      5.1288    0.0578   -5.6366   H         1 RES1   0.0000
   257 H158      6.5178   -0.5293   -3.9406   H         1 RES1   0.0000
   258 H159      5.0089   -1.0326   -3.2105   H         1 RES1   0.0000
   259 H160      4.9606    1.2235   -2.0274   H         1 RES1   0.0000
   260 H161      7.2389   -0.7171   -1.4881   H         1 RES1   0.0000
   261 H162      5.5782   -0.9041   -0.9492   H         1 RES1   0.0000
   262 H163      6.5813    0.4067   -0.3069   H         1 RES1   0.0000
   263 H164      7.5399    1.5314   -3.4895   H         1 RES1   0.0000
   264 H165      7.6225    1.8688   -1.7721   H         1 RES1   0.0000
   265 H166      5.7000    3.2369   -3.7000   H         1 RES1   0.0000
   266 H167      7.2147    3.8884   -3.0937   H         1 RES1   0.0000
   267 H168      6.3354    3.6989   -0.7548   H         1 RES1   0.0000
   268 H169      4.7804    3.1756   -1.4069   H         1 RES1   0.0000
   269 H170      6.0955    5.8516   -1.9904   H         1 RES1   0.0000
   270 H171      3.7552    5.1457   -0.1499   H         1 RES1   0.0000
   271 H172      4.3689    6.7691   -0.4730   H         1 RES1   0.0000
   272 H173      5.3783    5.6056    0.3794   H         1 RES1   0.0000
   273 H174      3.3405    4.7412   -2.7150   H         1 RES1   0.0000
   274 H175      4.6223    5.2236   -3.8373   H         1 RES1   0.0000
   275 H176      3.8109    6.4401   -2.8635   H         1 RES1   0.0000
   276 C89       6.8098   -6.6540    4.4780   C.3       1 RES1   0.0000
   277 C90       6.4804   -5.7984    3.2605   C.3       1 RES1   0.0000
   278 C91       7.0111   -4.3675    3.4111   C.3       1 RES1   0.0000
   279 C92       6.7090   -3.5029    2.1788   C.3       1 RES1   0.0000
   280 C93       6.8621   -1.9837    2.3931   C.3       1 RES1   0.0000
   281 C94       5.5454   -1.1864    2.2713   C.3       1 RES1   0.0000
   282 C95       5.7353    0.2551    2.7572   C.3       1 RES1   0.0000
   283 C96       4.7676    1.3216    2.2083   C.3       1 RES1   0.0000
   284 N5        3.3421    1.0653    2.3621   N.am      1 RES1   0.0000
   285 C97       2.7803    0.9259    3.7029   C.3       1 RES1   0.0000
   286 C98       1.8011    2.0503    4.0534   C.3       1 RES1   0.0000
   287 C99       1.5889    2.1674    5.5666   C.3       1 RES1   0.0000
   288 C100      1.1052    0.8846    6.2364   C.3       1 RES1   0.0000
   289 C101      0.6868    1.1143    7.6946   C.3       1 RES1   0.0000
   290 C102      0.0287   -0.1522    8.2300   C.3       1 RES1   0.0000
   291 C103      1.8914    1.4958    8.5603   C.3       1 RES1   0.0000
   292 C104      1.5083    1.9839    9.9612   C.3       1 RES1   0.0000
   293 C105      0.8971    3.3924    9.9813   C.3       1 RES1   0.0000
   294 C106      1.8881    4.4741   10.4264   C.3       1 RES1   0.0000
   295 C107      3.0621    4.6338    9.4637   C.3       1 RES1   0.0000
   296 C108      1.1595    5.8066   10.5737   C.3       1 RES1   0.0000
   297 C109      2.4642    1.0816    1.3720   C.2       1 RES1   0.0000
   298 O7        1.2694    0.7657    1.5565   O.2       1 RES1   0.0000
   299 C110      2.8491    1.5601   -0.0260   C.3       1 RES1   0.0000
   300 O8        1.6659    1.9010   -0.7331   O.3       1 RES1   0.0000
   301 C111      1.2061    3.2468   -0.5888   C.3       1 RES1   0.0000
   302 C112     -0.3259    3.2010   -0.6336   C.2       1 RES1   0.0000
   303 O9       -0.8581    2.1807   -0.1501   O.2       1 RES1   0.0000
   304 N6       -1.0577    4.1974   -1.1217   N.am      1 RES1   0.0000
   305 C113     -2.4946    4.1017   -0.8587   C.3       1 RES1   0.0000
   306 C114     -2.8735    4.2811    0.6184   C.3       1 RES1   0.0000
   307 C115     -2.4481    5.6180    1.2403   C.3       1 RES1   0.0000
   308 C116     -1.0710    5.5944    1.9041   C.3       1 RES1   0.0000
   309 C117     -0.8496    6.8748    2.7102   C.3       1 RES1   0.0000
   310 C118      0.4843    6.9352    3.4559   C.3       1 RES1   0.0000
   311 C119      0.5974    5.9433    4.6137   C.3       1 RES1   0.0000
   312 C120      1.8930    6.1415    5.3911   C.3       1 RES1   0.0000
   313 C121     -0.5411    5.3907   -1.7953   C.3       1 RES1   0.0000
   314 C122     -1.5117    6.0509   -2.7920   C.3       1 RES1   0.0000
   315 C123     -1.8737    5.1133   -3.9489   C.3       1 RES1   0.0000
   316 C124     -2.9803    5.5689   -4.9138   C.3       1 RES1   0.0000
   317 C125     -4.4257    5.5063   -4.3861   C.3       1 RES1   0.0000
   318 C126     -5.3650    5.1467   -5.5413   C.3       1 RES1   0.0000
   319 C127     -4.8362    6.8379   -3.7415   C.3       1 RES1   0.0000
   320 C128     -6.2056    6.7774   -3.0723   C.3       1 RES1   0.0000
   321 C129     -6.6622    8.0985   -2.4498   C.3       1 RES1   0.0000
   322 C130     -5.8705    8.5416   -1.2070   C.3       1 RES1   0.0000
   323 C131     -6.8116    9.1790   -0.1855   C.3       1 RES1   0.0000
   324 C132     -4.7679    9.5414   -1.5542   C.3       1 RES1   0.0000
   325 H177      6.2811   -7.6008    4.4339   H         1 RES1   0.0000
   326 H178      6.5080   -6.1406    5.3901   H         1 RES1   0.0000
   327 H179      7.8751   -6.8598    4.5384   H         1 RES1   0.0000
   328 H180      5.3914   -5.7706    3.1438   H         1 RES1   0.0000
   329 H181      6.8946   -6.2614    2.3639   H         1 RES1   0.0000
   330 H182      8.0921   -4.3892    3.5753   H         1 RES1   0.0000
   331 H183      6.5598   -3.9434    4.3099   H         1 RES1   0.0000
   332 H184      5.6951   -3.7221    1.8361   H         1 RES1   0.0000
   333 H185      7.3735   -3.8273    1.3759   H         1 RES1   0.0000
   334 H186      7.5715   -1.5905    1.6674   H         1 RES1   0.0000
   335 H187      7.2916   -1.7939    3.3801   H         1 RES1   0.0000
   336 H188      4.7772   -1.6573    2.8818   H         1 RES1   0.0000
   337 H189      5.1946   -1.1969    1.2346   H         1 RES1   0.0000
   338 H190      6.7295    0.5958    2.4609   H         1 RES1   0.0000
   339 H191      5.7233    0.2617    3.8463   H         1 RES1   0.0000
   340 H192      4.9900    1.4525    1.1500   H         1 RES1   0.0000
   341 H193      4.9895    2.2588    2.7284   H         1 RES1   0.0000
   342 H194      3.6068    0.9519    4.4039   H         1 RES1   0.0000
   343 H195      2.2654   -0.0370    3.7643   H         1 RES1   0.0000
   344 H196      0.8419    1.8856    3.5581   H         1 RES1   0.0000
   345 H197      2.2197    2.9972    3.6953   H         1 RES1   0.0000
   346 H198      0.8566    2.9591    5.7516   H         1 RES1   0.0000
   347 H199      2.5265    2.4829    6.0225   H         1 RES1   0.0000
   348 H200      1.8929    0.1323    6.2167   H         1 RES1   0.0000
   349 H201      0.2564    0.4794    5.6745   H         1 RES1   0.0000
   350 H202     -0.0429    1.9317    7.7113   H         1 RES1   0.0000
   351 H203      0.6986   -1.0034    8.1326   H         1 RES1   0.0000
   352 H204     -0.8866   -0.3634    7.6888   H         1 RES1   0.0000
   353 H205     -0.2289   -0.0489    9.2787   H         1 RES1   0.0000
   354 H206      2.4615    2.2848    8.0685   H         1 RES1   0.0000
   355 H207      2.5447    0.6200    8.6506   H         1 RES1   0.0000
   356 H208      2.4045    1.9854   10.5835   H         1 RES1   0.0000
   357 H209      0.8244    1.2639   10.4134   H         1 RES1   0.0000
   358 H210      0.0586    3.4023   10.6789   H         1 RES1   0.0000
   359 H211      0.4989    3.6469    8.9969   H         1 RES1   0.0000
   360 H212      2.2813    4.1786   11.4056   H         1 RES1   0.0000
   361 H213      2.7080    4.9004    8.4666   H         1 RES1   0.0000
   362 H214      3.6528    3.7241    9.4020   H         1 RES1   0.0000
   363 H215      3.7154    5.4317    9.8120   H         1 RES1   0.0000
   364 H216      0.7606    6.1313    9.6129   H         1 RES1   0.0000
   365 H217      1.8389    6.5725   10.9388   H         1 RES1   0.0000
   366 H218      0.3356    5.7209   11.2780   H         1 RES1   0.0000
   367 H219      3.3154    0.7358   -0.5864   H         1 RES1   0.0000
   368 H220      3.5346    2.4147    0.0000   H         1 RES1   0.0000
   369 H221      1.6562    3.8737   -1.3649   H         1 RES1   0.0000
   370 H222      1.4883    3.6565    0.3918   H         1 RES1   0.0000
   371 H223     -2.8427    3.1202   -1.1997   H         1 RES1   0.0000
   372 H224     -3.0065    4.8711   -1.4251   H         1 RES1   0.0000
   373 H225     -2.4707    3.4562    1.2124   H         1 RES1   0.0000
   374 H226     -3.9646    4.2092    0.6517   H         1 RES1   0.0000
   375 H227     -3.1730    5.8808    2.0138   H         1 RES1   0.0000
   376 H228     -2.4849    6.4145    0.4963   H         1 RES1   0.0000
   377 H229     -0.2762    5.4930    1.1600   H         1 RES1   0.0000
   378 H230     -1.0143    4.7319    2.5724   H         1 RES1   0.0000
   379 H231     -1.6614    6.9690    3.4346   H         1 RES1   0.0000
   380 H232     -0.9138    7.7309    2.0350   H         1 RES1   0.0000
   381 H233      0.5924    7.9435    3.8614   H         1 RES1   0.0000
   382 H234      1.3110    6.7751    2.7582   H         1 RES1   0.0000
   383 H235      0.5540    4.9176    4.2336   H         1 RES1   0.0000
   384 H236     -0.2466    6.0846    5.2922   H         1 RES1   0.0000
   385 H237      2.7586    6.0015    4.7477   H         1 RES1   0.0000
   386 H238      1.9593    5.4358    6.2149   H         1 RES1   0.0000
   387 H239      1.9369    7.1457    5.8028   H         1 RES1   0.0000
   388 H240      0.3514    5.1038   -2.3537   H         1 RES1   0.0000
   389 H241     -0.2440    6.1317   -1.0461   H         1 RES1   0.0000
   390 H242     -0.9927    6.9309   -3.1833   H         1 RES1   0.0000
   391 H243     -2.4074    6.4238   -2.2972   H         1 RES1   0.0000
   392 H244     -2.1648    4.1396   -3.5419   H         1 RES1   0.0000
   393 H245     -0.9699    4.9825   -4.5433   H         1 RES1   0.0000
   394 H246     -2.9142    4.9038   -5.7781   H         1 RES1   0.0000
   395 H247     -2.7704    6.5753   -5.2747   H         1 RES1   0.0000
   396 H248     -4.4918    4.7132   -3.6262   H         1 RES1   0.0000
   397 H249     -5.3851    5.9523   -6.2731   H         1 RES1   0.0000
   398 H250     -6.3770    4.9849   -5.1866   H         1 RES1   0.0000
   399 H251     -5.0394    4.2339   -6.0369   H         1 RES1   0.0000
   400 H252     -4.8432    7.6126   -4.5104   H         1 RES1   0.0000
   401 H253     -4.0964    7.1285   -2.9964   H         1 RES1   0.0000
   402 H254     -6.1961    6.0051   -2.2957   H         1 RES1   0.0000
   403 H255     -6.9425    6.4907   -3.8206   H         1 RES1   0.0000
   404 H256     -7.7091    7.9691   -2.1651   H         1 RES1   0.0000
   405 H257     -6.6334    8.8884   -3.2037   H         1 RES1   0.0000
   406 H258     -5.4148    7.6555   -0.7459   H         1 RES1   0.0000
   407 H259     -7.3047   10.0422   -0.6266   H         1 RES1   0.0000
   408 H260     -6.2574    9.5121    0.6893   H         1 RES1   0.0000
   409 H261     -7.5742    8.4740    0.1392   H         1 RES1   0.0000
   410 H262     -5.2102   10.4639   -1.9205   H         1 RES1   0.0000
   411 H263     -4.0952    9.1600   -2.3195   H         1 RES1   0.0000
   412 H264     -4.1834    9.7797   -0.6673   H         1 RES1   0.0000
@<TRIPOS>BOND
     1     1    24    1
     2     1    26    1
     3     1    29    1
     4     1   161    1
     5     1   163    1
     6     1   166    1
     7     1   298    1
     8     1   300    1
     9     1   303    1
    10     2     3    1
    11     2    51    1
    12     2    52    1
    13     2    53    1
    14     3     4    1
    15     3    54    1
    16     3    55    1
    17     4     5    1
    18     4    56    1
    19     4    57    1
    20     5     6    1
    21     5    58    1
    22     5    59    1
    23     6     7    1
    24     6    60    1
    25     6    61    1
    26     7     8    1
    27     7    62    1
    28     7    63    1
    29     8     9    1
    30     8    64    1
    31     8    65    1
    32     9    10    1
    33     9    66    1
    34     9    67    1
    35    10    11    1
    36    10    23    1
    37    11    12    1
    38    11    68    1
    39    11    69    1
    40    12    13    1
    41    12    70    1
    42    12    71    1
    43    13    14    1
    44    13    72    1
    45    13    73    1
    46    14    15    1
    47    14    74    1
    48    14    75    1
    49    15    16    1
    50    15    17    1
    51    15    76    1
    52    16    77    1
    53    16    78    1
    54    16    79    1
    55    17    18    1
    56    17    80    1
    57    17    81    1
    58    18    19    1
    59    18    82    1
    60    18    83    1
    61    19    20    1
    62    19    84    1
    63    19    85    1
    64    20    21    1
    65    20    22    1
    66    20    86    1
    67    21    87    1
    68    21    88    1
    69    21    89    1
    70    22    90    1
    71    22    91    1
    72    22    92    1
    73    23    24    2
    74    23    25    1
    75    25    26    1
    76    25    93    1
    77    25    94    1
    78    26    27    1
    79    27    28    1
    80    27    95    1
    81    27    96    1
    82    28    29    2
    83    28    30    1
    84    30    31    1
    85    30    39    1
    86    31    32    1
    87    31    97    1
    88    31    98    1
    89    32    33    1
    90    32    99    1
    91    32   100    1
    92    33    34    1
    93    33   101    1
    94    33   102    1
    95    34    35    1
    96    34   103    1
    97    34   104    1
    98    35    36    1
    99    35   105    1
   100    35   106    1
   101    36    37    1
   102    36   107    1
   103    36   108    1
   104    37    38    1
   105    37   109    1
   106    37   110    1
   107    38   111    1
   108    38   112    1
   109    38   113    1
   110    39    40    1
   111    39   114    1
   112    39   115    1
   113    40    41    1
   114    40   116    1
   115    40   117    1
   116    41    42    1
   117    41   118    1
   118    41   119    1
   119    42    43    1
   120    42   120    1
   121    42   121    1
   122    43    44    1
   123    43    45    1
   124    43   122    1
   125    44   123    1
   126    44   124    1
   127    44   125    1
   128    45    46    1
   129    45   126    1
   130    45   127    1
   131    46    47    1
   132    46   128    1
   133    46   129    1
   134    47    48    1
   135    47   130    1
   136    47   131    1
   137    48    49    1
   138    48    50    1
   139    48   132    1
   140    49   133    1
   141    49   134    1
   142    49   135    1
   143    50   136    1
   144    50   137    1
   145    50   138    1
   146   139   140    1
   147   139   188    1
   148   139   189    1
   149   139   190    1
   150   140   141    1
   151   140   191    1
   152   140   192    1
   153   141   142    1
   154   141   193    1
   155   141   194    1
   156   142   143    1
   157   142   195    1
   158   142   196    1
   159   143   144    1
   160   143   197    1
   161   143   198    1
   162   144   145    1
   163   144   199    1
   164   144   200    1
   165   145   146    1
   166   145   201    1
   167   145   202    1
   168   146   147    1
   169   146   203    1
   170   146   204    1
   171   147   148    1
   172   147   160    1
   173   148   149    1
   174   148   205    1
   175   148   206    1
   176   149   150    1
   177   149   207    1
   178   149   208    1
   179   150   151    1
   180   150   209    1
   181   150   210    1
   182   151   152    1
   183   151   211    1
   184   151   212    1
   185   152   153    1
   186   152   154    1
   187   152   213    1
   188   153   214    1
   189   153   215    1
   190   153   216    1
   191   154   155    1
   192   154   217    1
   193   154   218    1
   194   155   156    1
   195   155   219    1
   196   155   220    1
   197   156   157    1
   198   156   221    1
   199   156   222    1
   200   157   158    1
   201   157   159    1
   202   157   223    1
   203   158   224    1
   204   158   225    1
   205   158   226    1
   206   159   227    1
   207   159   228    1
   208   159   229    1
   209   160   161    2
   210   160   162    1
   211   162   163    1
   212   162   230    1
   213   162   231    1
   214   163   164    1
   215   164   165    1
   216   164   232    1
   217   164   233    1
   218   165   166    2
   219   165   167    1
   220   167   168    1
   221   167   176    1
   222   168   169    1
   223   168   234    1
   224   168   235    1
   225   169   170    1
   226   169   236    1
   227   169   237    1
   228   170   171    1
   229   170   238    1
   230   170   239    1
   231   171   172    1
   232   171   240    1
   233   171   241    1
   234   172   173    1
   235   172   242    1
   236   172   243    1
   237   173   174    1
   238   173   244    1
   239   173   245    1
   240   174   175    1
   241   174   246    1
   242   174   247    1
   243   175   248    1
   244   175   249    1
   245   175   250    1
   246   176   177    1
   247   176   251    1
   248   176   252    1
   249   177   178    1
   250   177   253    1
   251   177   254    1
   252   178   179    1
   253   178   255    1
   254   178   256    1
   255   179   180    1
   256   179   257    1
   257   179   258    1
   258   180   181    1
   259   180   182    1
   260   180   259    1
   261   181   260    1
   262   181   261    1
   263   181   262    1
   264   182   183    1
   265   182   263    1
   266   182   264    1
   267   183   184    1
   268   183   265    1
   269   183   266    1
   270   184   185    1
   271   184   267    1
   272   184   268    1
   273   185   186    1
   274   185   187    1
   275   185   269    1
   276   186   270    1
   277   186   271    1
   278   186   272    1
   279   187   273    1
   280   187   274    1
   281   187   275    1
   282   276   277    1
   283   276   325    1
   284   276   326    1
   285   276   327    1
   286   277   278    1
   287   277   328    1
   288   277   329    1
   289   278   279    1
   290   278   330    1
   291   278   331    1
   292   279   280    1
   293   279   332    1
   294   279   333    1
   295   280   281    1
   296   280   334    1
   297   280   335    1
   298   281   282    1
   299   281   336    1
   300   281   337    1
   301   282   283    1
   302   282   338    1
   303   282   339    1
   304   283   284    1
   305   283   340    1
   306   283   341    1
   307   284   285    1
   308   284   297    1
   309   285   286    1
   310   285   342    1
   311   285   343    1
   312   286   287    1
   313   286   344    1
   314   286   345    1
   315   287   288    1
   316   287   346    1
   317   287   347    1
   318   288   289    1
   319   288   348    1
   320   288   349    1
   321   289   290    1
   322   289   291    1
   323   289   350    1
   324   290   351    1
   325   290   352    1
   326   290   353    1
   327   291   292    1
   328   291   354    1
   329   291   355    1
   330   292   293    1
   331   292   356    1
   332   292   357    1
   333   293   294    1
   334   293   358    1
   335   293   359    1
   336   294   295    1
   337   294   296    1
   338   294   360    1
   339   295   361    1
   340   295   362    1
   341   295   363    1
   342   296   364    1
   343   296   365    1
   344   296   366    1
   345   297   298    2
   346   297   299    1
   347   299   300    1
   348   299   367    1
   349   299   368    1
   350   300   301    1
   351   301   302    1
   352   301   369    1
   353   301   370    1
   354   302   303    2
   355   302   304    1
   356   304   305    1
   357   304   313    1
   358   305   306    1
   359   305   371    1
   360   305   372    1
   361   306   307    1
   362   306   373    1
   363   306   374    1
   364   307   308    1
   365   307   375    1
   366   307   376    1
   367   308   309    1
   368   308   377    1
   369   308   378    1
   370   309   310    1
   371   309   379    1
   372   309   380    1
   373   310   311    1
   374   310   381    1
   375   310   382    1
   376   311   312    1
   377   311   383    1
   378   311   384    1
   379   312   385    1
   380   312   386    1
   381   312   387    1
   382   313   314    1
   383   313   388    1
   384   313   389    1
   385   314   315    1
   386   314   390    1
   387   314   391    1
   388   315   316    1
   389   315   392    1
   390   315   393    1
   391   316   317    1
   392   316   394    1
   393   316   395    1
   394   317   318    1
   395   317   319    1
   396   317   396    1
   397   318   397    1
   398   318   398    1
   399   318   399    1
   400   319   320    1
   401   319   400    1
   402   319   401    1
   403   320   321    1
   404   320   402    1
   405   320   403    1
   406   321   322    1
   407   321   404    1
   408   321   405    1
   409   322   323    1
   410   322   324    1
   411   322   406    1
   412   323   407    1
   413   323   408    1
   414   323   409    1
   415   324   410    1
   416   324   411    1
   417   324   412    1
@<TRIPOS>SUBSTRUCTURE
     1 RES1      412 GROUP             0 ****  ****    0  
