@<TRIPOS>MOLECULE
tri_tri_mer_capped_0_nunpairedes_0_charge_3 Charge: 3 Unpaired_Electrons: 3 XTB_Unpaired_Electrons: 0 XTB_Charge: 3
   322   327     1     0     0
SMALL
NoCharges
****
Generated from Architector

@<TRIPOS>ATOM
     1 Nd1       0.4158    0.1348    0.0137   Nd        1 RES1   0.0000
     2 C1       -3.2882    4.1254   -3.3831   C.3       1 RES1   0.0000
     3 C2       -3.9344    2.7435   -3.3934   C.3       1 RES1   0.0000
     4 C3       -5.2797    2.7228   -2.6516   C.3       1 RES1   0.0000
     5 C4       -5.1088    2.4280   -1.1601   C.3       1 RES1   0.0000
     6 C5       -6.3849    2.5628   -0.3251   C.3       1 RES1   0.0000
     7 C6       -6.3087    2.0202    1.1116   C.3       1 RES1   0.0000
     8 C7       -5.6170    2.9394    2.1366   C.3       1 RES1   0.0000
     9 C8       -6.5258    4.1382    2.4607   C.3       1 RES1   0.0000
    10 C9       -5.8216    5.3798    3.0309   C.3       1 RES1   0.0000
    11 C10      -6.4702    6.6985    2.5905   C.3       1 RES1   0.0000
    12 C11      -6.1151    7.1202    1.1675   C.3       1 RES1   0.0000
    13 C12      -5.1791    2.1298    3.3776   C.3       1 RES1   0.0000
    14 C13      -4.2145    2.8804    4.3119   C.3       1 RES1   0.0000
    15 C14      -3.1430    1.9954    4.9962   C.3       1 RES1   0.0000
    16 N1       -1.8835    1.9883    4.2539   N.am      1 RES1   0.0000
    17 C15      -1.1469    3.2487    4.2657   C.3       1 RES1   0.0000
    18 C16      -1.3028    0.9560    3.6227   C.2       1 RES1   0.0000
    19 O1       -0.3718    1.1177    2.8251   O.2       1 RES1   0.0000
    20 C17      -1.7619   -0.4759    3.9248   C.3       1 RES1   0.0000
    21 O2       -1.1931   -1.3179    2.9382   O.3       1 RES1   0.0000
    22 C18      -0.2207   -2.2649    3.3187   C.3       1 RES1   0.0000
    23 C19       0.6734   -2.4809    2.1073   C.2       1 RES1   0.0000
    24 O3        0.4796   -1.8162    1.0645   O.2       1 RES1   0.0000
    25 N2        1.6585   -3.3605    2.1918   N.am      1 RES1   0.0000
    26 C20       1.9450   -4.1288    3.3837   C.3       1 RES1   0.0000
    27 C21       2.4986   -3.5476    1.0126   C.3       1 RES1   0.0000
    28 C22       1.7992   -4.3251   -0.1090   C.3       1 RES1   0.0000
    29 C23       1.0440   -5.5656    0.3857   C.3       1 RES1   0.0000
    30 C24      -0.4035   -5.2533    0.8083   C.3       1 RES1   0.0000
    31 C25      -1.3391   -5.0963   -0.4024   C.3       1 RES1   0.0000
    32 C26      -1.5730   -6.3453   -1.2479   C.3       1 RES1   0.0000
    33 C27      -2.7149   -6.1703   -2.2470   C.3       1 RES1   0.0000
    34 C28      -2.4051   -5.1764   -3.3592   C.3       1 RES1   0.0000
    35 C29      -0.9226   -6.2557    1.8502   C.3       1 RES1   0.0000
    36 C30      -2.1012   -5.6825    2.6324   C.3       1 RES1   0.0000
    37 C31      -2.7349   -6.6819    3.5929   C.3       1 RES1   0.0000
    38 C32      -3.7987   -6.0395    4.4861   C.3       1 RES1   0.0000
    39 C33      -4.9199   -5.3086    3.7443   C.3       1 RES1   0.0000
    40 C34      -5.6570   -6.1697    2.7302   C.3       1 RES1   0.0000
    41 H1       -3.9141    4.8245   -3.9317   H         1 RES1   0.0000
    42 H2       -2.3082    4.1027   -3.8564   H         1 RES1   0.0000
    43 H3       -3.1654    4.4993   -2.3686   H         1 RES1   0.0000
    44 H4       -3.2493    2.0097   -2.9530   H         1 RES1   0.0000
    45 H5       -4.0985    2.4535   -4.4329   H         1 RES1   0.0000
    46 H6       -5.9217    1.9657   -3.0951   H         1 RES1   0.0000
    47 H7       -5.7682    3.6891   -2.7818   H         1 RES1   0.0000
    48 H8       -4.3614    3.1303   -0.7936   H         1 RES1   0.0000
    49 H9       -4.7217    1.4059   -1.0703   H         1 RES1   0.0000
    50 H10      -7.1768    2.0085   -0.8254   H         1 RES1   0.0000
    51 H11      -6.6957    3.6081   -0.3181   H         1 RES1   0.0000
    52 H12      -5.8122    1.0443    1.0927   H         1 RES1   0.0000
    53 H13      -7.3280    1.8307    1.4463   H         1 RES1   0.0000
    54 H14      -4.7142    3.3275    1.6675   H         1 RES1   0.0000
    55 H15      -7.3174    3.8315    3.1442   H         1 RES1   0.0000
    56 H16      -7.0211    4.4367    1.5374   H         1 RES1   0.0000
    57 H17      -4.7754    5.4121    2.7210   H         1 RES1   0.0000
    58 H18      -5.8410    5.3428    4.1208   H         1 RES1   0.0000
    59 H19      -6.1413    7.4912    3.2655   H         1 RES1   0.0000
    60 H20      -7.5525    6.6172    2.6851   H         1 RES1   0.0000
    61 H21      -5.0484    7.3198    1.0756   H         1 RES1   0.0000
    62 H22      -6.6462    8.0346    0.9154   H         1 RES1   0.0000
    63 H23      -6.3886    6.3599    0.4390   H         1 RES1   0.0000
    64 H24      -4.6860    1.2135    3.0234   H         1 RES1   0.0000
    65 H25      -6.0606    1.8287    3.9453   H         1 RES1   0.0000
    66 H26      -4.7886    3.3946    5.0840   H         1 RES1   0.0000
    67 H27      -3.6955    3.6465    3.7377   H         1 RES1   0.0000
    68 H28      -3.5133    0.9791    5.1095   H         1 RES1   0.0000
    69 H29      -2.9489    2.3938    5.9982   H         1 RES1   0.0000
    70 H30      -1.6137    3.9365    4.9629   H         1 RES1   0.0000
    71 H31      -1.1194    3.7054    3.2747   H         1 RES1   0.0000
    72 H32      -0.1257    3.0628    4.5974   H         1 RES1   0.0000
    73 H33      -2.8512   -0.5877    3.8849   H         1 RES1   0.0000
    74 H34      -1.4216   -0.7352    4.9325   H         1 RES1   0.0000
    75 H35      -0.7150   -3.2106    3.5982   H         1 RES1   0.0000
    76 H36       0.3816   -1.9339    4.1707   H         1 RES1   0.0000
    77 H37       2.2136   -3.4656    4.2074   H         1 RES1   0.0000
    78 H38       2.7894   -4.7832    3.1866   H         1 RES1   0.0000
    79 H39       1.1057   -4.7587    3.6799   H         1 RES1   0.0000
    80 H40       3.3968   -4.0771    1.3210   H         1 RES1   0.0000
    81 H41       2.7825   -2.5589    0.6284   H         1 RES1   0.0000
    82 H42       2.5715   -4.6231   -0.8217   H         1 RES1   0.0000
    83 H43       1.1104   -3.6490   -0.6175   H         1 RES1   0.0000
    84 H44       1.5887   -5.9983    1.2274   H         1 RES1   0.0000
    85 H45       1.0280   -6.3195   -0.4009   H         1 RES1   0.0000
    86 H46      -0.4132   -4.2693    1.2930   H         1 RES1   0.0000
    87 H47      -0.9336   -4.2944   -1.0259   H         1 RES1   0.0000
    88 H48      -2.2992   -4.7420   -0.0217   H         1 RES1   0.0000
    89 H49      -0.6664   -6.6110   -1.7908   H         1 RES1   0.0000
    90 H50      -1.8237   -7.1807   -0.5957   H         1 RES1   0.0000
    91 H51      -3.6146   -5.8622   -1.7103   H         1 RES1   0.0000
    92 H52      -2.9249   -7.1400   -2.6957   H         1 RES1   0.0000
    93 H53      -2.1538   -4.1974   -2.9566   H         1 RES1   0.0000
    94 H54      -3.2629   -5.0704   -4.0180   H         1 RES1   0.0000
    95 H55      -1.5694   -5.5331   -3.9551   H         1 RES1   0.0000
    96 H56      -0.1239   -6.5080    2.5536   H         1 RES1   0.0000
    97 H57      -1.2200   -7.1869    1.3723   H         1 RES1   0.0000
    98 H58      -2.8624   -5.3369    1.9344   H         1 RES1   0.0000
    99 H59      -1.7611   -4.8108    3.2033   H         1 RES1   0.0000
   100 H60      -1.9611   -7.1136    4.2326   H         1 RES1   0.0000
   101 H61      -3.1733   -7.4970    3.0180   H         1 RES1   0.0000
   102 H62      -3.3111   -5.3277    5.1603   H         1 RES1   0.0000
   103 H63      -4.2359   -6.8209    5.1073   H         1 RES1   0.0000
   104 H64      -4.5160   -4.4215    3.2486   H         1 RES1   0.0000
   105 H65      -5.6332   -4.9600    4.4910   H         1 RES1   0.0000
   106 H66      -5.0222   -6.4311    1.8899   H         1 RES1   0.0000
   107 H67      -6.5254   -5.6418    2.3478   H         1 RES1   0.0000
   108 H68      -6.0040   -7.0867    3.1914   H         1 RES1   0.0000
   109 C35       4.6000   -1.6362   -5.8974   C.3       1 RES1   0.0000
   110 C36       4.1356   -0.2657   -6.3748   C.3       1 RES1   0.0000
   111 C37       3.1635   -0.3181   -7.5532   C.3       1 RES1   0.0000
   112 C38       1.8146   -0.9425   -7.1972   C.3       1 RES1   0.0000
   113 C39       0.7337   -0.7030   -8.2584   C.3       1 RES1   0.0000
   114 C40       0.2817    0.7537   -8.4072   C.3       1 RES1   0.0000
   115 C41      -0.8521    1.3288   -7.5338   C.3       1 RES1   0.0000
   116 C42      -0.8969    2.8457   -7.8072   C.3       1 RES1   0.0000
   117 C43       0.2047    3.6144   -7.0761   C.3       1 RES1   0.0000
   118 C44       0.4865    4.9866   -7.6806   C.3       1 RES1   0.0000
   119 C45       1.6199    5.6765   -6.9315   C.3       1 RES1   0.0000
   120 C46      -0.7772    1.0492   -6.0180   C.3       1 RES1   0.0000
   121 C47      -1.5139   -0.2393   -5.6528   C.3       1 RES1   0.0000
   122 C48      -1.3242   -0.6675   -4.1999   C.3       1 RES1   0.0000
   123 N3       -0.0995   -1.4276   -4.0040   N.am      1 RES1   0.0000
   124 C49       0.0177   -2.6693   -4.7427   C.3       1 RES1   0.0000
   125 C50       0.7545   -1.0535   -3.0690   C.2       1 RES1   0.0000
   126 O4        0.5104   -0.1509   -2.2387   O.2       1 RES1   0.0000
   127 C51       2.1431   -1.6860   -3.0413   C.3       1 RES1   0.0000
   128 O5        2.6903   -1.4349   -1.7623   O.3       1 RES1   0.0000
   129 C52       4.0757   -1.1367   -1.6996   C.3       1 RES1   0.0000
   130 C53       4.2058   -0.0562   -0.6162   C.2       1 RES1   0.0000
   131 O6        3.1373    0.4143   -0.1857   O.2       1 RES1   0.0000
   132 N4        5.4290    0.3094   -0.2183   N.am      1 RES1   0.0000
   133 C54       6.6241   -0.3032   -0.7757   C.3       1 RES1   0.0000
   134 C55       5.7029    1.5994    0.4524   C.3       1 RES1   0.0000
   135 C56       6.3115    1.5861    1.8764   C.3       1 RES1   0.0000
   136 C57       6.3556    3.0074    2.5251   C.3       1 RES1   0.0000
   137 C58       5.4249    3.3436    3.7282   C.3       1 RES1   0.0000
   138 C59       5.5102    4.8598    4.0060   C.3       1 RES1   0.0000
   139 C60       4.6022    5.3643    5.1344   C.3       1 RES1   0.0000
   140 C61       3.0885    5.2974    4.8956   C.3       1 RES1   0.0000
   141 C62       2.5754    6.4272    4.0107   C.3       1 RES1   0.0000
   142 C63       5.6651    2.4915    4.9966   C.3       1 RES1   0.0000
   143 C64       4.3727    2.0294    5.7016   C.3       1 RES1   0.0000
   144 C65       4.6263    1.2325    6.9874   C.3       1 RES1   0.0000
   145 C66       3.5573    0.1701    7.2851   C.3       1 RES1   0.0000
   146 C67       2.1722    0.6810    7.7027   C.3       1 RES1   0.0000
   147 C68       1.1764    0.9085    6.5658   C.3       1 RES1   0.0000
   148 H69       5.3171   -1.5357   -5.0846   H         1 RES1   0.0000
   149 H70       5.0889   -2.1638   -6.7097   H         1 RES1   0.0000
   150 H71       3.7703   -2.2499   -5.5532   H         1 RES1   0.0000
   151 H72       5.0110    0.3052   -6.6844   H         1 RES1   0.0000
   152 H73       3.6684    0.2854   -5.5503   H         1 RES1   0.0000
   153 H74       3.6130   -0.8793   -8.3720   H         1 RES1   0.0000
   154 H75       3.0119    0.7029   -7.9031   H         1 RES1   0.0000
   155 H76       1.4837   -0.5458   -6.2353   H         1 RES1   0.0000
   156 H77       1.9563   -2.0218   -7.0962   H         1 RES1   0.0000
   157 H78      -0.1218   -1.3564   -8.0759   H         1 RES1   0.0000
   158 H79       1.1482   -1.0051   -9.2213   H         1 RES1   0.0000
   159 H80      -0.0512    0.8811   -9.4393   H         1 RES1   0.0000
   160 H81       1.1621    1.3835   -8.2929   H         1 RES1   0.0000
   161 H82      -1.7992    0.9048   -7.8863   H         1 RES1   0.0000
   162 H83      -1.8702    3.2501   -7.5204   H         1 RES1   0.0000
   163 H84      -0.7928    3.0034   -8.8826   H         1 RES1   0.0000
   164 H85       1.1328    3.0396   -7.0974   H         1 RES1   0.0000
   165 H86      -0.0755    3.7446   -6.0287   H         1 RES1   0.0000
   166 H87      -0.4133    5.6026   -7.6385   H         1 RES1   0.0000
   167 H88       0.7611    4.8730   -8.7308   H         1 RES1   0.0000
   168 H89       1.3593    5.8032   -5.8819   H         1 RES1   0.0000
   169 H90       1.8258    6.6562   -7.3514   H         1 RES1   0.0000
   170 H91       2.5292    5.0805   -6.9922   H         1 RES1   0.0000
   171 H92      -1.2702    1.8666   -5.4847   H         1 RES1   0.0000
   172 H93       0.2612    1.0211   -5.6838   H         1 RES1   0.0000
   173 H94      -1.1978   -1.0408   -6.3114   H         1 RES1   0.0000
   174 H95      -2.5787   -0.0822   -5.8278   H         1 RES1   0.0000
   175 H96      -2.1537   -1.2925   -3.8679   H         1 RES1   0.0000
   176 H97      -1.2716    0.2055   -3.5475   H         1 RES1   0.0000
   177 H98      -0.9389   -2.8747   -5.2141   H         1 RES1   0.0000
   178 H99       0.2483   -3.4942   -4.0687   H         1 RES1   0.0000
   179 H100      0.7851   -2.6180   -5.5131   H         1 RES1   0.0000
   180 H101      2.7327   -1.2032   -3.8348   H         1 RES1   0.0000
   181 H102      2.1331   -2.7597   -3.2428   H         1 RES1   0.0000
   182 H103      4.4546   -0.7304   -2.6501   H         1 RES1   0.0000
   183 H104      4.6459   -2.0415   -1.4579   H         1 RES1   0.0000
   184 H105      6.5310   -1.3816   -0.8809   H         1 RES1   0.0000
   185 H106      7.4450   -0.0998   -0.0936   H         1 RES1   0.0000
   186 H107      6.8645    0.1249   -1.7525   H         1 RES1   0.0000
   187 H108      4.7696    2.1499    0.4508   H         1 RES1   0.0000
   188 H109      6.4072    2.1107   -0.2072   H         1 RES1   0.0000
   189 H110      7.3325    1.2213    1.8053   H         1 RES1   0.0000
   190 H111      5.7861    0.9024    2.5332   H         1 RES1   0.0000
   191 H112      6.1410    3.7382    1.7448   H         1 RES1   0.0000
   192 H113      7.3834    3.1862    2.8384   H         1 RES1   0.0000
   193 H114      4.3966    3.1868    3.4207   H         1 RES1   0.0000
   194 H115      5.2672    5.3939    3.0847   H         1 RES1   0.0000
   195 H116      6.5346    5.1317    4.2637   H         1 RES1   0.0000
   196 H117      4.8541    6.4096    5.3243   H         1 RES1   0.0000
   197 H118      4.8446    4.8031    6.0362   H         1 RES1   0.0000
   198 H119      2.5979    5.3851    5.8671   H         1 RES1   0.0000
   199 H120      2.7974    4.3311    4.4752   H         1 RES1   0.0000
   200 H121      2.6914    7.3798    4.5184   H         1 RES1   0.0000
   201 H122      1.5178    6.2975    3.7849   H         1 RES1   0.0000
   202 H123      3.1313    6.4779    3.0786   H         1 RES1   0.0000
   203 H124      6.2630    3.0546    5.7128   H         1 RES1   0.0000
   204 H125      6.2566    1.6100    4.7373   H         1 RES1   0.0000
   205 H126      3.7952    1.3798    5.0516   H         1 RES1   0.0000
   206 H127      3.7442    2.8879    5.9303   H         1 RES1   0.0000
   207 H128      4.7151    1.9137    7.8342   H         1 RES1   0.0000
   208 H129      5.5798    0.7067    6.8969   H         1 RES1   0.0000
   209 H130      3.9402   -0.4472    8.1001   H         1 RES1   0.0000
   210 H131      3.4522   -0.4838    6.4164   H         1 RES1   0.0000
   211 H132      2.2860    1.6070    8.2648   H         1 RES1   0.0000
   212 H133      1.7356   -0.0592    8.3760   H         1 RES1   0.0000
   213 H134      1.5267    1.6668    5.8688   H         1 RES1   0.0000
   214 H135      0.2235    1.2361    6.9827   H         1 RES1   0.0000
   215 H136      1.0017   -0.0185    6.0158   H         1 RES1   0.0000
   216 C69     -10.4286    1.8182    2.2637   C.3       1 RES1   0.0000
   217 C70     -10.8124    1.7219    0.7920   C.3       1 RES1   0.0000
   218 C71     -10.6650    0.3185    0.1952   C.3       1 RES1   0.0000
   219 C72      -9.2091   -0.1077   -0.0015   C.3       1 RES1   0.0000
   220 C73      -9.0494   -1.4305   -0.7628   C.3       1 RES1   0.0000
   221 C74      -9.2154   -1.3855   -2.2895   C.3       1 RES1   0.0000
   222 C75      -8.0343   -0.9671   -3.2129   C.3       1 RES1   0.0000
   223 C76      -8.3768    0.2984   -4.0251   C.3       1 RES1   0.0000
   224 C77      -8.7167    1.5422   -3.2115   C.3       1 RES1   0.0000
   225 C78      -8.7251    2.8116   -4.0614   C.3       1 RES1   0.0000
   226 C79      -8.9427    4.0582   -3.2088   C.3       1 RES1   0.0000
   227 C80      -6.6296   -0.8964   -2.5699   C.3       1 RES1   0.0000
   228 C81      -5.9984   -2.2885   -2.4532   C.3       1 RES1   0.0000
   229 C82      -4.5121   -2.3400   -2.0764   C.3       1 RES1   0.0000
   230 N5       -4.1835   -1.8712   -0.7324   N.am      1 RES1   0.0000
   231 C83      -5.0831   -2.2845    0.3325   C.3       1 RES1   0.0000
   232 C84      -3.0824   -1.1627   -0.4860   C.2       1 RES1   0.0000
   233 O7       -2.1209   -0.9841   -1.2431   O.2       1 RES1   0.0000
   234 C85      -2.9948   -0.5261    0.8967   C.3       1 RES1   0.0000
   235 O8       -2.0092    0.5005    0.8712   O.3       1 RES1   0.0000
   236 C86      -2.5241    1.8245    0.8868   C.3       1 RES1   0.0000
   237 C87      -1.5187    2.7206    0.1840   C.2       1 RES1   0.0000
   238 O9       -0.5036    2.1862   -0.3157   O.2       1 RES1   0.0000
   239 N6       -1.7221    4.0299    0.1326   N.am      1 RES1   0.0000
   240 C88      -2.8056    4.7432    0.7736   C.3       1 RES1   0.0000
   241 C89      -0.6347    4.8787   -0.3239   C.3       1 RES1   0.0000
   242 C90       0.2750    5.1939    0.8713   C.3       1 RES1   0.0000
   243 C91       1.7167    5.3260    0.4067   C.3       1 RES1   0.0000
   244 C92       2.3296    3.9327    0.1675   C.3       1 RES1   0.0000
   245 C93       3.4389    4.0766   -0.8946   C.3       1 RES1   0.0000
   246 C94       3.5322    2.9793   -1.9628   C.3       1 RES1   0.0000
   247 C95       2.2122    2.5092   -2.5894   C.3       1 RES1   0.0000
   248 C96       1.4884    3.5881   -3.3948   C.3       1 RES1   0.0000
   249 C97       2.7630    3.3537    1.5390   C.3       1 RES1   0.0000
   250 C98       2.1937    1.9890    2.0288   C.3       1 RES1   0.0000
   251 C99       3.2813    1.0188    2.5159   C.3       1 RES1   0.0000
   252 C100      2.8540   -0.3119    3.1305   C.3       1 RES1   0.0000
   253 C101      4.0456   -1.0742    3.7562   C.3       1 RES1   0.0000
   254 C102      4.9985   -1.7648    2.7793   C.3       1 RES1   0.0000
   255 H137    -10.6690    2.8080    2.6432   H         1 RES1   0.0000
   256 H138    -10.9794    1.0860    2.8469   H         1 RES1   0.0000
   257 H139     -9.3650    1.6479    2.4170   H         1 RES1   0.0000
   258 H140    -11.8564    2.0223    0.6941   H         1 RES1   0.0000
   259 H141    -10.2155    2.4312    0.2132   H         1 RES1   0.0000
   260 H142    -11.1680   -0.4017    0.8454   H         1 RES1   0.0000
   261 H143    -11.1766    0.3032   -0.7687   H         1 RES1   0.0000
   262 H144     -8.6817    0.6824   -0.5323   H         1 RES1   0.0000
   263 H145     -8.7489   -0.2206    0.9859   H         1 RES1   0.0000
   264 H146     -8.0864   -1.8727   -0.5034   H         1 RES1   0.0000
   265 H147     -9.8133   -2.1121   -0.3840   H         1 RES1   0.0000
   266 H148     -9.5019   -2.3953   -2.5887   H         1 RES1   0.0000
   267 H149    -10.0728   -0.7496   -2.5092   H         1 RES1   0.0000
   268 H150     -7.9537   -1.7551   -3.9717   H         1 RES1   0.0000
   269 H151     -7.5344    0.5285   -4.6842   H         1 RES1   0.0000
   270 H152     -9.2240    0.0672   -4.6730   H         1 RES1   0.0000
   271 H153     -9.6921    1.4335   -2.7377   H         1 RES1   0.0000
   272 H154     -7.9770    1.6657   -2.4232   H         1 RES1   0.0000
   273 H155     -7.7753    2.9015   -4.5963   H         1 RES1   0.0000
   274 H156     -9.5160    2.7434   -4.8090   H         1 RES1   0.0000
   275 H157     -8.1556    4.1554   -2.4607   H         1 RES1   0.0000
   276 H158     -8.9371    4.9530   -3.8278   H         1 RES1   0.0000
   277 H159     -9.8984    4.0046   -2.6918   H         1 RES1   0.0000
   278 H160     -5.9935   -0.2994   -3.2280   H         1 RES1   0.0000
   279 H161     -6.6672   -0.4002   -1.6000   H         1 RES1   0.0000
   280 H162     -6.5893   -2.8974   -1.7711   H         1 RES1   0.0000
   281 H163     -6.0639   -2.7707   -3.4311   H         1 RES1   0.0000
   282 H164     -4.1754   -3.3761   -2.1812   H         1 RES1   0.0000
   283 H165     -3.9485   -1.7128   -2.7666   H         1 RES1   0.0000
   284 H166     -5.5002   -3.2601    0.0934   H         1 RES1   0.0000
   285 H167     -4.5555   -2.3894    1.2769   H         1 RES1   0.0000
   286 H168     -5.9114   -1.5824    0.4521   H         1 RES1   0.0000
   287 H169     -3.9535   -0.1516    1.2531   H         1 RES1   0.0000
   288 H170     -2.6135   -1.2962    1.5729   H         1 RES1   0.0000
   289 H171     -3.4827    1.8748    0.3749   H         1 RES1   0.0000
   290 H172     -2.6658    2.1596    1.9236   H         1 RES1   0.0000
   291 H173     -2.9106    4.4560    1.8194   H         1 RES1   0.0000
   292 H174     -2.5905    5.8083    0.7444   H         1 RES1   0.0000
   293 H175     -3.7473    4.5949    0.2459   H         1 RES1   0.0000
   294 H176     -0.0856    4.3520   -1.1040   H         1 RES1   0.0000
   295 H177     -1.0551    5.7820   -0.7606   H         1 RES1   0.0000
   296 H178     -0.0618    6.0931    1.3838   H         1 RES1   0.0000
   297 H179      0.2288    4.3660    1.5830   H         1 RES1   0.0000
   298 H180      1.7321    5.9285   -0.5000   H         1 RES1   0.0000
   299 H181      2.3113    5.8516    1.1520   H         1 RES1   0.0000
   300 H182      1.5496    3.2844   -0.2386   H         1 RES1   0.0000
   301 H183      3.2754    5.0130   -1.4272   H         1 RES1   0.0000
   302 H184      4.4117    4.1829   -0.4121   H         1 RES1   0.0000
   303 H185      4.1690    3.3623   -2.7637   H         1 RES1   0.0000
   304 H186      4.0247    2.1060   -1.5470   H         1 RES1   0.0000
   305 H187      2.4458    1.6808   -3.2640   H         1 RES1   0.0000
   306 H188      1.5321    2.0880   -1.8250   H         1 RES1   0.0000
   307 H189      2.0654    3.8404   -4.2843   H         1 RES1   0.0000
   308 H190      0.5079    3.2268   -3.7098   H         1 RES1   0.0000
   309 H191      1.3535    4.4958   -2.8093   H         1 RES1   0.0000
   310 H192      3.8447    3.3223    1.5529   H         1 RES1   0.0000
   311 H193      2.4731    4.0885    2.2887   H         1 RES1   0.0000
   312 H194      1.5116    2.1631    2.8612   H         1 RES1   0.0000
   313 H195      1.5888    1.4931    1.2205   H         1 RES1   0.0000
   314 H196      3.8593    1.5314    3.2695   H         1 RES1   0.0000
   315 H197      3.9380    0.7890    1.6973   H         1 RES1   0.0000
   316 H198      2.1275   -0.1192    3.9212   H         1 RES1   0.0000
   317 H199      2.3701   -0.9129    2.3540   H         1 RES1   0.0000
   318 H200      4.6268   -0.3814    4.3601   H         1 RES1   0.0000
   319 H201      3.6659   -1.8327    4.4448   H         1 RES1   0.0000
   320 H202      5.0708   -1.2279    1.8396   H         1 RES1   0.0000
   321 H203      5.9927   -1.8360    3.2136   H         1 RES1   0.0000
   322 H204      4.6809   -2.7801    2.5650   H         1 RES1   0.0000
@<TRIPOS>BOND
     1     1    19    1
     2     1    21    1
     3     1    24    1
     4     1   126    1
     5     1   128    1
     6     1   131    1
     7     1   233    1
     8     1   235    1
     9     1   238    1
    10     2     3    1
    11     2    41    1
    12     2    42    1
    13     2    43    1
    14     3     4    1
    15     3    44    1
    16     3    45    1
    17     4     5    1
    18     4    46    1
    19     4    47    1
    20     5     6    1
    21     5    48    1
    22     5    49    1
    23     6     7    1
    24     6    50    1
    25     6    51    1
    26     7     8    1
    27     7    52    1
    28     7    53    1
    29     8     9    1
    30     8    13    1
    31     8    54    1
    32     9    10    1
    33     9    55    1
    34     9    56    1
    35    10    11    1
    36    10    57    1
    37    10    58    1
    38    11    12    1
    39    11    59    1
    40    11    60    1
    41    12    61    1
    42    12    62    1
    43    12    63    1
    44    13    14    1
    45    13    64    1
    46    13    65    1
    47    14    15    1
    48    14    66    1
    49    14    67    1
    50    15    16    1
    51    15    68    1
    52    15    69    1
    53    16    17    1
    54    16    18    1
    55    17    70    1
    56    17    71    1
    57    17    72    1
    58    18    19    2
    59    18    20    1
    60    20    21    1
    61    20    73    1
    62    20    74    1
    63    21    22    1
    64    22    23    1
    65    22    75    1
    66    22    76    1
    67    23    24    2
    68    23    25    1
    69    25    26    1
    70    25    27    1
    71    26    77    1
    72    26    78    1
    73    26    79    1
    74    27    28    1
    75    27    80    1
    76    27    81    1
    77    28    29    1
    78    28    82    1
    79    28    83    1
    80    29    30    1
    81    29    84    1
    82    29    85    1
    83    30    31    1
    84    30    35    1
    85    30    86    1
    86    31    32    1
    87    31    87    1
    88    31    88    1
    89    32    33    1
    90    32    89    1
    91    32    90    1
    92    33    34    1
    93    33    91    1
    94    33    92    1
    95    34    93    1
    96    34    94    1
    97    34    95    1
    98    35    36    1
    99    35    96    1
   100    35    97    1
   101    36    37    1
   102    36    98    1
   103    36    99    1
   104    37    38    1
   105    37   100    1
   106    37   101    1
   107    38    39    1
   108    38   102    1
   109    38   103    1
   110    39    40    1
   111    39   104    1
   112    39   105    1
   113    40   106    1
   114    40   107    1
   115    40   108    1
   116   109   110    1
   117   109   148    1
   118   109   149    1
   119   109   150    1
   120   110   111    1
   121   110   151    1
   122   110   152    1
   123   111   112    1
   124   111   153    1
   125   111   154    1
   126   112   113    1
   127   112   155    1
   128   112   156    1
   129   113   114    1
   130   113   157    1
   131   113   158    1
   132   114   115    1
   133   114   159    1
   134   114   160    1
   135   115   116    1
   136   115   120    1
   137   115   161    1
   138   116   117    1
   139   116   162    1
   140   116   163    1
   141   117   118    1
   142   117   164    1
   143   117   165    1
   144   118   119    1
   145   118   166    1
   146   118   167    1
   147   119   168    1
   148   119   169    1
   149   119   170    1
   150   120   121    1
   151   120   171    1
   152   120   172    1
   153   121   122    1
   154   121   173    1
   155   121   174    1
   156   122   123    1
   157   122   175    1
   158   122   176    1
   159   123   124    1
   160   123   125    1
   161   124   177    1
   162   124   178    1
   163   124   179    1
   164   125   126    2
   165   125   127    1
   166   127   128    1
   167   127   180    1
   168   127   181    1
   169   128   129    1
   170   129   130    1
   171   129   182    1
   172   129   183    1
   173   130   131    2
   174   130   132    1
   175   132   133    1
   176   132   134    1
   177   133   184    1
   178   133   185    1
   179   133   186    1
   180   134   135    1
   181   134   187    1
   182   134   188    1
   183   135   136    1
   184   135   189    1
   185   135   190    1
   186   136   137    1
   187   136   191    1
   188   136   192    1
   189   137   138    1
   190   137   142    1
   191   137   193    1
   192   138   139    1
   193   138   194    1
   194   138   195    1
   195   139   140    1
   196   139   196    1
   197   139   197    1
   198   140   141    1
   199   140   198    1
   200   140   199    1
   201   141   200    1
   202   141   201    1
   203   141   202    1
   204   142   143    1
   205   142   203    1
   206   142   204    1
   207   143   144    1
   208   143   205    1
   209   143   206    1
   210   144   145    1
   211   144   207    1
   212   144   208    1
   213   145   146    1
   214   145   209    1
   215   145   210    1
   216   146   147    1
   217   146   211    1
   218   146   212    1
   219   147   213    1
   220   147   214    1
   221   147   215    1
   222   216   217    1
   223   216   255    1
   224   216   256    1
   225   216   257    1
   226   217   218    1
   227   217   258    1
   228   217   259    1
   229   218   219    1
   230   218   260    1
   231   218   261    1
   232   219   220    1
   233   219   262    1
   234   219   263    1
   235   220   221    1
   236   220   264    1
   237   220   265    1
   238   221   222    1
   239   221   266    1
   240   221   267    1
   241   222   223    1
   242   222   227    1
   243   222   268    1
   244   223   224    1
   245   223   269    1
   246   223   270    1
   247   224   225    1
   248   224   271    1
   249   224   272    1
   250   225   226    1
   251   225   273    1
   252   225   274    1
   253   226   275    1
   254   226   276    1
   255   226   277    1
   256   227   228    1
   257   227   278    1
   258   227   279    1
   259   228   229    1
   260   228   280    1
   261   228   281    1
   262   229   230    1
   263   229   282    1
   264   229   283    1
   265   230   231    1
   266   230   232    1
   267   231   284    1
   268   231   285    1
   269   231   286    1
   270   232   233    2
   271   232   234    1
   272   234   235    1
   273   234   287    1
   274   234   288    1
   275   235   236    1
   276   236   237    1
   277   236   289    1
   278   236   290    1
   279   237   238    2
   280   237   239    1
   281   239   240    1
   282   239   241    1
   283   240   291    1
   284   240   292    1
   285   240   293    1
   286   241   242    1
   287   241   294    1
   288   241   295    1
   289   242   243    1
   290   242   296    1
   291   242   297    1
   292   243   244    1
   293   243   298    1
   294   243   299    1
   295   244   245    1
   296   244   249    1
   297   244   300    1
   298   245   246    1
   299   245   301    1
   300   245   302    1
   301   246   247    1
   302   246   303    1
   303   246   304    1
   304   247   248    1
   305   247   305    1
   306   247   306    1
   307   248   307    1
   308   248   308    1
   309   248   309    1
   310   249   250    1
   311   249   310    1
   312   249   311    1
   313   250   251    1
   314   250   312    1
   315   250   313    1
   316   251   252    1
   317   251   314    1
   318   251   315    1
   319   252   253    1
   320   252   316    1
   321   252   317    1
   322   253   254    1
   323   253   318    1
   324   253   319    1
   325   254   320    1
   326   254   321    1
   327   254   322    1
@<TRIPOS>SUBSTRUCTURE
     1 RES1      322 GROUP             0 ****  ****    0  
