@<TRIPOS>MOLECULE
capped_square_antiprismatic_0_nunpairedes_0_charge_3 Charge: 3 Unpaired_Electrons: 3 XTB_Unpaired_Electrons: 0 XTB_Charge: 3
   340   345     1     0     0
SMALL
NoCharges
****
Generated from Architector

@<TRIPOS>ATOM
     1 Nd1      -0.6726    0.1347   -0.4128   Nd        1 RES1   0.0000
     2 C1        9.9130   -2.8306   -6.2601   C.3       1 RES1   0.0000
     3 C2        9.1284   -1.5782   -5.9083   C.3       1 RES1   0.0000
     4 C3        7.8120   -1.5309   -6.6754   C.3       1 RES1   0.0000
     5 C4        6.9455   -0.3227   -6.3239   C.3       1 RES1   0.0000
     6 C5        5.6224   -0.3591   -7.0881   C.3       1 RES1   0.0000
     7 C6        4.6545    0.7537   -6.6867   C.3       1 RES1   0.0000
     8 C7        3.3141    0.6333   -7.4192   C.3       1 RES1   0.0000
     9 C8        2.4808   -0.5129   -6.8447   C.3       1 RES1   0.0000
    10 C9        1.1620   -0.7579   -7.5779   C.3       1 RES1   0.0000
    11 C10       0.4974   -2.1236   -7.2960   C.3       1 RES1   0.0000
    12 C11       0.4664   -2.6384   -5.8336   C.3       1 RES1   0.0000
    13 C12      -0.9309   -2.5343   -5.1896   C.3       1 RES1   0.0000
    14 N1       -0.9548   -2.7725   -3.7390   N.am      1 RES1   0.0000
    15 C13      -0.1761   -3.8942   -3.2081   C.3       1 RES1   0.0000
    16 C14      -0.8483   -5.2749   -3.3055   C.3       1 RES1   0.0000
    17 C15       0.1790   -6.4185   -3.1896   C.3       1 RES1   0.0000
    18 C16       1.1351   -6.3502   -1.9950   C.3       1 RES1   0.0000
    19 C17       2.1238   -7.5265   -1.9555   C.3       1 RES1   0.0000
    20 C18       3.2148   -7.5646   -3.0346   C.3       1 RES1   0.0000
    21 C19       4.2455   -6.4320   -2.9246   C.3       1 RES1   0.0000
    22 C20       4.0249   -5.2663   -3.8912   C.3       1 RES1   0.0000
    23 C21       4.3668   -5.6249   -5.3363   C.3       1 RES1   0.0000
    24 C22       4.3006   -4.4168   -6.2693   C.3       1 RES1   0.0000
    25 C23       4.4543   -4.8271   -7.7319   C.3       1 RES1   0.0000
    26 C24       4.4253   -3.6390   -8.6835   C.3       1 RES1   0.0000
    27 C25      -1.6080   -2.0034   -2.8800   C.2       1 RES1   0.0000
    28 O1       -1.4479   -2.0363   -1.6322   O.2       1 RES1   0.0000
    29 C26      -2.6449   -0.9652   -3.3166   C.3       1 RES1   0.0000
    30 O2       -2.4733    0.1528   -2.4424   O.3       1 RES1   0.0000
    31 C27      -3.5265    0.4009   -1.5085   C.3       1 RES1   0.0000
    32 C28      -3.3547    1.8652   -1.0939   C.3       1 RES1   0.0000
    33 O3       -2.0017    2.1188   -0.7122   O.3       1 RES1   0.0000
    34 C29      -1.8553    3.0361    0.3776   C.3       1 RES1   0.0000
    35 C30      -2.2575    2.2717    1.6436   C.2       1 RES1   0.0000
    36 O4       -2.1282    1.0189    1.5477   O.2       1 RES1   0.0000
    37 N2       -2.7837    2.9340    2.6572   N.am      1 RES1   0.0000
    38 C31      -2.5989    4.3751    2.9215   C.3       1 RES1   0.0000
    39 C32      -3.1689    5.5137    2.0541   C.3       1 RES1   0.0000
    40 C33      -4.6821    5.5119    1.8281   C.3       1 RES1   0.0000
    41 C34      -5.1400    4.4260    0.8536   C.3       1 RES1   0.0000
    42 C35      -6.6627    4.3404    0.7196   C.3       1 RES1   0.0000
    43 C36      -7.1055    3.3448   -0.3556   C.3       1 RES1   0.0000
    44 C37      -6.8141    1.8839   -0.0094   C.3       1 RES1   0.0000
    45 C38      -7.1988    0.9176   -1.1311   C.3       1 RES1   0.0000
    46 C39      -8.7115    0.7530   -1.2471   C.3       1 RES1   0.0000
    47 C40      -9.1236   -0.2329   -2.3367   C.3       1 RES1   0.0000
    48 C41      -8.7473   -1.6929   -2.0803   C.3       1 RES1   0.0000
    49 C42      -9.3841   -2.2591   -0.8156   C.3       1 RES1   0.0000
    50 C43      -3.4141    2.2014    3.7596   C.3       1 RES1   0.0000
    51 C44      -4.9412    2.3304    3.6733   C.3       1 RES1   0.0000
    52 C45      -5.7576    1.5057    4.6738   C.3       1 RES1   0.0000
    53 C46      -5.8258    0.0104    4.3555   C.3       1 RES1   0.0000
    54 C47      -4.6960   -0.7924    4.9840   C.3       1 RES1   0.0000
    55 C48      -4.8330   -2.2851    4.7216   C.3       1 RES1   0.0000
    56 C49      -3.7168   -3.0507    5.4204   C.3       1 RES1   0.0000
    57 C50      -3.7851   -4.5671    5.2475   C.3       1 RES1   0.0000
    58 C51      -3.3766   -5.0689    3.8587   C.3       1 RES1   0.0000
    59 C52      -4.5100   -5.2268    2.8472   C.3       1 RES1   0.0000
    60 C53      -3.9866   -5.8417    1.5485   C.3       1 RES1   0.0000
    61 C54      -5.0824   -5.9703    0.4942   C.3       1 RES1   0.0000
    62 H1       10.8439   -2.8698   -5.7087   H         1 RES1   0.0000
    63 H2       10.1454   -2.8497   -7.3190   H         1 RES1   0.0000
    64 H3        9.3374   -3.7199   -6.0234   H         1 RES1   0.0000
    65 H4        9.7180   -0.6941   -6.1479   H         1 RES1   0.0000
    66 H5        8.9211   -1.5587   -4.8367   H         1 RES1   0.0000
    67 H6        7.2456   -2.4426   -6.4656   H         1 RES1   0.0000
    68 H7        8.0186   -1.5153   -7.7462   H         1 RES1   0.0000
    69 H8        7.4827    0.5982   -6.5551   H         1 RES1   0.0000
    70 H9        6.7446   -0.3232   -5.2491   H         1 RES1   0.0000
    71 H10       5.1556   -1.3277   -6.9019   H         1 RES1   0.0000
    72 H11       5.8254   -0.2884   -8.1588   H         1 RES1   0.0000
    73 H12       5.1168    1.7162   -6.9104   H         1 RES1   0.0000
    74 H13       4.4810    0.7111   -5.6051   H         1 RES1   0.0000
    75 H14       3.5115    0.4531   -8.4747   H         1 RES1   0.0000
    76 H15       2.7651    1.5743   -7.3409   H         1 RES1   0.0000
    77 H16       2.2978   -0.2872   -5.7913   H         1 RES1   0.0000
    78 H17       3.0773   -1.4219   -6.8876   H         1 RES1   0.0000
    79 H18       1.3658   -0.7288   -8.6492   H         1 RES1   0.0000
    80 H19       0.4646    0.0568   -7.3871   H         1 RES1   0.0000
    81 H20      -0.5229   -2.0960   -7.6851   H         1 RES1   0.0000
    82 H21       1.0340   -2.8664   -7.8874   H         1 RES1   0.0000
    83 H22       1.2065   -2.0913   -5.2473   H         1 RES1   0.0000
    84 H23       0.7704   -3.6847   -5.8576   H         1 RES1   0.0000
    85 H24      -1.5956   -3.2434   -5.6947   H         1 RES1   0.0000
    86 H25      -1.2985   -1.5241   -5.3717   H         1 RES1   0.0000
    87 H26      -0.0034   -3.6726   -2.1563   H         1 RES1   0.0000
    88 H27       0.7648   -3.9136   -3.7529   H         1 RES1   0.0000
    89 H28      -1.3476   -5.3877   -4.2687   H         1 RES1   0.0000
    90 H29      -1.6152   -5.3812   -2.5343   H         1 RES1   0.0000
    91 H30       0.7657   -6.4528   -4.1076   H         1 RES1   0.0000
    92 H31      -0.3719   -7.3607   -3.1276   H         1 RES1   0.0000
    93 H32       0.5389   -6.3779   -1.0775   H         1 RES1   0.0000
    94 H33       1.7026   -5.4160   -2.0048   H         1 RES1   0.0000
    95 H34       1.5506   -8.4531   -2.0145   H         1 RES1   0.0000
    96 H35       2.6256   -7.5107   -0.9840   H         1 RES1   0.0000
    97 H36       2.7736   -7.5752   -4.0308   H         1 RES1   0.0000
    98 H37       3.7314   -8.5194   -2.9127   H         1 RES1   0.0000
    99 H38       5.2397   -6.8364   -3.1140   H         1 RES1   0.0000
   100 H39       4.2478   -6.0635   -1.8962   H         1 RES1   0.0000
   101 H40       4.6612   -4.4331   -3.5808   H         1 RES1   0.0000
   102 H41       2.9852   -4.9286   -3.8406   H         1 RES1   0.0000
   103 H42       3.6812   -6.3921   -5.6992   H         1 RES1   0.0000
   104 H43       5.3713   -6.0478   -5.3740   H         1 RES1   0.0000
   105 H44       5.0904   -3.7113   -6.0005   H         1 RES1   0.0000
   106 H45       3.3411   -3.9034   -6.1382   H         1 RES1   0.0000
   107 H46       3.6468   -5.5174   -7.9847   H         1 RES1   0.0000
   108 H47       5.3971   -5.3602   -7.8538   H         1 RES1   0.0000
   109 H48       3.5261   -3.0447   -8.5332   H         1 RES1   0.0000
   110 H49       4.4328   -3.9834   -9.7124   H         1 RES1   0.0000
   111 H50       5.2925   -3.0020   -8.5342   H         1 RES1   0.0000
   112 H51      -3.6347   -1.4228   -3.1950   H         1 RES1   0.0000
   113 H52      -2.5694   -0.5958   -4.3388   H         1 RES1   0.0000
   114 H53      -3.4427   -0.2996   -0.6450   H         1 RES1   0.0000
   115 H54      -4.5149    0.2900   -1.9812   H         1 RES1   0.0000
   116 H55      -4.0440    2.0879   -0.2793   H         1 RES1   0.0000
   117 H56      -3.6138    2.4940   -1.9524   H         1 RES1   0.0000
   118 H57      -2.4782    3.9201    0.2186   H         1 RES1   0.0000
   119 H58      -0.7838    3.2906    0.4182   H         1 RES1   0.0000
   120 H59      -1.5199    4.5483    2.9881   H         1 RES1   0.0000
   121 H60      -3.0196    4.5205    3.9171   H         1 RES1   0.0000
   122 H61      -2.6505    5.6248    1.0987   H         1 RES1   0.0000
   123 H62      -2.9244    6.4156    2.6248   H         1 RES1   0.0000
   124 H63      -4.9614    6.4916    1.4331   H         1 RES1   0.0000
   125 H64      -5.1863    5.3898    2.7892   H         1 RES1   0.0000
   126 H65      -4.7605    3.4672    1.2111   H         1 RES1   0.0000
   127 H66      -4.7104    4.6241   -0.1361   H         1 RES1   0.0000
   128 H67      -7.0543    5.3267    0.4629   H         1 RES1   0.0000
   129 H68      -7.1041    4.0537    1.6762   H         1 RES1   0.0000
   130 H69      -6.6235    3.6053   -1.3026   H         1 RES1   0.0000
   131 H70      -8.1797    3.4582   -0.4910   H         1 RES1   0.0000
   132 H71      -7.3584    1.6136    0.8975   H         1 RES1   0.0000
   133 H72      -5.7501    1.7578    0.2089   H         1 RES1   0.0000
   134 H73      -6.7487   -0.0564   -0.9208   H         1 RES1   0.0000
   135 H74      -6.7973    1.2755   -2.0860   H         1 RES1   0.0000
   136 H75      -9.1555    1.7198   -1.4828   H         1 RES1   0.0000
   137 H76      -9.1090    0.4347   -0.2839   H         1 RES1   0.0000
   138 H77      -8.6740    0.0867   -3.2797   H         1 RES1   0.0000
   139 H78     -10.2060   -0.1781   -2.4520   H         1 RES1   0.0000
   140 H79      -7.6598   -1.8039   -2.0235   H         1 RES1   0.0000
   141 H80      -9.0857   -2.2797   -2.9368   H         1 RES1   0.0000
   142 H81      -8.9667   -1.7996    0.0785   H         1 RES1   0.0000
   143 H82      -9.2180   -3.3327   -0.7541   H         1 RES1   0.0000
   144 H83     -10.4567   -2.0823   -0.8252   H         1 RES1   0.0000
   145 H84      -3.0598    2.6145    4.7037   H         1 RES1   0.0000
   146 H85      -3.0887    1.1658    3.6960   H         1 RES1   0.0000
   147 H86      -5.2540    2.0286    2.6731   H         1 RES1   0.0000
   148 H87      -5.2053    3.3810    3.8128   H         1 RES1   0.0000
   149 H88      -6.7715    1.9123    4.6454   H         1 RES1   0.0000
   150 H89      -5.3790    1.6485    5.6858   H         1 RES1   0.0000
   151 H90      -5.8312   -0.1352    3.2726   H         1 RES1   0.0000
   152 H91      -6.7686   -0.3809    4.7368   H         1 RES1   0.0000
   153 H92      -4.6991   -0.6176    6.0593   H         1 RES1   0.0000
   154 H93      -3.7318   -0.4595    4.5976   H         1 RES1   0.0000
   155 H94      -4.8001   -2.4656    3.6470   H         1 RES1   0.0000
   156 H95      -5.7969   -2.6353    5.0878   H         1 RES1   0.0000
   157 H96      -3.7694   -2.8280    6.4873   H         1 RES1   0.0000
   158 H97      -2.7489   -2.6849    5.0595   H         1 RES1   0.0000
   159 H98      -4.7910   -4.9155    5.4827   H         1 RES1   0.0000
   160 H99      -3.1083   -5.0133    5.9787   H         1 RES1   0.0000
   161 H100     -2.9063   -6.0490    3.9693   H         1 RES1   0.0000
   162 H101     -2.6285   -4.3867    3.4372   H         1 RES1   0.0000
   163 H102     -4.9735   -4.2654    2.6196   H         1 RES1   0.0000
   164 H103     -5.2827   -5.8754    3.2615   H         1 RES1   0.0000
   165 H104     -3.5752   -6.8304    1.7662   H         1 RES1   0.0000
   166 H105     -3.1688   -5.2217    1.1556   H         1 RES1   0.0000
   167 H106     -5.9078   -6.5608    0.8869   H         1 RES1   0.0000
   168 H107     -4.7005   -6.4646   -0.3989   H         1 RES1   0.0000
   169 H108     -5.4663   -4.9877    0.2161   H         1 RES1   0.0000
   170 C55     -12.4906    2.7083   -6.3546   C.3       1 RES1   0.0000
   171 C56     -11.7511    1.4282   -6.0033   C.3       1 RES1   0.0000
   172 C57     -10.3693    1.4155   -6.6428   C.3       1 RES1   0.0000
   173 C58      -9.5821    0.1596   -6.2863   C.3       1 RES1   0.0000
   174 C59      -8.1639    0.2289   -6.8414   C.3       1 RES1   0.0000
   175 C60      -7.2492   -0.8651   -6.2991   C.3       1 RES1   0.0000
   176 C61      -5.8285   -0.7303   -6.8477   C.3       1 RES1   0.0000
   177 C62      -5.0717    0.5069   -6.3495   C.3       1 RES1   0.0000
   178 C63      -3.9996    0.9946   -7.3434   C.3       1 RES1   0.0000
   179 C64      -2.5278    0.7399   -6.9731   C.3       1 RES1   0.0000
   180 C65      -2.0462    1.6430   -5.8288   C.3       1 RES1   0.0000
   181 C66      -0.5572    1.5071   -5.4419   C.3       1 RES1   0.0000
   182 N3       -0.3206    2.0472   -4.1034   N.am      1 RES1   0.0000
   183 C67      -0.9226    3.3560   -3.8790   C.3       1 RES1   0.0000
   184 C68      -0.0758    4.3712   -3.1272   C.3       1 RES1   0.0000
   185 C69      -0.7970    5.7231   -3.2309   C.3       1 RES1   0.0000
   186 C70      -2.0717    5.8318   -2.3847   C.3       1 RES1   0.0000
   187 C71      -2.8525    7.1096   -2.7222   C.3       1 RES1   0.0000
   188 C72      -3.8812    6.8939   -3.8377   C.3       1 RES1   0.0000
   189 C73      -5.1288    6.1276   -3.3499   C.3       1 RES1   0.0000
   190 C74      -5.4994    4.9285   -4.2277   C.3       1 RES1   0.0000
   191 C75      -6.1173    5.3299   -5.5651   C.3       1 RES1   0.0000
   192 C76      -6.2452    4.1350   -6.5040   C.3       1 RES1   0.0000
   193 C77      -6.7127    4.5403   -7.8975   C.3       1 RES1   0.0000
   194 C78      -6.8372    3.3512   -8.8430   C.3       1 RES1   0.0000
   195 C79       0.2673    1.4218   -3.1007   C.2       1 RES1   0.0000
   196 O5        0.2093    1.7878   -1.9005   O.2       1 RES1   0.0000
   197 C80       1.1571    0.2038   -3.3211   C.3       1 RES1   0.0000
   198 O6        0.9849   -0.6470   -2.1844   O.3       1 RES1   0.0000
   199 C81       2.1968   -1.1426   -1.5974   C.3       1 RES1   0.0000
   200 C82       1.8242   -2.1632   -0.5044   C.3       1 RES1   0.0000
   201 O7        0.5389   -1.8342    0.0238   O.3       1 RES1   0.0000
   202 C83       0.0651   -2.7602    1.0109   C.3       1 RES1   0.0000
   203 C84       0.6538   -2.3021    2.3522   C.2       1 RES1   0.0000
   204 O8        0.8064   -1.0681    2.4412   O.2       1 RES1   0.0000
   205 N4        1.0226   -3.1702    3.2782   N.am      1 RES1   0.0000
   206 C85       0.5139   -4.5386    3.3701   C.3       1 RES1   0.0000
   207 C86       1.0961   -5.6471    2.4794   C.3       1 RES1   0.0000
   208 C87       2.6219   -5.7712    2.4465   C.3       1 RES1   0.0000
   209 C88       3.2498   -4.8666    1.3896   C.3       1 RES1   0.0000
   210 C89       4.7716   -4.9847    1.2860   C.3       1 RES1   0.0000
   211 C90       5.3388   -4.0110    0.2445   C.3       1 RES1   0.0000
   212 C91       5.3204   -2.5521    0.7122   C.3       1 RES1   0.0000
   213 C92       5.3904   -1.5531   -0.4441   C.3       1 RES1   0.0000
   214 C93       6.8012   -1.3219   -0.9740   C.3       1 RES1   0.0000
   215 C94       6.8212   -0.4314   -2.2179   C.3       1 RES1   0.0000
   216 C95       6.2289    0.9701   -2.0358   C.3       1 RES1   0.0000
   217 C96       6.9425    1.7859   -0.9608   C.3       1 RES1   0.0000
   218 C97       1.7886   -2.6448    4.4136   C.3       1 RES1   0.0000
   219 C98       3.2594   -2.4575    4.0280   C.3       1 RES1   0.0000
   220 C99       4.0964   -1.6727    5.0413   C.3       1 RES1   0.0000
   221 C100      4.0795   -0.1641    4.7987   C.3       1 RES1   0.0000
   222 C101      2.7200    0.4859    5.0417   C.3       1 RES1   0.0000
   223 C102      2.8107    2.0093    5.0802   C.3       1 RES1   0.0000
   224 C103      1.4706    2.6213    5.4826   C.3       1 RES1   0.0000
   225 C104      1.5009    4.1437    5.6390   C.3       1 RES1   0.0000
   226 C105      1.1036    4.9312    4.3946   C.3       1 RES1   0.0000
   227 C106      2.0334    4.7819    3.1949   C.3       1 RES1   0.0000
   228 C107      1.6679    5.7820    2.0981   C.3       1 RES1   0.0000
   229 C108      2.5766    5.6746    0.8770   C.3       1 RES1   0.0000
   230 H109    -13.4720    2.7311   -5.8933   H         1 RES1   0.0000
   231 H110    -12.6132    2.7856   -7.4309   H         1 RES1   0.0000
   232 H111    -11.9260    3.5725   -6.0131   H         1 RES1   0.0000
   233 H112    -12.3166    0.5619   -6.3464   H         1 RES1   0.0000
   234 H113    -11.6447    1.3448   -4.9195   H         1 RES1   0.0000
   235 H114     -9.8125    2.2927   -6.3008   H         1 RES1   0.0000
   236 H115    -10.4662    1.4915   -7.7271   H         1 RES1   0.0000
   237 H116    -10.0966   -0.7223   -6.6702   H         1 RES1   0.0000
   238 H117     -9.5409    0.0679   -5.1992   H         1 RES1   0.0000
   239 H118     -7.7539    1.2078   -6.5865   H         1 RES1   0.0000
   240 H119     -8.1996    0.1648   -7.9305   H         1 RES1   0.0000
   241 H120     -7.6527   -1.8317   -6.6041   H         1 RES1   0.0000
   242 H121     -7.2496   -0.8399   -5.2062   H         1 RES1   0.0000
   243 H122     -5.9169   -0.6726   -7.9313   H         1 RES1   0.0000
   244 H123     -5.2579   -1.6290   -6.6089   H         1 RES1   0.0000
   245 H124     -4.6403    0.3008   -5.3659   H         1 RES1   0.0000
   246 H125     -5.7822    1.3180   -6.2090   H         1 RES1   0.0000
   247 H126     -4.1250    2.0670   -7.5137   H         1 RES1   0.0000
   248 H127     -4.1759    0.5055   -8.3031   H         1 RES1   0.0000
   249 H128     -1.9247    0.9632   -7.8557   H         1 RES1   0.0000
   250 H129     -2.3834   -0.3191   -6.7431   H         1 RES1   0.0000
   251 H130     -2.6457    1.4608   -4.9366   H         1 RES1   0.0000
   252 H131     -2.2487    2.6619   -6.1515   H         1 RES1   0.0000
   253 H132      0.0717    2.0327   -6.1663   H         1 RES1   0.0000
   254 H133     -0.2800    0.4579   -5.4723   H         1 RES1   0.0000
   255 H134     -1.8685    3.2380   -3.3510   H         1 RES1   0.0000
   256 H135     -1.1187    3.7860   -4.8577   H         1 RES1   0.0000
   257 H136      0.9150    4.4323   -3.5843   H         1 RES1   0.0000
   258 H137      0.0520    4.0885   -2.0816   H         1 RES1   0.0000
   259 H138     -1.0532    5.9136   -4.2770   H         1 RES1   0.0000
   260 H139     -0.1162    6.5117   -2.9141   H         1 RES1   0.0000
   261 H140     -1.7972    5.8359   -1.3263   H         1 RES1   0.0000
   262 H141     -2.7269    4.9768   -2.5631   H         1 RES1   0.0000
   263 H142     -2.1361    7.8732   -3.0280   H         1 RES1   0.0000
   264 H143     -3.3773    7.4704   -1.8349   H         1 RES1   0.0000
   265 H144     -3.4087    6.3613   -4.6682   H         1 RES1   0.0000
   266 H145     -4.1716    7.8741   -4.2150   H         1 RES1   0.0000
   267 H146     -5.9812    6.8073   -3.3007   H         1 RES1   0.0000
   268 H147     -4.9576    5.7775   -2.3262   H         1 RES1   0.0000
   269 H148     -6.2113    4.2979   -3.6881   H         1 RES1   0.0000
   270 H149     -4.6037    4.3227   -4.4126   H         1 RES1   0.0000
   271 H150     -5.5014    6.0952   -6.0383   H         1 RES1   0.0000
   272 H151     -7.1033    5.7604   -5.3909   H         1 RES1   0.0000
   273 H152     -6.9463    3.4122   -6.0801   H         1 RES1   0.0000
   274 H153     -5.2696    3.6461   -6.5849   H         1 RES1   0.0000
   275 H154     -5.9997    5.2566   -8.3103   H         1 RES1   0.0000
   276 H155     -7.6787    5.0398   -7.8234   H         1 RES1   0.0000
   277 H156     -5.8848    2.8332   -8.9424   H         1 RES1   0.0000
   278 H157     -7.1433    3.6892   -9.8294   H         1 RES1   0.0000
   279 H158     -7.5796    2.6428   -8.4830   H         1 RES1   0.0000
   280 H159      2.1766    0.6049   -3.3802   H         1 RES1   0.0000
   281 H160      0.9323   -0.3575   -4.2275   H         1 RES1   0.0000
   282 H161      2.7715   -0.3120   -1.1596   H         1 RES1   0.0000
   283 H162      2.8053   -1.6432   -2.3614   H         1 RES1   0.0000
   284 H163      2.5889   -2.1448    0.2795   H         1 RES1   0.0000
   285 H164      1.7876   -3.1749   -0.9204   H         1 RES1   0.0000
   286 H165      0.3181   -3.7880    0.7426   H         1 RES1   0.0000
   287 H166     -1.0281   -2.6386    1.0415   H         1 RES1   0.0000
   288 H167     -0.5684   -4.5118    3.2081   H         1 RES1   0.0000
   289 H168      0.6753   -4.8435    4.4045   H         1 RES1   0.0000
   290 H169      0.7137   -5.5825    1.4586   H         1 RES1   0.0000
   291 H170      0.6854   -6.5690    2.8913   H         1 RES1   0.0000
   292 H171      2.8837   -6.8038    2.2146   H         1 RES1   0.0000
   293 H172      3.0306   -5.5493    3.4329   H         1 RES1   0.0000
   294 H173      2.9860   -3.8341    1.6151   H         1 RES1   0.0000
   295 H174      2.8277   -5.1162    0.4116   H         1 RES1   0.0000
   296 H175      5.0301   -6.0047    0.9950   H         1 RES1   0.0000
   297 H176      5.2354   -4.7929    2.2547   H         1 RES1   0.0000
   298 H177      4.7480   -4.1074   -0.6734   H         1 RES1   0.0000
   299 H178      6.3626   -4.2992    0.0040   H         1 RES1   0.0000
   300 H179      6.1462   -2.3762    1.4021   H         1 RES1   0.0000
   301 H180      4.4009   -2.3702    1.2752   H         1 RES1   0.0000
   302 H181      4.9809   -0.5991   -0.1051   H         1 RES1   0.0000
   303 H182      4.7692   -1.9186   -1.2668   H         1 RES1   0.0000
   304 H183      7.2413   -2.2816   -1.2424   H         1 RES1   0.0000
   305 H184      7.4192   -0.8824   -0.1925   H         1 RES1   0.0000
   306 H185      6.2784   -0.9349   -3.0238   H         1 RES1   0.0000
   307 H186      7.8558   -0.3192   -2.5433   H         1 RES1   0.0000
   308 H187      5.1594    0.9038   -1.7973   H         1 RES1   0.0000
   309 H188      6.3130    1.4997   -2.9892   H         1 RES1   0.0000
   310 H189      6.8028    1.3467    0.0256   H         1 RES1   0.0000
   311 H190      6.5612    2.8062   -0.9383   H         1 RES1   0.0000
   312 H191      8.0091    1.8291   -1.1693   H         1 RES1   0.0000
   313 H192      1.7138   -3.3417    5.2451   H         1 RES1   0.0000
   314 H193      1.3407   -1.6975    4.7127   H         1 RES1   0.0000
   315 H194      3.3041   -1.9292    3.0734   H         1 RES1   0.0000
   316 H195      3.7053   -3.4422    3.8919   H         1 RES1   0.0000
   317 H196      5.1307   -2.0085    4.9565   H         1 RES1   0.0000
   318 H197      3.7670   -1.8927    6.0570   H         1 RES1   0.0000
   319 H198      4.4025    0.0396    3.7733   H         1 RES1   0.0000
   320 H199      4.8088    0.2967    5.4664   H         1 RES1   0.0000
   321 H200      2.3290    0.1417    6.0016   H         1 RES1   0.0000
   322 H201      2.0145    0.1937    4.2589   H         1 RES1   0.0000
   323 H202      3.1389    2.3809    4.1080   H         1 RES1   0.0000
   324 H203      3.5656    2.2971    5.8127   H         1 RES1   0.0000
   325 H204      1.1921    2.1814    6.4422   H         1 RES1   0.0000
   326 H205      0.7028    2.3299    4.7581   H         1 RES1   0.0000
   327 H206      2.4937    4.4549    5.9614   H         1 RES1   0.0000
   328 H207      0.8029    4.4235    6.4279   H         1 RES1   0.0000
   329 H208      1.0643    5.9880    4.6626   H         1 RES1   0.0000
   330 H209      0.0932    4.6375    4.0953   H         1 RES1   0.0000
   331 H210      1.9718    3.7672    2.7900   H         1 RES1   0.0000
   332 H211      3.0619    4.9615    3.5110   H         1 RES1   0.0000
   333 H212      1.7430    6.7895    2.5095   H         1 RES1   0.0000
   334 H213      0.6245    5.6305    1.7960   H         1 RES1   0.0000
   335 H214      3.6187    5.7340    1.1837   H         1 RES1   0.0000
   336 H215      2.3772    6.4908    0.1853   H         1 RES1   0.0000
   337 H216      2.4248    4.7295    0.3512   H         1 RES1   0.0000
   338 O9        1.3171    0.8140    0.7150   O.3       1 RES1   0.0000
   339 H217      1.3686    0.2102    1.5078   H         1 RES1   0.0000
   340 H218      2.0329    1.4587    0.8212   H         1 RES1   0.0000
@<TRIPOS>BOND
     1     1    28    1
     2     1    30    1
     3     1    33    1
     4     1    36    1
     5     1   196    1
     6     1   198    1
     7     1   201    1
     8     1   204    1
     9     1   338    1
    10     2     3    1
    11     2    62    1
    12     2    63    1
    13     2    64    1
    14     3     4    1
    15     3    65    1
    16     3    66    1
    17     4     5    1
    18     4    67    1
    19     4    68    1
    20     5     6    1
    21     5    69    1
    22     5    70    1
    23     6     7    1
    24     6    71    1
    25     6    72    1
    26     7     8    1
    27     7    73    1
    28     7    74    1
    29     8     9    1
    30     8    75    1
    31     8    76    1
    32     9    10    1
    33     9    77    1
    34     9    78    1
    35    10    11    1
    36    10    79    1
    37    10    80    1
    38    11    12    1
    39    11    81    1
    40    11    82    1
    41    12    13    1
    42    12    83    1
    43    12    84    1
    44    13    14    1
    45    13    85    1
    46    13    86    1
    47    14    15    1
    48    14    27    1
    49    15    16    1
    50    15    87    1
    51    15    88    1
    52    16    17    1
    53    16    89    1
    54    16    90    1
    55    17    18    1
    56    17    91    1
    57    17    92    1
    58    18    19    1
    59    18    93    1
    60    18    94    1
    61    19    20    1
    62    19    95    1
    63    19    96    1
    64    20    21    1
    65    20    97    1
    66    20    98    1
    67    21    22    1
    68    21    99    1
    69    21   100    1
    70    22    23    1
    71    22   101    1
    72    22   102    1
    73    23    24    1
    74    23   103    1
    75    23   104    1
    76    24    25    1
    77    24   105    1
    78    24   106    1
    79    25    26    1
    80    25   107    1
    81    25   108    1
    82    26   109    1
    83    26   110    1
    84    26   111    1
    85    27    28    2
    86    27    29    1
    87    29    30    1
    88    29   112    1
    89    29   113    1
    90    30    31    1
    91    31    32    1
    92    31   114    1
    93    31   115    1
    94    32    33    1
    95    32   116    1
    96    32   117    1
    97    33    34    1
    98    34    35    1
    99    34   118    1
   100    34   119    1
   101    35    36    2
   102    35    37    1
   103    37    38    1
   104    37    50    1
   105    38    39    1
   106    38   120    1
   107    38   121    1
   108    39    40    1
   109    39   122    1
   110    39   123    1
   111    40    41    1
   112    40   124    1
   113    40   125    1
   114    41    42    1
   115    41   126    1
   116    41   127    1
   117    42    43    1
   118    42   128    1
   119    42   129    1
   120    43    44    1
   121    43   130    1
   122    43   131    1
   123    44    45    1
   124    44   132    1
   125    44   133    1
   126    45    46    1
   127    45   134    1
   128    45   135    1
   129    46    47    1
   130    46   136    1
   131    46   137    1
   132    47    48    1
   133    47   138    1
   134    47   139    1
   135    48    49    1
   136    48   140    1
   137    48   141    1
   138    49   142    1
   139    49   143    1
   140    49   144    1
   141    50    51    1
   142    50   145    1
   143    50   146    1
   144    51    52    1
   145    51   147    1
   146    51   148    1
   147    52    53    1
   148    52   149    1
   149    52   150    1
   150    53    54    1
   151    53   151    1
   152    53   152    1
   153    54    55    1
   154    54   153    1
   155    54   154    1
   156    55    56    1
   157    55   155    1
   158    55   156    1
   159    56    57    1
   160    56   157    1
   161    56   158    1
   162    57    58    1
   163    57   159    1
   164    57   160    1
   165    58    59    1
   166    58   161    1
   167    58   162    1
   168    59    60    1
   169    59   163    1
   170    59   164    1
   171    60    61    1
   172    60   165    1
   173    60   166    1
   174    61   167    1
   175    61   168    1
   176    61   169    1
   177   170   171    1
   178   170   230    1
   179   170   231    1
   180   170   232    1
   181   171   172    1
   182   171   233    1
   183   171   234    1
   184   172   173    1
   185   172   235    1
   186   172   236    1
   187   173   174    1
   188   173   237    1
   189   173   238    1
   190   174   175    1
   191   174   239    1
   192   174   240    1
   193   175   176    1
   194   175   241    1
   195   175   242    1
   196   176   177    1
   197   176   243    1
   198   176   244    1
   199   177   178    1
   200   177   245    1
   201   177   246    1
   202   178   179    1
   203   178   247    1
   204   178   248    1
   205   179   180    1
   206   179   249    1
   207   179   250    1
   208   180   181    1
   209   180   251    1
   210   180   252    1
   211   181   182    1
   212   181   253    1
   213   181   254    1
   214   182   183    1
   215   182   195    1
   216   183   184    1
   217   183   255    1
   218   183   256    1
   219   184   185    1
   220   184   257    1
   221   184   258    1
   222   185   186    1
   223   185   259    1
   224   185   260    1
   225   186   187    1
   226   186   261    1
   227   186   262    1
   228   187   188    1
   229   187   263    1
   230   187   264    1
   231   188   189    1
   232   188   265    1
   233   188   266    1
   234   189   190    1
   235   189   267    1
   236   189   268    1
   237   190   191    1
   238   190   269    1
   239   190   270    1
   240   191   192    1
   241   191   271    1
   242   191   272    1
   243   192   193    1
   244   192   273    1
   245   192   274    1
   246   193   194    1
   247   193   275    1
   248   193   276    1
   249   194   277    1
   250   194   278    1
   251   194   279    1
   252   195   196    2
   253   195   197    1
   254   197   198    1
   255   197   280    1
   256   197   281    1
   257   198   199    1
   258   199   200    1
   259   199   282    1
   260   199   283    1
   261   200   201    1
   262   200   284    1
   263   200   285    1
   264   201   202    1
   265   202   203    1
   266   202   286    1
   267   202   287    1
   268   203   204    2
   269   203   205    1
   270   205   206    1
   271   205   218    1
   272   206   207    1
   273   206   288    1
   274   206   289    1
   275   207   208    1
   276   207   290    1
   277   207   291    1
   278   208   209    1
   279   208   292    1
   280   208   293    1
   281   209   210    1
   282   209   294    1
   283   209   295    1
   284   210   211    1
   285   210   296    1
   286   210   297    1
   287   211   212    1
   288   211   298    1
   289   211   299    1
   290   212   213    1
   291   212   300    1
   292   212   301    1
   293   213   214    1
   294   213   302    1
   295   213   303    1
   296   214   215    1
   297   214   304    1
   298   214   305    1
   299   215   216    1
   300   215   306    1
   301   215   307    1
   302   216   217    1
   303   216   308    1
   304   216   309    1
   305   217   310    1
   306   217   311    1
   307   217   312    1
   308   218   219    1
   309   218   313    1
   310   218   314    1
   311   219   220    1
   312   219   315    1
   313   219   316    1
   314   220   221    1
   315   220   317    1
   316   220   318    1
   317   221   222    1
   318   221   319    1
   319   221   320    1
   320   222   223    1
   321   222   321    1
   322   222   322    1
   323   223   224    1
   324   223   323    1
   325   223   324    1
   326   224   225    1
   327   224   325    1
   328   224   326    1
   329   225   226    1
   330   225   327    1
   331   225   328    1
   332   226   227    1
   333   226   329    1
   334   226   330    1
   335   227   228    1
   336   227   331    1
   337   227   332    1
   338   228   229    1
   339   228   333    1
   340   228   334    1
   341   229   335    1
   342   229   336    1
   343   229   337    1
   344   338   339    1
   345   338   340    1
@<TRIPOS>SUBSTRUCTURE
     1 RES1      340 GROUP             0 ****  ****    0  
