@<TRIPOS>MOLECULE
am_c3_9H2O_c0_0_nunpairedes_0_charge_3 Charge: 3 Unpaired_Electrons: 3 XTB_Unpaired_Electrons: 0 XTB_Charge: 3
   172   186     1     0     0
SMALL
NoCharges
****
Generated from Architector

@<TRIPOS>ATOM
     1 Nd1      -0.0415    0.0146   -0.0092   Nd        1 RES1   0.0000
     2 C1       -4.6130   -2.7741    3.9196   C.3       1 RES1   0.0000
     3 C2       -3.7197   -3.1720    2.7484   C.3       1 RES1   0.0000
     4 N1       -2.4492   -2.4545    2.7395   N.am      1 RES1   0.0000
     5 C3       -2.0878   -1.6106    1.7543   C.2       1 RES1   0.0000
     6 O1       -0.8868   -1.3601    1.5472   O.2       1 RES1   0.0000
     7 C4       -3.0847   -0.8624    0.8811   C.ar      1 RES1   0.0000
     8 C5       -4.4483   -0.6882    1.1197   C.ar      1 RES1   0.0000
     9 C6       -5.1507    0.1881    0.3059   C.ar      1 RES1   0.0000
    10 C7       -4.5076    0.9273   -0.6761   C.ar      1 RES1   0.0000
    11 C8       -3.1446    0.7101   -0.8689   C.ar      1 RES1   0.0000
    12 C9       -2.2123    1.5308   -1.7511   C.2       1 RES1   0.0000
    13 O2       -1.0205    1.5455   -1.3856   O.2       1 RES1   0.0000
    14 N2       -2.6317    2.2366   -2.8191   N.am      1 RES1   0.0000
    15 C10      -3.9216    2.0081   -3.4591   C.3       1 RES1   0.0000
    16 C11      -4.8890    3.1708   -3.2361   C.3       1 RES1   0.0000
    17 C12      -1.8250    3.2434   -3.4615   C.ar      1 RES1   0.0000
    18 C13      -0.7119    3.8095   -2.8368   C.ar      1 RES1   0.0000
    19 C14       0.0424    4.7970   -3.4413   C.ar      1 RES1   0.0000
    20 C15      -0.3007    5.3177   -4.6819   C.ar      1 RES1   0.0000
    21 C16       0.5055    6.3927   -5.3252   C.3       1 RES1   0.0000
    22 C17      -1.4279    4.7897   -5.2915   C.ar      1 RES1   0.0000
    23 C18      -2.1608    3.7667   -4.7162   C.ar      1 RES1   0.0000
    24 N3       -2.4954   -0.1811   -0.1091   N.ar      1 RES1   0.0000
    25 C19      -1.5347   -2.8077    3.7957   C.ar      1 RES1   0.0000
    26 C20      -1.6815   -4.0056    4.4978   C.ar      1 RES1   0.0000
    27 C21      -0.8752   -4.3210    5.5736   C.ar      1 RES1   0.0000
    28 C22       0.1289   -3.4717    6.0057   C.ar      1 RES1   0.0000
    29 C23       0.9864   -3.8240    7.1763   C.3       1 RES1   0.0000
    30 C24       0.2895   -2.2806    5.3017   C.ar      1 RES1   0.0000
    31 C25      -0.5225   -1.9455    4.2293   C.ar      1 RES1   0.0000
    32 H1       -5.5611   -3.2925    3.8300   H         1 RES1   0.0000
    33 H2       -4.7872   -1.7015    3.9648   H         1 RES1   0.0000
    34 H3       -4.1678   -3.0613    4.8668   H         1 RES1   0.0000
    35 H4       -4.2035   -3.0329    1.7848   H         1 RES1   0.0000
    36 H5       -3.4867   -4.2375    2.8048   H         1 RES1   0.0000
    37 H6       -4.9603   -1.1527    1.9453   H         1 RES1   0.0000
    38 H7       -6.2085    0.3270    0.4752   H         1 RES1   0.0000
    39 H8       -5.0680    1.6724   -1.2089   H         1 RES1   0.0000
    40 H9       -4.3191    1.0538   -3.1213   H         1 RES1   0.0000
    41 H10      -3.7257    1.8778   -4.5252   H         1 RES1   0.0000
    42 H11      -5.0019    3.4304   -2.1847   H         1 RES1   0.0000
    43 H12      -5.8581    2.9043   -3.6421   H         1 RES1   0.0000
    44 H13      -4.5576    4.0736   -3.7413   H         1 RES1   0.0000
    45 H14      -0.4270    3.4780   -1.8559   H         1 RES1   0.0000
    46 H15       0.9087    5.1806   -2.9211   H         1 RES1   0.0000
    47 H16       1.5216    6.0367   -5.4966   H         1 RES1   0.0000
    48 H17       0.5508    7.2608   -4.6686   H         1 RES1   0.0000
    49 H18       0.0724    6.6939   -6.2758   H         1 RES1   0.0000
    50 H19      -1.7405    5.1863   -6.2445   H         1 RES1   0.0000
    51 H20      -2.9925    3.4176   -5.3018   H         1 RES1   0.0000
    52 H21      -2.4229   -4.7411    4.2448   H         1 RES1   0.0000
    53 H22      -1.0488   -5.2519    6.0899   H         1 RES1   0.0000
    54 H23       0.6819   -4.7806    7.5973   H         1 RES1   0.0000
    55 H24       0.9084   -3.0592    7.9502   H         1 RES1   0.0000
    56 H25       2.0337   -3.8915    6.8780   H         1 RES1   0.0000
    57 H26       1.0538   -1.5904    5.6281   H         1 RES1   0.0000
    58 H27      -0.3646   -0.9981    3.7359   H         1 RES1   0.0000
    59 C26       0.0012   -5.2879   -4.0537   C.3       1 RES1   0.0000
    60 C27      -0.7292   -4.7929   -2.8085   C.3       1 RES1   0.0000
    61 N4       -0.8408   -3.3380   -2.7590   N.am      1 RES1   0.0000
    62 C28      -0.2592   -2.5717   -1.8202   C.2       1 RES1   0.0000
    63 O3       -0.6500   -1.4005   -1.6397   O.2       1 RES1   0.0000
    64 C29       0.9214   -3.0135   -0.9584   C.ar      1 RES1   0.0000
    65 C30       1.8231   -4.0523   -1.1924   C.ar      1 RES1   0.0000
    66 C31       2.9185   -4.1689   -0.3478   C.ar      1 RES1   0.0000
    67 C32       3.1456   -3.2452    0.6645   C.ar      1 RES1   0.0000
    68 C33       2.2193   -2.2178    0.8355   C.ar      1 RES1   0.0000
    69 C34       2.3327   -0.9921    1.7366   C.2       1 RES1   0.0000
    70 O4        1.6258   -0.0256    1.3990   O.2       1 RES1   0.0000
    71 N5        3.1432   -0.8710    2.8031   N.am      1 RES1   0.0000
    72 C35       3.7904   -1.9644    3.5056   C.3       1 RES1   0.0000
    73 C36       5.3113   -1.9072    3.4146   C.3       1 RES1   0.0000
    74 C37       3.2760    0.4188    3.4356   C.ar      1 RES1   0.0000
    75 C38       3.2806    1.5804    2.6679   C.ar      1 RES1   0.0000
    76 C39       3.3490    2.8296    3.2537   C.ar      1 RES1   0.0000
    77 C40       3.4727    2.9804    4.6264   C.ar      1 RES1   0.0000
    78 C41       3.5299    4.3273    5.2603   C.3       1 RES1   0.0000
    79 C42       3.5692    1.8205    5.3855   C.ar      1 RES1   0.0000
    80 C43       3.4574    0.5660    4.8126   C.ar      1 RES1   0.0000
    81 N6        1.1486   -2.1501    0.0367   N.ar      1 RES1   0.0000
    82 C44      -1.7288   -2.7572   -3.7354   C.ar      1 RES1   0.0000
    83 C45      -2.7021   -3.5349   -4.3622   C.ar      1 RES1   0.0000
    84 C46      -3.5149   -3.0221   -5.3544   C.ar      1 RES1   0.0000
    85 C47      -3.4108   -1.7066   -5.7735   C.ar      1 RES1   0.0000
    86 C48      -4.2970   -1.1600   -6.8406   C.3       1 RES1   0.0000
    87 C49      -2.4387   -0.9268   -5.1544   C.ar      1 RES1   0.0000
    88 C50      -1.6148   -1.4305   -4.1618   C.ar      1 RES1   0.0000
    89 H28       0.0697   -6.3695   -4.0058   H         1 RES1   0.0000
    90 H29       1.0018   -4.8720   -4.1465   H         1 RES1   0.0000
    91 H30      -0.5433   -5.0262   -4.9564   H         1 RES1   0.0000
    92 H31      -0.2628   -5.1424   -1.8915   H         1 RES1   0.0000
    93 H32      -1.7442   -5.1972   -2.7971   H         1 RES1   0.0000
    94 H33       1.7425   -4.7194   -2.0331   H         1 RES1   0.0000
    95 H34       3.6250   -4.9682   -0.5132   H         1 RES1   0.0000
    96 H35       4.0512   -3.3092    1.2434   H         1 RES1   0.0000
    97 H36       3.3907   -2.9057    3.1432   H         1 RES1   0.0000
    98 H37       3.4993   -1.8922    4.5550   H         1 RES1   0.0000
    99 H38       5.6765   -1.9093    2.3900   H         1 RES1   0.0000
   100 H39       5.7030   -2.7757    3.9336   H         1 RES1   0.0000
   101 H40       5.6964   -1.0126    3.8971   H         1 RES1   0.0000
   102 H41       3.2492    1.5067    1.5934   H         1 RES1   0.0000
   103 H42       3.3439    3.6986    2.6118   H         1 RES1   0.0000
   104 H43       3.4168    5.1060    4.5101   H         1 RES1   0.0000
   105 H44       4.4831    4.4627    5.7691   H         1 RES1   0.0000
   106 H45       2.7456    4.4292    6.0095   H         1 RES1   0.0000
   107 H46       3.7475    1.8968    6.4456   H         1 RES1   0.0000
   108 H47       3.5388   -0.2799    5.4742   H         1 RES1   0.0000
   109 H48      -2.8624   -4.5676   -4.1113   H         1 RES1   0.0000
   110 H49      -4.2293   -3.6859   -5.8137   H         1 RES1   0.0000
   111 H50      -4.9682   -1.9315   -7.2091   H         1 RES1   0.0000
   112 H51      -3.7043   -0.7816   -7.6728   H         1 RES1   0.0000
   113 H52      -4.8920   -0.3330   -6.4526   H         1 RES1   0.0000
   114 H53      -2.3004    0.0922   -5.4841   H         1 RES1   0.0000
   115 H54      -0.8766   -0.7768   -3.7254   H         1 RES1   0.0000
   116 C51       3.8073   -0.6348   -4.0935   C.3       1 RES1   0.0000
   117 C52       2.6246    0.3088   -3.9308   C.3       1 RES1   0.0000
   118 N7        2.8317    1.3877   -2.9621   N.am      1 RES1   0.0000
   119 C53       2.1914    1.2984   -1.7834   C.2       1 RES1   0.0000
   120 O5        1.6736    0.2053   -1.4693   O.2       1 RES1   0.0000
   121 C54       1.9079    2.4900   -0.8813   C.ar      1 RES1   0.0000
   122 C55       2.3262    3.8020   -1.0856   C.ar      1 RES1   0.0000
   123 C56       1.8505    4.7770   -0.2252   C.ar      1 RES1   0.0000
   124 C57       0.9487    4.4617    0.7842   C.ar      1 RES1   0.0000
   125 C58       0.5702    3.1298    0.9419   C.ar      1 RES1   0.0000
   126 C59      -0.4814    2.5375    1.8716   C.2       1 RES1   0.0000
   127 O6       -0.9514    1.4458    1.4906   O.2       1 RES1   0.0000
   128 N8       -0.9129    3.0996    3.0112   N.am      1 RES1   0.0000
   129 C60      -0.3722    4.3136    3.6094   C.3       1 RES1   0.0000
   130 C61      -1.3377    5.4822    3.4349   C.3       1 RES1   0.0000
   131 C62      -2.0403    2.5447    3.7197   C.ar      1 RES1   0.0000
   132 C63      -2.1783    2.7147    5.0987   C.ar      1 RES1   0.0000
   133 C64      -3.2976    2.2712    5.7735   C.ar      1 RES1   0.0000
   134 C65      -4.3244    1.6043    5.1195   C.ar      1 RES1   0.0000
   135 C66      -5.5192    1.1130    5.8617   C.3       1 RES1   0.0000
   136 C67      -4.1893    1.4334    3.7495   C.ar      1 RES1   0.0000
   137 C68      -3.0848    1.9035    3.0575   C.ar      1 RES1   0.0000
   138 N9        1.0644    2.2017    0.1139   N.ar      1 RES1   0.0000
   139 C69       3.8710    2.2909   -3.2953   C.ar      1 RES1   0.0000
   140 C70       4.0850    2.7452   -4.5932   C.ar      1 RES1   0.0000
   141 C71       5.1620    3.5682   -4.8636   C.ar      1 RES1   0.0000
   142 C72       6.0331    3.9817   -3.8658   C.ar      1 RES1   0.0000
   143 C73       7.1421    4.9320   -4.1383   C.3       1 RES1   0.0000
   144 C74       5.8426    3.4750   -2.5833   C.ar      1 RES1   0.0000
   145 C75       4.7957    2.6233   -2.3062   C.ar      1 RES1   0.0000
   146 H55       3.5362   -1.3482   -4.8658   H         1 RES1   0.0000
   147 H56       4.0378   -1.1728   -3.1775   H         1 RES1   0.0000
   148 H57       4.6963   -0.0981   -4.4156   H         1 RES1   0.0000
   149 H58       1.7363   -0.2458   -3.6284   H         1 RES1   0.0000
   150 H59       2.4299    0.7883   -4.8901   H         1 RES1   0.0000
   151 H60       2.9704    4.0625   -1.9049   H         1 RES1   0.0000
   152 H61       2.1602    5.8006   -0.3626   H         1 RES1   0.0000
   153 H62       0.5444    5.2592    1.3833   H         1 RES1   0.0000
   154 H63       0.6135    4.5056    3.1986   H         1 RES1   0.0000
   155 H64      -0.2171    4.1367    4.6748   H         1 RES1   0.0000
   156 H65      -1.5639    5.6821    2.3908   H         1 RES1   0.0000
   157 H66      -0.9012    6.3664    3.8837   H         1 RES1   0.0000
   158 H67      -2.2795    5.2773    3.9366   H         1 RES1   0.0000
   159 H68      -1.4281    3.2088    5.6903   H         1 RES1   0.0000
   160 H69      -3.3718    2.4752    6.8298   H         1 RES1   0.0000
   161 H70      -6.0327    1.9519    6.3299   H         1 RES1   0.0000
   162 H71      -5.2067    0.4320    6.6522   H         1 RES1   0.0000
   163 H72      -6.2165    0.5999    5.2034   H         1 RES1   0.0000
   164 H73      -4.9904    0.9637    3.1996   H         1 RES1   0.0000
   165 H74      -3.0498    1.7870    1.9879   H         1 RES1   0.0000
   166 H75       3.4390    2.4657   -5.4111   H         1 RES1   0.0000
   167 H76       5.3356    3.8770   -5.8810   H         1 RES1   0.0000
   168 H77       7.1651    5.2160   -5.1856   H         1 RES1   0.0000
   169 H78       8.0970    4.4894   -3.8620   H         1 RES1   0.0000
   170 H79       7.0057    5.8251   -3.5300   H         1 RES1   0.0000
   171 H80       6.5432    3.7296   -1.8072   H         1 RES1   0.0000
   172 H81       4.6686    2.1818   -1.3287   H         1 RES1   0.0000
@<TRIPOS>BOND
     1     1     6    1
     2     1    13    1
     3     1    24    1
     4     1    63    1
     5     1    70    1
     6     1    81    1
     7     1   120    1
     8     1   127    1
     9     1   138    1
    10     2     3    1
    11     2    32    1
    12     2    33    1
    13     2    34    1
    14     3     4    1
    15     3    35    1
    16     3    36    1
    17     4     5    1
    18     4    25    1
    19     5     6    2
    20     5     7    1
    21     7     8    1
    22     7    24    2
    23     8     9    2
    24     8    37    1
    25     9    10    1
    26     9    38    1
    27    10    11    2
    28    10    39    1
    29    11    12    1
    30    11    24    1
    31    12    13    2
    32    12    14    1
    33    14    15    1
    34    14    17    1
    35    15    16    1
    36    15    40    1
    37    15    41    1
    38    16    42    1
    39    16    43    1
    40    16    44    1
    41    17    18    1
    42    17    23    2
    43    18    19    2
    44    18    45    1
    45    19    20    1
    46    19    46    1
    47    20    21    1
    48    20    22    2
    49    21    47    1
    50    21    48    1
    51    21    49    1
    52    22    23    1
    53    22    50    1
    54    23    51    1
    55    25    26    1
    56    25    31    2
    57    26    27    2
    58    26    52    1
    59    27    28    1
    60    27    53    1
    61    28    29    1
    62    28    30    2
    63    29    54    1
    64    29    55    1
    65    29    56    1
    66    30    31    1
    67    30    57    1
    68    31    58    1
    69    59    60    1
    70    59    89    1
    71    59    90    1
    72    59    91    1
    73    60    61    1
    74    60    92    1
    75    60    93    1
    76    61    62    1
    77    61    82    1
    78    62    63    2
    79    62    64    1
    80    64    65    1
    81    64    81    2
    82    65    66    2
    83    65    94    1
    84    66    67    1
    85    66    95    1
    86    67    68    2
    87    67    96    1
    88    68    69    1
    89    68    81    1
    90    69    70    2
    91    69    71    1
    92    71    72    1
    93    71    74    1
    94    72    73    1
    95    72    97    1
    96    72    98    1
    97    73    99    1
    98    73   100    1
    99    73   101    1
   100    74    75    1
   101    74    80    2
   102    75    76    2
   103    75   102    1
   104    76    77    1
   105    76   103    1
   106    77    78    1
   107    77    79    2
   108    78   104    1
   109    78   105    1
   110    78   106    1
   111    79    80    1
   112    79   107    1
   113    80   108    1
   114    82    83    1
   115    82    88    2
   116    83    84    2
   117    83   109    1
   118    84    85    1
   119    84   110    1
   120    85    86    1
   121    85    87    2
   122    86   111    1
   123    86   112    1
   124    86   113    1
   125    87    88    1
   126    87   114    1
   127    88   115    1
   128   116   117    1
   129   116   146    1
   130   116   147    1
   131   116   148    1
   132   117   118    1
   133   117   149    1
   134   117   150    1
   135   118   119    1
   136   118   139    1
   137   119   120    2
   138   119   121    1
   139   121   122    1
   140   121   138    2
   141   122   123    2
   142   122   151    1
   143   123   124    1
   144   123   152    1
   145   124   125    2
   146   124   153    1
   147   125   126    1
   148   125   138    1
   149   126   127    2
   150   126   128    1
   151   128   129    1
   152   128   131    1
   153   129   130    1
   154   129   154    1
   155   129   155    1
   156   130   156    1
   157   130   157    1
   158   130   158    1
   159   131   132    1
   160   131   137    2
   161   132   133    2
   162   132   159    1
   163   133   134    1
   164   133   160    1
   165   134   135    1
   166   134   136    2
   167   135   161    1
   168   135   162    1
   169   135   163    1
   170   136   137    1
   171   136   164    1
   172   137   165    1
   173   139   140    1
   174   139   145    2
   175   140   141    2
   176   140   166    1
   177   141   142    1
   178   141   167    1
   179   142   143    1
   180   142   144    2
   181   143   168    1
   182   143   169    1
   183   143   170    1
   184   144   145    1
   185   144   171    1
   186   145   172    1
@<TRIPOS>SUBSTRUCTURE
     1 RES1      172 GROUP             0 ****  ****    0  
