@<TRIPOS>MOLECULE
am_c3_9H2O_c0_0_nunpairedes_0_charge_3 Charge: 3 Unpaired_Electrons: 3 XTB_Unpaired_Electrons: 0 XTB_Charge: 3
   176   179     1     0     0
SMALL
NoCharges
****
Generated from Architector

@<TRIPOS>ATOM
     1 Nd1      -0.0589   -0.0516   -0.0876   Nd        1 RES1   0.0000
     2 C1       -0.3174    5.8847   -0.2617   C.3       1 RES1   0.0000
     3 C2        0.6982    6.2066    0.8316   C.3       1 RES1   0.0000
     4 C3        1.2444    4.9597    1.5391   C.3       1 RES1   0.0000
     5 C4        2.4651    4.3115    0.8714   C.3       1 RES1   0.0000
     6 N1        2.2639    4.0219   -0.5416   N.am      1 RES1   0.0000
     7 C5        2.8917    4.8748   -1.5317   C.3       1 RES1   0.0000
     8 C6        1.5584    2.9386   -0.8588   C.2       1 RES1   0.0000
     9 O1        1.1898    2.1265    0.0094   O.2       1 RES1   0.0000
    10 C7        1.1874    2.7268   -2.3096   C.3       1 RES1   0.0000
    11 C8       -0.3001    2.3926   -2.4463   C.2       1 RES1   0.0000
    12 O2       -0.8718    1.6960   -1.5902   O.2       1 RES1   0.0000
    13 N2       -0.9255    2.8582   -3.5201   N.am      1 RES1   0.0000
    14 C9       -0.3034    3.7326   -4.4977   C.3       1 RES1   0.0000
    15 C10      -2.3300    2.5289   -3.7335   C.3       1 RES1   0.0000
    16 C11      -3.2062    3.7622   -3.5026   C.3       1 RES1   0.0000
    17 C12      -4.6044    3.6415   -4.1051   C.3       1 RES1   0.0000
    18 C13      -5.4703    2.5767   -3.4525   C.3       1 RES1   0.0000
    19 H1       -0.6777    6.8026   -0.7163   H         1 RES1   0.0000
    20 H2       -1.1790    5.3708    0.1591   H         1 RES1   0.0000
    21 H3        0.1073    5.2666   -1.0498   H         1 RES1   0.0000
    22 H4        0.2102    6.8391    1.5758   H         1 RES1   0.0000
    23 H5        1.5189    6.7854    0.4092   H         1 RES1   0.0000
    24 H6        0.4383    4.2253    1.6171   H         1 RES1   0.0000
    25 H7        1.5508    5.2221    2.5540   H         1 RES1   0.0000
    26 H8        2.7007    3.3726    1.3865   H         1 RES1   0.0000
    27 H9        3.3211    4.9760    0.9578   H         1 RES1   0.0000
    28 H10       3.4892    5.6202   -1.0148   H         1 RES1   0.0000
    29 H11       2.1622    5.4068   -2.1485   H         1 RES1   0.0000
    30 H12       3.5513    4.2768   -2.1661   H         1 RES1   0.0000
    31 H13       1.7062    1.8320   -2.6612   H         1 RES1   0.0000
    32 H14       1.4573    3.5759   -2.9185   H         1 RES1   0.0000
    33 H15       0.5610    3.2488   -4.9573   H         1 RES1   0.0000
    34 H16      -0.0032    4.6839   -4.0478   H         1 RES1   0.0000
    35 H17      -1.0286    3.9522   -5.2771   H         1 RES1   0.0000
    36 H18      -2.5897    1.7204   -3.0453   H         1 RES1   0.0000
    37 H19      -2.4290    2.1672   -4.7598   H         1 RES1   0.0000
    38 H20      -2.7231    4.6235   -3.9680   H         1 RES1   0.0000
    39 H21      -3.2727    3.9573   -2.4295   H         1 RES1   0.0000
    40 H22      -4.5191    3.4423   -5.1738   H         1 RES1   0.0000
    41 H23      -5.0961    4.6066   -3.9853   H         1 RES1   0.0000
    42 H24      -5.0667    1.5799   -3.6091   H         1 RES1   0.0000
    43 H25      -6.4673    2.6026   -3.8812   H         1 RES1   0.0000
    44 H26      -5.5525    2.7676   -2.3875   H         1 RES1   0.0000
    45 C14       2.9382   -2.8835    4.2249   C.3       1 RES1   0.0000
    46 C15       4.2686   -2.1834    3.9739   C.3       1 RES1   0.0000
    47 C16       4.1641   -1.0323    2.9678   C.3       1 RES1   0.0000
    48 C17       3.6105    0.2880    3.5175   C.3       1 RES1   0.0000
    49 N3        2.2386    0.2121    4.0099   N.am      1 RES1   0.0000
    50 C18       2.0149    0.4013    5.4334   C.3       1 RES1   0.0000
    51 C19       1.2584    0.1431    3.1091   C.2       1 RES1   0.0000
    52 O3        1.4940    0.1282    1.8866   O.2       1 RES1   0.0000
    53 C20      -0.1836    0.0680    3.5978   C.3       1 RES1   0.0000
    54 C21      -0.8394   -1.1991    3.0599   C.2       1 RES1   0.0000
    55 O4       -0.7699   -1.4483    1.8425   O.2       1 RES1   0.0000
    56 N4       -1.5222   -1.9782    3.8954   N.am      1 RES1   0.0000
    57 C22      -1.6224   -1.7436    5.3253   C.3       1 RES1   0.0000
    58 C23      -2.2670   -3.0966    3.3231   C.3       1 RES1   0.0000
    59 C24      -1.3681   -4.2985    3.0189   C.3       1 RES1   0.0000
    60 C25      -2.1634   -5.5677    2.7029   C.3       1 RES1   0.0000
    61 C26      -2.9521   -5.5059    1.4019   C.3       1 RES1   0.0000
    62 H27       3.0834   -3.7422    4.8735   H         1 RES1   0.0000
    63 H28       2.5055   -3.2326    3.2893   H         1 RES1   0.0000
    64 H29       2.2265   -2.2201    4.7046   H         1 RES1   0.0000
    65 H30       4.9761   -2.9146    3.5768   H         1 RES1   0.0000
    66 H31       4.6808   -1.8245    4.9173   H         1 RES1   0.0000
    67 H32       3.5393   -1.3509    2.1316   H         1 RES1   0.0000
    68 H33       5.1646   -0.8006    2.5915   H         1 RES1   0.0000
    69 H34       3.6376    1.0386    2.7181   H         1 RES1   0.0000
    70 H35       4.2441    0.6347    4.3307   H         1 RES1   0.0000
    71 H36       2.9804    0.4705    5.9273   H         1 RES1   0.0000
    72 H37       1.4794   -0.4349    5.8893   H         1 RES1   0.0000
    73 H38       1.4702    1.3319    5.6139   H         1 RES1   0.0000
    74 H39      -0.7399    0.8921    3.1279   H         1 RES1   0.0000
    75 H40      -0.2579    0.1451    4.6729   H         1 RES1   0.0000
    76 H41      -2.1260   -0.7938    5.5207   H         1 RES1   0.0000
    77 H42      -0.6453   -1.7562    5.8156   H         1 RES1   0.0000
    78 H43      -2.2171   -2.5382    5.7688   H         1 RES1   0.0000
    79 H44      -2.7360   -2.7352    2.4044   H         1 RES1   0.0000
    80 H45      -3.0468   -3.3808    4.0286   H         1 RES1   0.0000
    81 H46      -0.7400   -4.4952    3.8911   H         1 RES1   0.0000
    82 H47      -0.7099   -4.0419    2.1840   H         1 RES1   0.0000
    83 H48      -2.8448   -5.7788    3.5270   H         1 RES1   0.0000
    84 H49      -1.4637   -6.4010    2.6425   H         1 RES1   0.0000
    85 H50      -3.7520   -4.7719    1.4558   H         1 RES1   0.0000
    86 H51      -3.4021   -6.4749    1.2093   H         1 RES1   0.0000
    87 H52      -2.2947   -5.2639    0.5709   H         1 RES1   0.0000
    88 C27       2.9946   -3.1534   -4.5127   C.3       1 RES1   0.0000
    89 C28       2.4976   -2.1641   -5.5569   C.3       1 RES1   0.0000
    90 C29       1.8784   -0.9025   -4.9550   C.3       1 RES1   0.0000
    91 C30       2.8814    0.0832   -4.3523   C.3       1 RES1   0.0000
    92 N5        3.4882   -0.3335   -3.0840   N.am      1 RES1   0.0000
    93 C31       4.9378   -0.4108   -3.0102   C.3       1 RES1   0.0000
    94 C32       2.7066   -0.4199   -2.0058   C.2       1 RES1   0.0000
    95 O5        1.4928   -0.1600   -2.0502   O.2       1 RES1   0.0000
    96 C33       3.2951   -0.8035   -0.6556   C.3       1 RES1   0.0000
    97 C34       2.5577   -2.0617   -0.1849   C.2       1 RES1   0.0000
    98 O6        1.3259   -2.0152   -0.0317   O.2       1 RES1   0.0000
    99 N6        3.2607   -3.1652    0.0539   N.am      1 RES1   0.0000
   100 C35       4.6867   -3.3024   -0.1829   C.3       1 RES1   0.0000
   101 C36       2.5474   -4.3643    0.4786   C.3       1 RES1   0.0000
   102 C37       2.3774   -5.3265   -0.6985   C.3       1 RES1   0.0000
   103 C38       1.7717   -6.6677   -0.2906   C.3       1 RES1   0.0000
   104 C39       0.3658   -6.5423    0.2739   C.3       1 RES1   0.0000
   105 H53       3.3587   -4.0543   -4.9964   H         1 RES1   0.0000
   106 H54       2.1906   -3.4310   -3.8340   H         1 RES1   0.0000
   107 H55       3.8096   -2.7339   -3.9324   H         1 RES1   0.0000
   108 H56       1.7402   -2.6525   -6.1726   H         1 RES1   0.0000
   109 H57       3.3193   -1.8858   -6.2180   H         1 RES1   0.0000
   110 H58       1.1484   -1.1647   -4.1889   H         1 RES1   0.0000
   111 H59       1.3615   -0.3573   -5.7504   H         1 RES1   0.0000
   112 H60       2.3540    1.0284   -4.1846   H         1 RES1   0.0000
   113 H61       3.6806    0.2648   -5.0675   H         1 RES1   0.0000
   114 H62       5.3458   -0.2383   -4.0028   H         1 RES1   0.0000
   115 H63       5.2923   -1.3890   -2.6775   H         1 RES1   0.0000
   116 H64       5.3208    0.3645   -2.3408   H         1 RES1   0.0000
   117 H65       3.0090   -0.0020    0.0440   H         1 RES1   0.0000
   118 H66       4.3697   -0.9176   -0.6621   H         1 RES1   0.0000
   119 H67       5.2569   -2.6148    0.4457   H         1 RES1   0.0000
   120 H68       4.9399   -3.1494   -1.2351   H         1 RES1   0.0000
   121 H69       4.9868   -4.3155    0.0750   H         1 RES1   0.0000
   122 H70       1.5740   -4.0493    0.8631   H         1 RES1   0.0000
   123 H71       3.1167   -4.8328    1.2840   H         1 RES1   0.0000
   124 H72       3.3557   -5.5134   -1.1472   H         1 RES1   0.0000
   125 H73       1.7452   -4.8433   -1.4492   H         1 RES1   0.0000
   126 H74       2.4169   -7.1478    0.4451   H         1 RES1   0.0000
   127 H75       1.7463   -7.3059   -1.1732   H         1 RES1   0.0000
   128 H76       0.3768   -6.0262    1.2289   H         1 RES1   0.0000
   129 H77      -0.0623   -7.5281    0.4255   H         1 RES1   0.0000
   130 H78      -0.2719   -5.9950   -0.4171   H         1 RES1   0.0000
   131 C40      -4.0219   -1.2304   -4.4737   C.3       1 RES1   0.0000
   132 C41      -2.9249   -1.6398   -5.4471   C.3       1 RES1   0.0000
   133 C42      -1.5350   -1.6997   -4.8088   C.3       1 RES1   0.0000
   134 C43      -1.2377   -2.9619   -3.9904   C.3       1 RES1   0.0000
   135 N7       -2.0663   -3.1259   -2.7988   N.am      1 RES1   0.0000
   136 C44      -2.9973   -4.2396   -2.7341   C.3       1 RES1   0.0000
   137 C45      -1.7861   -2.3361   -1.7624   C.2       1 RES1   0.0000
   138 O7       -0.8977   -1.4705   -1.8164   O.2       1 RES1   0.0000
   139 C46      -2.5655   -2.5019   -0.4675   C.3       1 RES1   0.0000
   140 C47      -3.1336   -1.1520   -0.0403   C.2       1 RES1   0.0000
   141 O8       -2.3898   -0.1571   -0.0026   O.2       1 RES1   0.0000
   142 N8       -4.4020   -1.0798    0.3545   N.am      1 RES1   0.0000
   143 C48      -5.3799   -2.1375    0.1820   C.3       1 RES1   0.0000
   144 C49      -4.8732    0.1860    0.9075   C.3       1 RES1   0.0000
   145 C50      -5.5959    1.0100   -0.1564   C.3       1 RES1   0.0000
   146 C51      -6.1351    2.3377    0.3771   C.3       1 RES1   0.0000
   147 C52      -5.0489    3.3348    0.7612   C.3       1 RES1   0.0000
   148 H79      -4.9707   -1.1369   -4.9940   H         1 RES1   0.0000
   149 H80      -3.7861   -0.2703   -4.0187   H         1 RES1   0.0000
   150 H81      -4.1435   -1.9640   -3.6841   H         1 RES1   0.0000
   151 H82      -2.8922   -0.9088   -6.2575   H         1 RES1   0.0000
   152 H83      -3.1680   -2.6043   -5.8944   H         1 RES1   0.0000
   153 H84      -1.3839   -0.8250   -4.1708   H         1 RES1   0.0000
   154 H85      -0.7892   -1.6769   -5.6070   H         1 RES1   0.0000
   155 H86      -0.1977   -2.9131   -3.6455   H         1 RES1   0.0000
   156 H87      -1.3575   -3.8413   -4.6200   H         1 RES1   0.0000
   157 H88      -3.0324   -4.7282   -3.7047   H         1 RES1   0.0000
   158 H89      -4.0163   -3.9213   -2.4984   H         1 RES1   0.0000
   159 H90      -2.6660   -4.9739   -1.9943   H         1 RES1   0.0000
   160 H91      -1.8185   -2.7603    0.2985   H         1 RES1   0.0000
   161 H92      -3.3174   -3.2756   -0.5228   H         1 RES1   0.0000
   162 H93      -5.1387   -3.0011    0.8057   H         1 RES1   0.0000
   163 H94      -5.4637   -2.4489   -0.8622   H         1 RES1   0.0000
   164 H95      -6.3542   -1.7626    0.4860   H         1 RES1   0.0000
   165 H96      -3.9988    0.7295    1.2768   H         1 RES1   0.0000
   166 H97      -5.5371   -0.0426    1.7431   H         1 RES1   0.0000
   167 H98      -6.4318    0.4262   -0.5494   H         1 RES1   0.0000
   168 H99      -4.8955    1.1893   -0.9755   H         1 RES1   0.0000
   169 H100     -6.7755    2.1464    1.2383   H         1 RES1   0.0000
   170 H101     -6.7619    2.7801   -0.3981   H         1 RES1   0.0000
   171 H102     -4.4774    2.9934    1.6203   H         1 RES1   0.0000
   172 H103     -5.5060    4.2852    1.0202   H         1 RES1   0.0000
   173 H104     -4.3663    3.5011   -0.0705   H         1 RES1   0.0000
   174 O9       -1.2189    2.0232    1.2534   O.3       1 RES1   0.0000
   175 H105     -1.6592    2.2756    0.4245   H         1 RES1   0.0000
   176 H106     -0.5325    2.6933    1.4120   H         1 RES1   0.0000
@<TRIPOS>BOND
     1     1     9    1
     2     1    12    1
     3     1    52    1
     4     1    55    1
     5     1    95    1
     6     1    98    1
     7     1   138    1
     8     1   141    1
     9     1   174    1
    10     2     3    1
    11     2    19    1
    12     2    20    1
    13     2    21    1
    14     3     4    1
    15     3    22    1
    16     3    23    1
    17     4     5    1
    18     4    24    1
    19     4    25    1
    20     5     6    1
    21     5    26    1
    22     5    27    1
    23     6     7    1
    24     6     8    1
    25     7    28    1
    26     7    29    1
    27     7    30    1
    28     8     9    2
    29     8    10    1
    30    10    11    1
    31    10    31    1
    32    10    32    1
    33    11    12    2
    34    11    13    1
    35    13    14    1
    36    13    15    1
    37    14    33    1
    38    14    34    1
    39    14    35    1
    40    15    16    1
    41    15    36    1
    42    15    37    1
    43    16    17    1
    44    16    38    1
    45    16    39    1
    46    17    18    1
    47    17    40    1
    48    17    41    1
    49    18    42    1
    50    18    43    1
    51    18    44    1
    52    45    46    1
    53    45    62    1
    54    45    63    1
    55    45    64    1
    56    46    47    1
    57    46    65    1
    58    46    66    1
    59    47    48    1
    60    47    67    1
    61    47    68    1
    62    48    49    1
    63    48    69    1
    64    48    70    1
    65    49    50    1
    66    49    51    1
    67    50    71    1
    68    50    72    1
    69    50    73    1
    70    51    52    2
    71    51    53    1
    72    53    54    1
    73    53    74    1
    74    53    75    1
    75    54    55    2
    76    54    56    1
    77    56    57    1
    78    56    58    1
    79    57    76    1
    80    57    77    1
    81    57    78    1
    82    58    59    1
    83    58    79    1
    84    58    80    1
    85    59    60    1
    86    59    81    1
    87    59    82    1
    88    60    61    1
    89    60    83    1
    90    60    84    1
    91    61    85    1
    92    61    86    1
    93    61    87    1
    94    88    89    1
    95    88   105    1
    96    88   106    1
    97    88   107    1
    98    89    90    1
    99    89   108    1
   100    89   109    1
   101    90    91    1
   102    90   110    1
   103    90   111    1
   104    91    92    1
   105    91   112    1
   106    91   113    1
   107    92    93    1
   108    92    94    1
   109    93   114    1
   110    93   115    1
   111    93   116    1
   112    94    95    2
   113    94    96    1
   114    96    97    1
   115    96   117    1
   116    96   118    1
   117    97    98    2
   118    97    99    1
   119    99   100    1
   120    99   101    1
   121   100   119    1
   122   100   120    1
   123   100   121    1
   124   101   102    1
   125   101   122    1
   126   101   123    1
   127   102   103    1
   128   102   124    1
   129   102   125    1
   130   103   104    1
   131   103   126    1
   132   103   127    1
   133   104   128    1
   134   104   129    1
   135   104   130    1
   136   131   132    1
   137   131   148    1
   138   131   149    1
   139   131   150    1
   140   132   133    1
   141   132   151    1
   142   132   152    1
   143   133   134    1
   144   133   153    1
   145   133   154    1
   146   134   135    1
   147   134   155    1
   148   134   156    1
   149   135   136    1
   150   135   137    1
   151   136   157    1
   152   136   158    1
   153   136   159    1
   154   137   138    2
   155   137   139    1
   156   139   140    1
   157   139   160    1
   158   139   161    1
   159   140   141    2
   160   140   142    1
   161   142   143    1
   162   142   144    1
   163   143   162    1
   164   143   163    1
   165   143   164    1
   166   144   145    1
   167   144   165    1
   168   144   166    1
   169   145   146    1
   170   145   167    1
   171   145   168    1
   172   146   147    1
   173   146   169    1
   174   146   170    1
   175   147   171    1
   176   147   172    1
   177   147   173    1
   178   174   175    1
   179   174   176    1
@<TRIPOS>SUBSTRUCTURE
     1 RES1      176 GROUP             0 ****  ****    0  
