@<TRIPOS>MOLECULE
cn9_YICLED_0_nunpairedes_0_charge_3 Charge: 3 Unpaired_Electrons: 3 XTB_Unpaired_Electrons: 0 XTB_Charge: 3
   277   282     1     0     0
SMALL
NoCharges
****
Generated from Architector

@<TRIPOS>ATOM
     1 Nd1      -0.3844   -0.2753    0.0468   Nd        1 RES1   0.0000
     2 C1       -3.0253    1.4192    7.8479   C.3       1 RES1   0.0000
     3 C2       -4.0510    0.2978    8.0052   C.3       1 RES1   0.0000
     4 C3       -3.8925   -0.8398    6.9946   C.3       1 RES1   0.0000
     5 C4       -4.0485   -0.4566    5.5202   C.3       1 RES1   0.0000
     6 C5       -5.4862   -0.1301    5.1195   C.3       1 RES1   0.0000
     7 C6       -5.6980    0.1277    3.6152   C.3       1 RES1   0.0000
     8 C7       -5.6128    1.5958    3.1576   C.3       1 RES1   0.0000
     9 C8       -4.3392    1.9835    2.3921   C.3       1 RES1   0.0000
    10 N1       -3.1298    1.6425    3.1332   N.am      1 RES1   0.0000
    11 C9       -2.8525    2.5122    4.2562   C.3       1 RES1   0.0000
    12 C10      -2.2377    0.8264    2.5696   C.2       1 RES1   0.0000
    13 O1       -2.2188    0.6074    1.3462   O.2       1 RES1   0.0000
    14 C11      -1.2618    0.0196    3.4509   C.3       1 RES1   0.0000
    15 O2       -0.4953   -0.7776    2.5551   O.3       1 RES1   0.0000
    16 C12      -0.3100   -2.1522    2.8813   C.3       1 RES1   0.0000
    17 C13       0.1953   -2.8334    1.5984   C.2       1 RES1   0.0000
    18 O3       -0.2528   -2.3985    0.5155   O.2       1 RES1   0.0000
    19 N2        1.0126   -3.8772    1.5951   N.am      1 RES1   0.0000
    20 C14       1.6797   -4.4832    2.7383   C.3       1 RES1   0.0000
    21 C15       3.1459   -4.8265    2.4474   C.3       1 RES1   0.0000
    22 C16       3.8803   -5.3313    3.6930   C.3       1 RES1   0.0000
    23 C17       5.2130   -6.0102    3.3510   C.3       1 RES1   0.0000
    24 C18       6.3603   -5.0433    3.0433   C.3       1 RES1   0.0000
    25 C19       7.5633   -5.7553    2.4123   C.3       1 RES1   0.0000
    26 C20       7.3332   -6.2680    0.9885   C.3       1 RES1   0.0000
    27 C21       6.9127   -5.1898   -0.0026   C.3       1 RES1   0.0000
    28 C22       1.2166   -4.5011    0.2839   C.3       1 RES1   0.0000
    29 C23       2.3607   -3.8492   -0.4993   C.3       1 RES1   0.0000
    30 C24       2.2689   -4.1481   -2.0032   C.3       1 RES1   0.0000
    31 C25       3.6197   -4.5047   -2.6339   C.3       1 RES1   0.0000
    32 C26       4.7361   -3.4763   -2.4469   C.3       1 RES1   0.0000
    33 C27       4.5670   -2.1952   -3.2597   C.3       1 RES1   0.0000
    34 C28       5.7893   -1.2913   -3.0906   C.3       1 RES1   0.0000
    35 C29       5.8012   -0.0997   -4.0419   C.3       1 RES1   0.0000
    36 H1       -3.0157    2.0379    8.7418   H         1 RES1   0.0000
    37 H2       -2.0239    1.0114    7.7088   H         1 RES1   0.0000
    38 H3       -3.2650    2.0646    7.0062   H         1 RES1   0.0000
    39 H4       -3.9315   -0.1389    8.9986   H         1 RES1   0.0000
    40 H5       -5.0567    0.7154    7.9523   H         1 RES1   0.0000
    41 H6       -2.8971   -1.2669    7.1385   H         1 RES1   0.0000
    42 H7       -4.6236   -1.6136    7.2312   H         1 RES1   0.0000
    43 H8       -3.4025    0.3895    5.3081   H         1 RES1   0.0000
    44 H9       -3.7166   -1.3083    4.9135   H         1 RES1   0.0000
    45 H10      -6.1040   -0.9823    5.4079   H         1 RES1   0.0000
    46 H11      -5.8437    0.7281    5.6867   H         1 RES1   0.0000
    47 H12      -4.9926   -0.4749    3.0401   H         1 RES1   0.0000
    48 H13      -6.6960   -0.2352    3.3713   H         1 RES1   0.0000
    49 H14      -6.4402    1.7946    2.4751   H         1 RES1   0.0000
    50 H15      -5.7551    2.2511    4.0152   H         1 RES1   0.0000
    51 H16      -4.3042    1.4346    1.4487   H         1 RES1   0.0000
    52 H17      -4.3445    3.0591    2.1829   H         1 RES1   0.0000
    53 H18      -3.7663    2.6823    4.8232   H         1 RES1   0.0000
    54 H19      -2.0824    2.1151    4.9114   H         1 RES1   0.0000
    55 H20      -2.5139    3.4789    3.8671   H         1 RES1   0.0000
    56 H21      -0.5981    0.6696    4.0289   H         1 RES1   0.0000
    57 H22      -1.8484   -0.5998    4.1389   H         1 RES1   0.0000
    58 H23       0.3788   -2.2620    3.7207   H         1 RES1   0.0000
    59 H24      -1.2678   -2.6293    3.1427   H         1 RES1   0.0000
    60 H25       1.6376   -3.7934    3.5828   H         1 RES1   0.0000
    61 H26       1.1360   -5.3909    3.0144   H         1 RES1   0.0000
    62 H27       3.2045   -5.6126    1.6951   H         1 RES1   0.0000
    63 H28       3.6426   -3.9317    2.0710   H         1 RES1   0.0000
    64 H29       4.0595   -4.4982    4.3743   H         1 RES1   0.0000
    65 H30       3.2398   -6.0554    4.2005   H         1 RES1   0.0000
    66 H31       5.5113   -6.6354    4.1930   H         1 RES1   0.0000
    67 H32       5.0626   -6.6778    2.5023   H         1 RES1   0.0000
    68 H33       6.0220   -4.2453    2.3777   H         1 RES1   0.0000
    69 H34       6.6861   -4.5744    3.9759   H         1 RES1   0.0000
    70 H35       8.4106   -5.0667    2.4016   H         1 RES1   0.0000
    71 H36       7.8412   -6.6015    3.0443   H         1 RES1   0.0000
    72 H37       8.2663   -6.7136    0.6446   H         1 RES1   0.0000
    73 H38       6.5822   -7.0587    0.9935   H         1 RES1   0.0000
    74 H39       7.6147   -4.3607    0.0030   H         1 RES1   0.0000
    75 H40       6.8862   -5.6069   -1.0043   H         1 RES1   0.0000
    76 H41       5.9217   -4.8075    0.2295   H         1 RES1   0.0000
    77 H42       1.4006   -5.5653    0.4287   H         1 RES1   0.0000
    78 H43       0.2815   -4.3772   -0.2693   H         1 RES1   0.0000
    79 H44       2.3175   -2.7644   -0.3342   H         1 RES1   0.0000
    80 H45       3.3158   -4.2141   -0.1260   H         1 RES1   0.0000
    81 H46       1.5995   -4.9942   -2.1783   H         1 RES1   0.0000
    82 H47       1.8288   -3.2787   -2.4907   H         1 RES1   0.0000
    83 H48       3.9521   -5.4490   -2.1973   H         1 RES1   0.0000
    84 H49       3.4741   -4.6733   -3.7033   H         1 RES1   0.0000
    85 H50       4.8385   -3.2225   -1.3901   H         1 RES1   0.0000
    86 H51       5.6704   -3.9475   -2.7542   H         1 RES1   0.0000
    87 H52       4.4651   -2.4565   -4.3149   H         1 RES1   0.0000
    88 H53       3.6555   -1.6743   -2.9499   H         1 RES1   0.0000
    89 H54       5.8518   -0.9405   -2.0562   H         1 RES1   0.0000
    90 H55       6.6813   -1.8886   -3.2804   H         1 RES1   0.0000
    91 H56       5.0711    0.6575   -3.7517   H         1 RES1   0.0000
    92 H57       6.7810    0.3696   -4.0454   H         1 RES1   0.0000
    93 H58       5.5850   -0.4256   -5.0574   H         1 RES1   0.0000
    94 C30      -6.6382   -0.7047   -4.6938   C.3       1 RES1   0.0000
    95 C31      -7.5573   -0.0472   -3.6671   C.3       1 RES1   0.0000
    96 C32      -6.8401    0.4829   -2.4221   C.3       1 RES1   0.0000
    97 C33      -5.9798   -0.5431   -1.6784   C.3       1 RES1   0.0000
    98 C34      -6.7910   -1.5737   -0.8964   C.3       1 RES1   0.0000
    99 C35      -5.9400   -2.5296   -0.0479   C.3       1 RES1   0.0000
   100 C36      -5.3150   -3.7134   -0.8083   C.3       1 RES1   0.0000
   101 C37      -3.8061   -3.5995   -1.0577   C.3       1 RES1   0.0000
   102 N3       -3.4399   -2.5773   -2.0360   N.am      1 RES1   0.0000
   103 C38      -3.6964   -2.9304   -3.4144   C.3       1 RES1   0.0000
   104 C39      -2.7974   -1.4898   -1.6256   C.2       1 RES1   0.0000
   105 O4       -2.4226   -1.3342   -0.4527   O.2       1 RES1   0.0000
   106 C40      -2.5618   -0.3219   -2.5996   C.3       1 RES1   0.0000
   107 O5       -1.6438    0.5602   -1.9597   O.3       1 RES1   0.0000
   108 C41      -1.7736    1.9303   -2.2947   C.3       1 RES1   0.0000
   109 C42      -0.9839    2.7051   -1.2271   C.2       1 RES1   0.0000
   110 O6       -0.4152    2.0581   -0.3246   O.2       1 RES1   0.0000
   111 N4       -0.9827    4.0316   -1.2573   N.am      1 RES1   0.0000
   112 C43      -1.5679    4.8630   -2.3099   C.3       1 RES1   0.0000
   113 C44      -0.5511    5.8154   -2.9796   C.3       1 RES1   0.0000
   114 C45      -0.9210    7.3106   -2.9183   C.3       1 RES1   0.0000
   115 C46       0.0418    8.1759   -2.0980   C.3       1 RES1   0.0000
   116 C47       1.4841    8.1670   -2.6202   C.3       1 RES1   0.0000
   117 C48       2.2232    9.4838   -2.3599   C.3       1 RES1   0.0000
   118 C49       2.3272    9.9104   -0.8948   C.3       1 RES1   0.0000
   119 C50       3.1057    8.9300   -0.0260   C.3       1 RES1   0.0000
   120 C51      -0.5497    4.7332   -0.0466   C.3       1 RES1   0.0000
   121 C52       0.9422    5.0845    0.0562   C.3       1 RES1   0.0000
   122 C53       1.7640    4.1689    0.9642   C.3       1 RES1   0.0000
   123 C54       3.0351    4.8860    1.4357   C.3       1 RES1   0.0000
   124 C55       4.0258    5.2845    0.3408   C.3       1 RES1   0.0000
   125 C56       4.6688    4.0763   -0.3286   C.3       1 RES1   0.0000
   126 C57       5.9300    4.4201   -1.1145   C.3       1 RES1   0.0000
   127 C58       6.5506    3.1659   -1.7204   C.3       1 RES1   0.0000
   128 H59      -7.1753   -0.8372   -5.6286   H         1 RES1   0.0000
   129 H60      -5.7637   -0.0848   -4.8932   H         1 RES1   0.0000
   130 H61      -6.3113   -1.6871   -4.3611   H         1 RES1   0.0000
   131 H62      -8.0552    0.8009   -4.1400   H         1 RES1   0.0000
   132 H63      -8.3301   -0.7579   -3.3758   H         1 RES1   0.0000
   133 H64      -6.2018    1.3178   -2.7266   H         1 RES1   0.0000
   134 H65      -7.5913    0.8823   -1.7393   H         1 RES1   0.0000
   135 H66      -5.3484   -1.0586   -2.3999   H         1 RES1   0.0000
   136 H67      -5.3291   -0.0126   -0.9719   H         1 RES1   0.0000
   137 H68      -7.4724   -1.0384   -0.2312   H         1 RES1   0.0000
   138 H69      -7.4037   -2.1581   -1.5828   H         1 RES1   0.0000
   139 H70      -5.1517   -1.9670    0.4574   H         1 RES1   0.0000
   140 H71      -6.5934   -2.9329    0.7268   H         1 RES1   0.0000
   141 H72      -5.4461   -4.6175   -0.2134   H         1 RES1   0.0000
   142 H73      -5.8551   -3.8785   -1.7398   H         1 RES1   0.0000
   143 H74      -3.3097   -3.3349   -0.1224   H         1 RES1   0.0000
   144 H75      -3.4135   -4.5588   -1.4104   H         1 RES1   0.0000
   145 H76      -3.7462   -2.0596   -4.0586   H         1 RES1   0.0000
   146 H77      -2.9153   -3.6040   -3.7812   H         1 RES1   0.0000
   147 H78      -4.6495   -3.4555   -3.4738   H         1 RES1   0.0000
   148 H79      -2.1289   -0.6458   -3.5489   H         1 RES1   0.0000
   149 H80      -3.5268    0.1716   -2.7676   H         1 RES1   0.0000
   150 H81      -1.3954    2.1198   -3.3084   H         1 RES1   0.0000
   151 H82      -2.8215    2.2541   -2.2404   H         1 RES1   0.0000
   152 H83      -2.0131    4.2251   -3.0692   H         1 RES1   0.0000
   153 H84      -2.3768    5.4472   -1.8616   H         1 RES1   0.0000
   154 H85       0.4197    5.6779   -2.5154   H         1 RES1   0.0000
   155 H86      -0.4424    5.5159   -4.0208   H         1 RES1   0.0000
   156 H87      -0.9445    7.7090   -3.9323   H         1 RES1   0.0000
   157 H88      -1.9290    7.4244   -2.5145   H         1 RES1   0.0000
   158 H89      -0.3368    9.1977   -2.1422   H         1 RES1   0.0000
   159 H90       0.0205    7.8724   -1.0494   H         1 RES1   0.0000
   160 H91       2.0432    7.3408   -2.1747   H         1 RES1   0.0000
   161 H92       1.4733    8.0068   -3.7013   H         1 RES1   0.0000
   162 H93       3.2308    9.3955   -2.7711   H         1 RES1   0.0000
   163 H94       1.7113   10.2721   -2.9146   H         1 RES1   0.0000
   164 H95       2.8370   10.8740   -0.8702   H         1 RES1   0.0000
   165 H96       1.3298   10.0592   -0.4787   H         1 RES1   0.0000
   166 H97       4.0740    8.7163   -0.4728   H         1 RES1   0.0000
   167 H98       3.2741    9.3557    0.9594   H         1 RES1   0.0000
   168 H99       2.5613    7.9962    0.0997   H         1 RES1   0.0000
   169 H100     -1.1401    5.6479    0.0009   H         1 RES1   0.0000
   170 H101     -0.8292    4.0946    0.7974   H         1 RES1   0.0000
   171 H102      1.3970    5.0974   -0.9324   H         1 RES1   0.0000
   172 H103      1.0159    6.0964    0.4566   H         1 RES1   0.0000
   173 H104      1.1747    3.9124    1.8500   H         1 RES1   0.0000
   174 H105      1.9944    3.2312    0.4510   H         1 RES1   0.0000
   175 H106      2.7284    5.7846    1.9741   H         1 RES1   0.0000
   176 H107      3.5582    4.2461    2.1495   H         1 RES1   0.0000
   177 H108      3.5505    5.9158   -0.4087   H         1 RES1   0.0000
   178 H109      4.8087    5.8789    0.8120   H         1 RES1   0.0000
   179 H110      4.9463    3.3650    0.4532   H         1 RES1   0.0000
   180 H111      3.9476    3.5970   -0.9984   H         1 RES1   0.0000
   181 H112      5.6944    5.1352   -1.9042   H         1 RES1   0.0000
   182 H113      6.6527    4.8886   -0.4451   H         1 RES1   0.0000
   183 H114      5.8623    2.6991   -2.4251   H         1 RES1   0.0000
   184 H115      7.4672    3.4103   -2.2489   H         1 RES1   0.0000
   185 H116      6.7930    2.4431   -0.9413   H         1 RES1   0.0000
   186 C59       0.8736    4.2744   -6.6337   C.3       1 RES1   0.0000
   187 C60      -0.2792    3.3801   -6.1912   C.3       1 RES1   0.0000
   188 C61      -0.6772    2.4143   -7.3070   C.3       1 RES1   0.0000
   189 C62      -1.8538    1.5139   -6.9390   C.3       1 RES1   0.0000
   190 C63      -1.5165    0.4103   -5.9354   C.3       1 RES1   0.0000
   191 C64      -0.7556   -0.7665   -6.5447   C.3       1 RES1   0.0000
   192 C65      -0.3848   -1.8146   -5.4886   C.3       1 RES1   0.0000
   193 C66       0.9826   -1.6896   -4.8040   C.3       1 RES1   0.0000
   194 N5        1.3628   -0.4213   -4.1721   N.am      1 RES1   0.0000
   195 C67       2.1005    0.5035   -5.0133   C.3       1 RES1   0.0000
   196 C68       1.2855   -0.2658   -2.8529   C.2       1 RES1   0.0000
   197 O7        0.5787   -0.9821   -2.1173   O.2       1 RES1   0.0000
   198 C69       2.1548    0.8209   -2.1910   C.3       1 RES1   0.0000
   199 O8        2.0194    0.6585   -0.7869   O.3       1 RES1   0.0000
   200 C70       3.2361    0.5612   -0.0524   C.3       1 RES1   0.0000
   201 C71       2.7806    0.2230    1.3748   C.2       1 RES1   0.0000
   202 O9        1.6939   -0.3876    1.4369   O.2       1 RES1   0.0000
   203 N6        3.4668    0.5478    2.4618   N.am      1 RES1   0.0000
   204 C72       4.6945    1.3297    2.4939   C.3       1 RES1   0.0000
   205 C73       5.9008    0.6710    3.1777   C.3       1 RES1   0.0000
   206 C74       6.9137    1.7414    3.6054   C.3       1 RES1   0.0000
   207 C75       7.4542    2.5843    2.4524   C.3       1 RES1   0.0000
   208 C76       8.3881    3.7096    2.9172   C.3       1 RES1   0.0000
   209 C77       7.6886    5.0658    3.0367   C.3       1 RES1   0.0000
   210 C78       6.6198    5.1731    4.1236   C.3       1 RES1   0.0000
   211 C79       6.1623    6.6182    4.2801   C.3       1 RES1   0.0000
   212 C80       2.8386    0.3064    3.7682   C.3       1 RES1   0.0000
   213 C81       3.1327   -1.0884    4.3384   C.3       1 RES1   0.0000
   214 C82       2.7560   -1.2485    5.8205   C.3       1 RES1   0.0000
   215 C83       1.2513   -1.3868    6.1258   C.3       1 RES1   0.0000
   216 C84       0.8221   -2.8404    6.4159   C.3       1 RES1   0.0000
   217 C85      -0.6512   -3.1540    6.0978   C.3       1 RES1   0.0000
   218 C86      -1.3711   -3.9812    7.1668   C.3       1 RES1   0.0000
   219 C87      -2.7265   -4.4723    6.6619   C.3       1 RES1   0.0000
   220 H117      1.2051    4.9232   -5.8258   H         1 RES1   0.0000
   221 H118      0.5624    4.8993   -7.4656   H         1 RES1   0.0000
   222 H119      1.7184    3.6731   -6.9627   H         1 RES1   0.0000
   223 H120     -1.1424    3.9998   -5.9314   H         1 RES1   0.0000
   224 H121      0.0158    2.8255   -5.2912   H         1 RES1   0.0000
   225 H122      0.1866    1.8120   -7.5911   H         1 RES1   0.0000
   226 H123     -0.9537    3.0050   -8.1797   H         1 RES1   0.0000
   227 H124     -2.2478    1.0430   -7.8396   H         1 RES1   0.0000
   228 H125     -2.6483    2.1378   -6.5238   H         1 RES1   0.0000
   229 H126     -2.4629    0.0278   -5.5415   H         1 RES1   0.0000
   230 H127     -0.9344    0.8174   -5.1037   H         1 RES1   0.0000
   231 H128      0.1308   -0.4224   -7.0757   H         1 RES1   0.0000
   232 H129     -1.3922   -1.2405   -7.2919   H         1 RES1   0.0000
   233 H130     -0.3544   -2.7983   -5.9596   H         1 RES1   0.0000
   234 H131     -1.1686   -1.8537   -4.7294   H         1 RES1   0.0000
   235 H132      1.7627   -1.9052   -5.5376   H         1 RES1   0.0000
   236 H133      1.0190   -2.4562   -4.0265   H         1 RES1   0.0000
   237 H134      1.7916    0.3547   -6.0451   H         1 RES1   0.0000
   238 H135      3.1777    0.3332   -4.9514   H         1 RES1   0.0000
   239 H136      1.8836    1.5350   -4.7430   H         1 RES1   0.0000
   240 H137      1.8241    1.8350   -2.4588   H         1 RES1   0.0000
   241 H138      3.1962    0.7016   -2.5078   H         1 RES1   0.0000
   242 H139      3.7912    1.5012   -0.1358   H         1 RES1   0.0000
   243 H140      3.8581   -0.2683   -0.4259   H         1 RES1   0.0000
   244 H141      4.4731    2.2537    3.0395   H         1 RES1   0.0000
   245 H142      4.9673    1.5831    1.4741   H         1 RES1   0.0000
   246 H143      6.3620   -0.0518    2.5016   H         1 RES1   0.0000
   247 H144      5.5920    0.1455    4.0800   H         1 RES1   0.0000
   248 H145      7.7444    1.2422    4.1039   H         1 RES1   0.0000
   249 H146      6.4437    2.3925    4.3431   H         1 RES1   0.0000
   250 H147      6.6302    3.0463    1.9079   H         1 RES1   0.0000
   251 H148      7.9799    1.9248    1.7594   H         1 RES1   0.0000
   252 H149      9.1909    3.8232    2.1868   H         1 RES1   0.0000
   253 H150      8.8501    3.4454    3.8694   H         1 RES1   0.0000
   254 H151      7.2358    5.3136    2.0727   H         1 RES1   0.0000
   255 H152      8.4510    5.8184    3.2426   H         1 RES1   0.0000
   256 H153      7.0271    4.8183    5.0719   H         1 RES1   0.0000
   257 H154      5.7552    4.5524    3.8699   H         1 RES1   0.0000
   258 H155      7.0075    7.2525    4.5280   H         1 RES1   0.0000
   259 H156      5.4237    6.7111    5.0708   H         1 RES1   0.0000
   260 H157      5.7255    6.9837    3.3536   H         1 RES1   0.0000
   261 H158      1.7629    0.4400    3.6268   H         1 RES1   0.0000
   262 H159      3.1956    1.0748    4.4561   H         1 RES1   0.0000
   263 H160      4.2045   -1.2703    4.2590   H         1 RES1   0.0000
   264 H161      2.6280   -1.8255    3.7117   H         1 RES1   0.0000
   265 H162      3.1716   -0.3983    6.3624   H         1 RES1   0.0000
   266 H163      3.2667   -2.1326    6.2047   H         1 RES1   0.0000
   267 H164      0.6761   -0.9615    5.3017   H         1 RES1   0.0000
   268 H165      1.0101   -0.7924    7.0056   H         1 RES1   0.0000
   269 H166      0.9995   -3.0393    7.4717   H         1 RES1   0.0000
   270 H167      1.4723   -3.5237    5.8618   H         1 RES1   0.0000
   271 H168     -0.7131   -3.7098    5.1593   H         1 RES1   0.0000
   272 H169     -1.2015   -2.2178    5.9678   H         1 RES1   0.0000
   273 H170     -1.5194   -3.3801    8.0649   H         1 RES1   0.0000
   274 H171     -0.7557   -4.8389    7.4386   H         1 RES1   0.0000
   275 H172     -3.3479   -3.6393    6.3367   H         1 RES1   0.0000
   276 H173     -3.2621   -4.9998    7.4462   H         1 RES1   0.0000
   277 H174     -2.6024   -5.1580    5.8253   H         1 RES1   0.0000
@<TRIPOS>BOND
     1     1    13    1
     2     1    15    1
     3     1    18    1
     4     1   105    1
     5     1   107    1
     6     1   110    1
     7     1   197    1
     8     1   199    1
     9     1   202    1
    10     2     3    1
    11     2    36    1
    12     2    37    1
    13     2    38    1
    14     3     4    1
    15     3    39    1
    16     3    40    1
    17     4     5    1
    18     4    41    1
    19     4    42    1
    20     5     6    1
    21     5    43    1
    22     5    44    1
    23     6     7    1
    24     6    45    1
    25     6    46    1
    26     7     8    1
    27     7    47    1
    28     7    48    1
    29     8     9    1
    30     8    49    1
    31     8    50    1
    32     9    10    1
    33     9    51    1
    34     9    52    1
    35    10    11    1
    36    10    12    1
    37    11    53    1
    38    11    54    1
    39    11    55    1
    40    12    13    2
    41    12    14    1
    42    14    15    1
    43    14    56    1
    44    14    57    1
    45    15    16    1
    46    16    17    1
    47    16    58    1
    48    16    59    1
    49    17    18    2
    50    17    19    1
    51    19    20    1
    52    19    28    1
    53    20    21    1
    54    20    60    1
    55    20    61    1
    56    21    22    1
    57    21    62    1
    58    21    63    1
    59    22    23    1
    60    22    64    1
    61    22    65    1
    62    23    24    1
    63    23    66    1
    64    23    67    1
    65    24    25    1
    66    24    68    1
    67    24    69    1
    68    25    26    1
    69    25    70    1
    70    25    71    1
    71    26    27    1
    72    26    72    1
    73    26    73    1
    74    27    74    1
    75    27    75    1
    76    27    76    1
    77    28    29    1
    78    28    77    1
    79    28    78    1
    80    29    30    1
    81    29    79    1
    82    29    80    1
    83    30    31    1
    84    30    81    1
    85    30    82    1
    86    31    32    1
    87    31    83    1
    88    31    84    1
    89    32    33    1
    90    32    85    1
    91    32    86    1
    92    33    34    1
    93    33    87    1
    94    33    88    1
    95    34    35    1
    96    34    89    1
    97    34    90    1
    98    35    91    1
    99    35    92    1
   100    35    93    1
   101    94    95    1
   102    94   128    1
   103    94   129    1
   104    94   130    1
   105    95    96    1
   106    95   131    1
   107    95   132    1
   108    96    97    1
   109    96   133    1
   110    96   134    1
   111    97    98    1
   112    97   135    1
   113    97   136    1
   114    98    99    1
   115    98   137    1
   116    98   138    1
   117    99   100    1
   118    99   139    1
   119    99   140    1
   120   100   101    1
   121   100   141    1
   122   100   142    1
   123   101   102    1
   124   101   143    1
   125   101   144    1
   126   102   103    1
   127   102   104    1
   128   103   145    1
   129   103   146    1
   130   103   147    1
   131   104   105    2
   132   104   106    1
   133   106   107    1
   134   106   148    1
   135   106   149    1
   136   107   108    1
   137   108   109    1
   138   108   150    1
   139   108   151    1
   140   109   110    2
   141   109   111    1
   142   111   112    1
   143   111   120    1
   144   112   113    1
   145   112   152    1
   146   112   153    1
   147   113   114    1
   148   113   154    1
   149   113   155    1
   150   114   115    1
   151   114   156    1
   152   114   157    1
   153   115   116    1
   154   115   158    1
   155   115   159    1
   156   116   117    1
   157   116   160    1
   158   116   161    1
   159   117   118    1
   160   117   162    1
   161   117   163    1
   162   118   119    1
   163   118   164    1
   164   118   165    1
   165   119   166    1
   166   119   167    1
   167   119   168    1
   168   120   121    1
   169   120   169    1
   170   120   170    1
   171   121   122    1
   172   121   171    1
   173   121   172    1
   174   122   123    1
   175   122   173    1
   176   122   174    1
   177   123   124    1
   178   123   175    1
   179   123   176    1
   180   124   125    1
   181   124   177    1
   182   124   178    1
   183   125   126    1
   184   125   179    1
   185   125   180    1
   186   126   127    1
   187   126   181    1
   188   126   182    1
   189   127   183    1
   190   127   184    1
   191   127   185    1
   192   186   187    1
   193   186   220    1
   194   186   221    1
   195   186   222    1
   196   187   188    1
   197   187   223    1
   198   187   224    1
   199   188   189    1
   200   188   225    1
   201   188   226    1
   202   189   190    1
   203   189   227    1
   204   189   228    1
   205   190   191    1
   206   190   229    1
   207   190   230    1
   208   191   192    1
   209   191   231    1
   210   191   232    1
   211   192   193    1
   212   192   233    1
   213   192   234    1
   214   193   194    1
   215   193   235    1
   216   193   236    1
   217   194   195    1
   218   194   196    1
   219   195   237    1
   220   195   238    1
   221   195   239    1
   222   196   197    2
   223   196   198    1
   224   198   199    1
   225   198   240    1
   226   198   241    1
   227   199   200    1
   228   200   201    1
   229   200   242    1
   230   200   243    1
   231   201   202    2
   232   201   203    1
   233   203   204    1
   234   203   212    1
   235   204   205    1
   236   204   244    1
   237   204   245    1
   238   205   206    1
   239   205   246    1
   240   205   247    1
   241   206   207    1
   242   206   248    1
   243   206   249    1
   244   207   208    1
   245   207   250    1
   246   207   251    1
   247   208   209    1
   248   208   252    1
   249   208   253    1
   250   209   210    1
   251   209   254    1
   252   209   255    1
   253   210   211    1
   254   210   256    1
   255   210   257    1
   256   211   258    1
   257   211   259    1
   258   211   260    1
   259   212   213    1
   260   212   261    1
   261   212   262    1
   262   213   214    1
   263   213   263    1
   264   213   264    1
   265   214   215    1
   266   214   265    1
   267   214   266    1
   268   215   216    1
   269   215   267    1
   270   215   268    1
   271   216   217    1
   272   216   269    1
   273   216   270    1
   274   217   218    1
   275   217   271    1
   276   217   272    1
   277   218   219    1
   278   218   273    1
   279   218   274    1
   280   219   275    1
   281   219   276    1
   282   219   277    1
@<TRIPOS>SUBSTRUCTURE
     1 RES1      277 GROUP             0 ****  ****    0  
