@<TRIPOS>MOLECULE
tri_tri_mer_capped_0_nunpairedes_0_charge_3 Charge: 3 Unpaired_Electrons: 3 XTB_Unpaired_Electrons: 0 XTB_Charge: 3
   358   363     1     0     0
SMALL
NoCharges
****
Generated from Architector

@<TRIPOS>ATOM
     1 Nd1      -0.0238   -0.0882   -0.0655   Nd        1 RES1   0.0000
     2 C1        0.4376    8.7119   -4.4506   C.3       1 RES1   0.0000
     3 C2       -0.4946    8.1725   -3.3737   C.3       1 RES1   0.0000
     4 C3        0.1932    7.0849   -2.5531   C.3       1 RES1   0.0000
     5 C4       -0.6047    6.6300   -1.3321   C.3       1 RES1   0.0000
     6 C5       -1.8687    5.8373   -1.6572   C.3       1 RES1   0.0000
     7 C6       -2.6632    5.5594   -0.3838   C.3       1 RES1   0.0000
     8 C7       -3.9540    4.7781   -0.6231   C.3       1 RES1   0.0000
     9 C8       -3.7820    3.2585   -0.7168   C.3       1 RES1   0.0000
    10 N1       -3.1548    2.7173   -1.9237   N.am      1 RES1   0.0000
    11 C9       -3.8167    3.0320   -3.1843   C.3       1 RES1   0.0000
    12 C10      -4.4439    1.8486   -3.9462   C.3       1 RES1   0.0000
    13 C11      -5.9575    1.7307   -3.7678   C.3       1 RES1   0.0000
    14 C12      -6.3395    1.0927   -2.4353   C.3       1 RES1   0.0000
    15 C13      -7.8360    1.2277   -2.1686   C.3       1 RES1   0.0000
    16 C14      -8.2636    0.7839   -0.7692   C.3       1 RES1   0.0000
    17 C15      -7.6018    1.5453    0.3824   C.3       1 RES1   0.0000
    18 C16      -7.8330    3.0500    0.3387   C.3       1 RES1   0.0000
    19 C17      -2.0812    1.9484   -1.7936   C.2       1 RES1   0.0000
    20 O1       -1.5592    1.6875   -0.6858   O.2       1 RES1   0.0000
    21 C18      -1.3472    1.4291   -3.0418   C.3       1 RES1   0.0000
    22 C19      -0.4305    2.5933   -3.4289   C.3       1 RES1   0.0000
    23 O2       -0.6277    0.2779   -2.5941   O.3       1 RES1   0.0000
    24 C20      -0.3389   -0.7304   -3.5650   C.3       1 RES1   0.0000
    25 C21       0.7644   -0.3116   -4.5325   C.3       1 RES1   0.0000
    26 C22       0.0844   -1.9663   -2.7401   C.2       1 RES1   0.0000
    27 O3        0.2187   -1.8256   -1.5143   O.2       1 RES1   0.0000
    28 N2        0.2622   -3.1568   -3.3207   N.am      1 RES1   0.0000
    29 C23       0.7584   -3.3565   -4.6774   C.3       1 RES1   0.0000
    30 C24      -0.3306   -3.2736   -5.7343   C.3       1 RES1   0.0000
    31 C25       0.1590   -3.4478   -7.1650   C.3       1 RES1   0.0000
    32 C26      -1.0837   -3.4659   -8.0554   C.3       1 RES1   0.0000
    33 C27      -0.8324   -3.8449   -9.5111   C.3       1 RES1   0.0000
    34 C28      -0.1610   -2.7372  -10.3266   C.3       1 RES1   0.0000
    35 C29       1.3606   -2.8440  -10.3779   C.3       1 RES1   0.0000
    36 C30       1.9552   -1.7193  -11.2140   C.3       1 RES1   0.0000
    37 C31       0.2337   -4.3311   -2.4474   C.3       1 RES1   0.0000
    38 C32      -0.4655   -5.5538   -3.0609   C.3       1 RES1   0.0000
    39 C33      -1.9892   -5.6125   -2.8871   C.3       1 RES1   0.0000
    40 C34      -2.7637   -4.8772   -3.9802   C.3       1 RES1   0.0000
    41 C35      -4.2784   -5.0796   -3.9125   C.3       1 RES1   0.0000
    42 C36      -4.9875   -4.6394   -5.1980   C.3       1 RES1   0.0000
    43 C37      -4.7111   -3.1992   -5.6318   C.3       1 RES1   0.0000
    44 C38      -5.1437   -2.1585   -4.6051   C.3       1 RES1   0.0000
    45 H1       -0.0569    9.4850   -5.0292   H         1 RES1   0.0000
    46 H2        0.7442    7.9184   -5.1286   H         1 RES1   0.0000
    47 H3        1.3298    9.1398   -4.0007   H         1 RES1   0.0000
    48 H4       -1.4005    7.7810   -3.8398   H         1 RES1   0.0000
    49 H5       -0.7867    8.9858   -2.7076   H         1 RES1   0.0000
    50 H6        1.1436    7.4862   -2.1976   H         1 RES1   0.0000
    51 H7        0.4187    6.2260   -3.1922   H         1 RES1   0.0000
    52 H8       -0.8811    7.5093   -0.7468   H         1 RES1   0.0000
    53 H9        0.0357    6.0016   -0.7060   H         1 RES1   0.0000
    54 H10      -1.5843    4.8989   -2.1383   H         1 RES1   0.0000
    55 H11      -2.4962    6.4026   -2.3474   H         1 RES1   0.0000
    56 H12      -2.9234    6.5204    0.0625   H         1 RES1   0.0000
    57 H13      -2.0354    5.0253    0.3345   H         1 RES1   0.0000
    58 H14      -4.4623    5.1744   -1.5014   H         1 RES1   0.0000
    59 H15      -4.6246    4.9468    0.2224   H         1 RES1   0.0000
    60 H16      -4.7770    2.8071   -0.6490   H         1 RES1   0.0000
    61 H17      -3.1671    2.9254    0.1169   H         1 RES1   0.0000
    62 H18      -3.1198    3.5599   -3.8400   H         1 RES1   0.0000
    63 H19      -4.6138    3.7378   -2.9491   H         1 RES1   0.0000
    64 H20      -3.9977    0.9086   -3.6238   H         1 RES1   0.0000
    65 H21      -4.2252    1.9814   -5.0054   H         1 RES1   0.0000
    66 H22      -6.3564    1.1212   -4.5785   H         1 RES1   0.0000
    67 H23      -6.4139    2.7190   -3.8501   H         1 RES1   0.0000
    68 H24      -5.7887    1.5838   -1.6336   H         1 RES1   0.0000
    69 H25      -6.0488    0.0384   -2.4354   H         1 RES1   0.0000
    70 H26      -8.3828    0.6325   -2.9021   H         1 RES1   0.0000
    71 H27      -8.1246    2.2693   -2.3124   H         1 RES1   0.0000
    72 H28      -8.0576   -0.2837   -0.6526   H         1 RES1   0.0000
    73 H29      -9.3425    0.9196   -0.6939   H         1 RES1   0.0000
    74 H30      -6.5276    1.3397    0.3976   H         1 RES1   0.0000
    75 H31      -8.0139    1.1662    1.3189   H         1 RES1   0.0000
    76 H32      -7.3885    3.4998   -0.5449   H         1 RES1   0.0000
    77 H33      -7.3936    3.5192    1.2157   H         1 RES1   0.0000
    78 H34      -8.8970    3.2652    0.3352   H         1 RES1   0.0000
    79 H35      -2.0240    1.1433   -3.8491   H         1 RES1   0.0000
    80 H36       0.2283    2.7755   -2.5787   H         1 RES1   0.0000
    81 H37      -1.0073    3.4933   -3.6340   H         1 RES1   0.0000
    82 H38       0.1646    2.4056   -4.3168   H         1 RES1   0.0000
    83 H39      -1.2700   -0.9684   -4.1005   H         1 RES1   0.0000
    84 H40       1.7322   -0.4765   -4.0674   H         1 RES1   0.0000
    85 H41       0.6854    0.7373   -4.7850   H         1 RES1   0.0000
    86 H42       0.6933   -0.8512   -5.4681   H         1 RES1   0.0000
    87 H43       1.2033   -4.3507   -4.7133   H         1 RES1   0.0000
    88 H44       1.5701   -2.6585   -4.8806   H         1 RES1   0.0000
    89 H45      -0.8707   -2.3282   -5.6776   H         1 RES1   0.0000
    90 H46      -1.0426   -4.0692   -5.5423   H         1 RES1   0.0000
    91 H47       0.6992   -4.3882   -7.2747   H         1 RES1   0.0000
    92 H48       0.8294   -2.6399   -7.4542   H         1 RES1   0.0000
    93 H49      -1.5655   -2.4845   -8.0199   H         1 RES1   0.0000
    94 H50      -1.7870   -4.1882   -7.6317   H         1 RES1   0.0000
    95 H51      -1.7983   -4.0868   -9.9586   H         1 RES1   0.0000
    96 H52      -0.2265   -4.7514   -9.5422   H         1 RES1   0.0000
    97 H53      -0.4530   -1.7658   -9.9175   H         1 RES1   0.0000
    98 H54      -0.5305   -2.7791  -11.3516   H         1 RES1   0.0000
    99 H55       1.6287   -3.8058  -10.8166   H         1 RES1   0.0000
   100 H56       1.7847   -2.8186   -9.3731   H         1 RES1   0.0000
   101 H57       1.5821   -1.7732  -12.2326   H         1 RES1   0.0000
   102 H58       3.0382   -1.7899  -11.2399   H         1 RES1   0.0000
   103 H59       1.6832   -0.7483  -10.8046   H         1 RES1   0.0000
   104 H60      -0.2782   -4.0226   -1.5310   H         1 RES1   0.0000
   105 H61       1.2596   -4.6035   -2.1763   H         1 RES1   0.0000
   106 H62      -0.0450   -6.4361   -2.5778   H         1 RES1   0.0000
   107 H63      -0.2249   -5.6551   -4.1175   H         1 RES1   0.0000
   108 H64      -2.2585   -5.2339   -1.9003   H         1 RES1   0.0000
   109 H65      -2.2858   -6.6620   -2.9228   H         1 RES1   0.0000
   110 H66      -2.4368   -5.2784   -4.9429   H         1 RES1   0.0000
   111 H67      -2.5303   -3.8103   -3.9374   H         1 RES1   0.0000
   112 H68      -4.6968   -4.5392   -3.0616   H         1 RES1   0.0000
   113 H69      -4.4863   -6.1415   -3.7628   H         1 RES1   0.0000
   114 H70      -6.0614   -4.7651   -5.0543   H         1 RES1   0.0000
   115 H71      -4.6853   -5.3043   -6.0089   H         1 RES1   0.0000
   116 H72      -5.2534   -3.0189   -6.5606   H         1 RES1   0.0000
   117 H73      -3.6488   -3.0788   -5.8532   H         1 RES1   0.0000
   118 H74      -6.1945   -2.2857   -4.3586   H         1 RES1   0.0000
   119 H75      -5.0084   -1.1578   -5.0087   H         1 RES1   0.0000
   120 H76      -4.5597   -2.2422   -3.6892   H         1 RES1   0.0000
   121 C39      -0.7311    8.9606    2.6948   C.3       1 RES1   0.0000
   122 C40       0.3583    7.9584    3.0559   C.3       1 RES1   0.0000
   123 C41       0.5716    6.9655    1.9172   C.3       1 RES1   0.0000
   124 C42       1.7525    6.0174    2.1137   C.3       1 RES1   0.0000
   125 C43       1.5464    4.9682    3.2036   C.3       1 RES1   0.0000
   126 C44       2.8465    4.2155    3.4678   C.3       1 RES1   0.0000
   127 C45       2.7330    3.1652    4.5711   C.3       1 RES1   0.0000
   128 C46       2.1643    1.8137    4.1261   C.3       1 RES1   0.0000
   129 N3        0.7080    1.6681    4.0885   N.am      1 RES1   0.0000
   130 C47       0.0216    1.7827    5.3668   C.3       1 RES1   0.0000
   131 C48      -0.3947    0.4424    6.0013   C.3       1 RES1   0.0000
   132 C49       0.6528   -0.2013    6.9167   C.3       1 RES1   0.0000
   133 C50       1.6558   -1.1274    6.2276   C.3       1 RES1   0.0000
   134 C51       2.6742   -1.6363    7.2498   C.3       1 RES1   0.0000
   135 C52       3.7941   -2.5219    6.6971   C.3       1 RES1   0.0000
   136 C53       4.7749   -1.8656    5.7186   C.3       1 RES1   0.0000
   137 C54       5.3574   -0.5392    6.1891   C.3       1 RES1   0.0000
   138 C55       0.1064    1.3095    2.9581   C.2       1 RES1   0.0000
   139 O4        0.7286    1.1075    1.8902   O.2       1 RES1   0.0000
   140 C56      -1.4293    1.2636    2.8783   C.3       1 RES1   0.0000
   141 C57      -1.7549    2.7120    2.4805   C.3       1 RES1   0.0000
   142 O5       -1.7412    0.3130    1.8521   O.3       1 RES1   0.0000
   143 C58      -3.0253   -0.3343    1.8972   C.3       1 RES1   0.0000
   144 C59      -4.1750    0.6632    1.8201   C.3       1 RES1   0.0000
   145 C60      -3.0072   -1.2987    0.6850   C.2       1 RES1   0.0000
   146 O6       -2.0196   -1.2491   -0.0689   O.2       1 RES1   0.0000
   147 N4       -3.9796   -2.1998    0.4819   N.am      1 RES1   0.0000
   148 C61      -5.4117   -1.9563    0.6722   C.3       1 RES1   0.0000
   149 C62      -6.0066   -2.3047    2.0323   C.3       1 RES1   0.0000
   150 C63      -7.4999   -1.9773    2.0693   C.3       1 RES1   0.0000
   151 C64      -8.0920   -2.3696    3.4226   C.3       1 RES1   0.0000
   152 C65      -9.6157   -2.2568    3.5052   C.3       1 RES1   0.0000
   153 C66     -10.1515   -0.8216    3.4495   C.3       1 RES1   0.0000
   154 C67     -10.5394   -0.3618    2.0455   C.3       1 RES1   0.0000
   155 C68     -11.0259    1.0822    2.0496   C.3       1 RES1   0.0000
   156 C69      -3.6586   -3.2842   -0.4547   C.3       1 RES1   0.0000
   157 C70      -4.2936   -4.6362   -0.1079   C.3       1 RES1   0.0000
   158 C71      -3.5714   -5.4535    0.9696   C.3       1 RES1   0.0000
   159 C72      -3.9597   -5.0263    2.3818   C.3       1 RES1   0.0000
   160 C73      -3.2800   -5.8205    3.4952   C.3       1 RES1   0.0000
   161 C74      -3.8288   -5.4482    4.8774   C.3       1 RES1   0.0000
   162 C75      -3.8158   -3.9512    5.1962   C.3       1 RES1   0.0000
   163 C76      -2.4305   -3.3178    5.1134   C.3       1 RES1   0.0000
   164 H77      -0.8817    9.6682    3.5033   H         1 RES1   0.0000
   165 H78      -1.6740    8.4522    2.5027   H         1 RES1   0.0000
   166 H79      -0.4551    9.5159    1.8017   H         1 RES1   0.0000
   167 H80       0.0802    7.4353    3.9727   H         1 RES1   0.0000
   168 H81       1.2924    8.4897    3.2439   H         1 RES1   0.0000
   169 H82       0.7588    7.5400    1.0087   H         1 RES1   0.0000
   170 H83      -0.3438    6.3873    1.7632   H         1 RES1   0.0000
   171 H84       2.6407    6.6067    2.3497   H         1 RES1   0.0000
   172 H85       1.9443    5.4947    1.1726   H         1 RES1   0.0000
   173 H86       0.7618    4.2730    2.8916   H         1 RES1   0.0000
   174 H87       1.2317    5.4532    4.1287   H         1 RES1   0.0000
   175 H88       3.5987    4.9454    3.7706   H         1 RES1   0.0000
   176 H89       3.2048    3.7507    2.5450   H         1 RES1   0.0000
   177 H90       2.1675    3.5769    5.4055   H         1 RES1   0.0000
   178 H91       3.7377    2.9590    4.9431   H         1 RES1   0.0000
   179 H92       2.5385    1.0546    4.8169   H         1 RES1   0.0000
   180 H93       2.5232    1.6017    3.1230   H         1 RES1   0.0000
   181 H94      -0.8516    2.4274    5.2460   H         1 RES1   0.0000
   182 H95       0.6981    2.2884    6.0567   H         1 RES1   0.0000
   183 H96      -0.6757   -0.2703    5.2245   H         1 RES1   0.0000
   184 H97      -1.2831    0.6454    6.6002   H         1 RES1   0.0000
   185 H98       0.1210   -0.7965    7.6586   H         1 RES1   0.0000
   186 H99       1.1901    0.5783    7.4591   H         1 RES1   0.0000
   187 H100      2.1828   -0.6044    5.4312   H         1 RES1   0.0000
   188 H101      1.1183   -1.9658    5.7751   H         1 RES1   0.0000
   189 H102      2.1398   -2.2106    8.0097   H         1 RES1   0.0000
   190 H103      3.1238   -0.7773    7.7484   H         1 RES1   0.0000
   191 H104      3.3522   -3.3988    6.2144   H         1 RES1   0.0000
   192 H105      4.3661   -2.8809    7.5531   H         1 RES1   0.0000
   193 H106      4.2995   -1.7101    4.7509   H         1 RES1   0.0000
   194 H107      5.5952   -2.5668    5.5585   H         1 RES1   0.0000
   195 H108      4.5891    0.2248    6.2788   H         1 RES1   0.0000
   196 H109      6.0924   -0.1894    5.4685   H         1 RES1   0.0000
   197 H110      5.8530   -0.6490    7.1485   H         1 RES1   0.0000
   198 H111     -1.9024    0.9558    3.8118   H         1 RES1   0.0000
   199 H112     -1.2801    2.8965    1.5145   H         1 RES1   0.0000
   200 H113     -1.3474    3.4040    3.2152   H         1 RES1   0.0000
   201 H114     -2.8171    2.9149    2.4019   H         1 RES1   0.0000
   202 H115     -3.0834   -0.9392    2.8154   H         1 RES1   0.0000
   203 H116     -4.2165    1.0840    0.8170   H         1 RES1   0.0000
   204 H117     -4.0425    1.4622    2.5414   H         1 RES1   0.0000
   205 H118     -5.1220    0.2024    2.0668   H         1 RES1   0.0000
   206 H119     -5.9252   -2.5621   -0.0745   H         1 RES1   0.0000
   207 H120     -5.6328   -0.9200    0.4193   H         1 RES1   0.0000
   208 H121     -5.5015   -1.7738    2.8414   H         1 RES1   0.0000
   209 H122     -5.8954   -3.3705    2.2119   H         1 RES1   0.0000
   210 H123     -8.0150   -2.5279    1.2801   H         1 RES1   0.0000
   211 H124     -7.6558   -0.9139    1.8921   H         1 RES1   0.0000
   212 H125     -7.6488   -1.7472    4.2043   H         1 RES1   0.0000
   213 H126     -7.8153   -3.4064    3.6323   H         1 RES1   0.0000
   214 H127     -9.9211   -2.7132    4.4483   H         1 RES1   0.0000
   215 H128    -10.0646   -2.8458    2.7039   H         1 RES1   0.0000
   216 H129     -9.4080   -0.1417    3.8743   H         1 RES1   0.0000
   217 H130    -11.0428   -0.7543    4.0742   H         1 RES1   0.0000
   218 H131    -11.3325   -1.0105    1.6712   H         1 RES1   0.0000
   219 H132     -9.6946   -0.4597    1.3631   H         1 RES1   0.0000
   220 H133    -11.9140    1.1812    2.6672   H         1 RES1   0.0000
   221 H134    -11.2725    1.4071    1.0424   H         1 RES1   0.0000
   222 H135    -10.2610    1.7466    2.4476   H         1 RES1   0.0000
   223 H136     -2.5697   -3.3733   -0.4630   H         1 RES1   0.0000
   224 H137     -3.9688   -2.9932   -1.4657   H         1 RES1   0.0000
   225 H138     -4.3095   -5.2248   -1.0256   H         1 RES1   0.0000
   226 H139     -5.3331   -4.5085    0.1886   H         1 RES1   0.0000
   227 H140     -2.4905   -5.3827    0.8304   H         1 RES1   0.0000
   228 H141     -3.8463   -6.5009    0.8390   H         1 RES1   0.0000
   229 H142     -5.0368   -5.1712    2.4942   H         1 RES1   0.0000
   230 H143     -3.7291   -3.9665    2.5000   H         1 RES1   0.0000
   231 H144     -2.2013   -5.6540    3.4702   H         1 RES1   0.0000
   232 H145     -3.4506   -6.8878    3.3360   H         1 RES1   0.0000
   233 H146     -3.2465   -5.9757    5.6343   H         1 RES1   0.0000
   234 H147     -4.8593   -5.7998    4.9508   H         1 RES1   0.0000
   235 H148     -4.2014   -3.8209    6.2081   H         1 RES1   0.0000
   236 H149     -4.4993   -3.4275    4.5256   H         1 RES1   0.0000
   237 H150     -1.7358   -3.8514    5.7566   H         1 RES1   0.0000
   238 H151     -2.4726   -2.2821    5.4454   H         1 RES1   0.0000
   239 H152     -2.0463   -3.3361    4.0943   H         1 RES1   0.0000
   240 C77       6.2984    7.5203    0.6424   C.3       1 RES1   0.0000
   241 C78       5.6639    6.9041   -0.5981   C.3       1 RES1   0.0000
   242 C79       4.2691    6.3680   -0.2875   C.3       1 RES1   0.0000
   243 C80       3.5196    5.8357   -1.5079   C.3       1 RES1   0.0000
   244 C81       4.0694    4.5148   -2.0439   C.3       1 RES1   0.0000
   245 C82       3.4202    4.1701   -3.3804   C.3       1 RES1   0.0000
   246 C83       3.9339    2.8716   -3.9994   C.3       1 RES1   0.0000
   247 C84       3.2900    1.5878   -3.4706   C.3       1 RES1   0.0000
   248 N5        3.8504    0.9449   -2.2813   N.am      1 RES1   0.0000
   249 C85       5.2554    0.5750   -2.3416   C.3       1 RES1   0.0000
   250 C86       5.5604   -0.8675   -2.7927   C.3       1 RES1   0.0000
   251 C87       5.8590   -1.0233   -4.2909   C.3       1 RES1   0.0000
   252 C88       4.6624   -1.4454   -5.1419   C.3       1 RES1   0.0000
   253 C89       5.0389   -1.4612   -6.6241   C.3       1 RES1   0.0000
   254 C90       3.8653   -1.6841   -7.5801   C.3       1 RES1   0.0000
   255 C91       2.7987   -0.5873   -7.5591   C.3       1 RES1   0.0000
   256 C92       3.3134    0.7974   -7.9297   C.3       1 RES1   0.0000
   257 C93       3.0173    0.5854   -1.3121   C.2       1 RES1   0.0000
   258 O7        1.8043    0.8956   -1.3095   O.2       1 RES1   0.0000
   259 C94       3.5502   -0.1710   -0.0865   C.3       1 RES1   0.0000
   260 C95       4.0613    0.9208    0.8603   C.3       1 RES1   0.0000
   261 O8        2.4088   -0.8744    0.4148   O.3       1 RES1   0.0000
   262 C96       2.6396   -1.8501    1.4387   C.3       1 RES1   0.0000
   263 C97       2.6827   -1.2086    2.8233   C.3       1 RES1   0.0000
   264 C98       1.3799   -2.7331    1.4762   C.2       1 RES1   0.0000
   265 O9        0.3147   -2.1959    1.1173   O.2       1 RES1   0.0000
   266 N6        1.4319   -3.9868    1.9424   N.am      1 RES1   0.0000
   267 C99       2.4172   -4.4831    2.9058   C.3       1 RES1   0.0000
   268 C100      3.8355   -4.7848    2.4366   C.3       1 RES1   0.0000
   269 C101      4.6693   -5.3433    3.5908   C.3       1 RES1   0.0000
   270 C102      6.0268   -5.7961    3.0559   C.3       1 RES1   0.0000
   271 C103      6.9651   -6.3956    4.1042   C.3       1 RES1   0.0000
   272 C104      7.6003   -5.3649    5.0434   C.3       1 RES1   0.0000
   273 C105      6.8180   -5.1175    6.3315   C.3       1 RES1   0.0000
   274 C106      7.5027   -4.0648    7.1947   C.3       1 RES1   0.0000
   275 C107      0.1721   -4.7454    1.9009   C.3       1 RES1   0.0000
   276 C108      0.2857   -6.2581    1.6847   C.3       1 RES1   0.0000
   277 C109      0.6616   -6.7181    0.2751   C.3       1 RES1   0.0000
   278 C110      2.1506   -6.5959   -0.0442   C.3       1 RES1   0.0000
   279 C111      2.5272   -7.2274   -1.3871   C.3       1 RES1   0.0000
   280 C112      4.0383   -7.3800   -1.5925   C.3       1 RES1   0.0000
   281 C113      4.8535   -6.0912   -1.4738   C.3       1 RES1   0.0000
   282 C114      4.4890   -5.0305   -2.5071   C.3       1 RES1   0.0000
   283 H153      7.2906    7.8958    0.4141   H         1 RES1   0.0000
   284 H154      6.3849    6.7828    1.4379   H         1 RES1   0.0000
   285 H155      5.6953    8.3474    1.0086   H         1 RES1   0.0000
   286 H156      6.3045    6.1019   -0.9695   H         1 RES1   0.0000
   287 H157      5.5875    7.6603   -1.3809   H         1 RES1   0.0000
   288 H158      3.6828    7.1835    0.1390   H         1 RES1   0.0000
   289 H159      4.3421    5.5817    0.4687   H         1 RES1   0.0000
   290 H160      3.5546    6.5870   -2.3000   H         1 RES1   0.0000
   291 H161      2.4690    5.6852   -1.2447   H         1 RES1   0.0000
   292 H162      3.8863    3.7213   -1.3123   H         1 RES1   0.0000
   293 H163      5.1463    4.6010   -2.1940   H         1 RES1   0.0000
   294 H164      3.6378    4.9828   -4.0754   H         1 RES1   0.0000
   295 H165      2.3334    4.1260   -3.2702   H         1 RES1   0.0000
   296 H166      5.0181    2.8327   -3.9130   H         1 RES1   0.0000
   297 H167      3.7090    2.8961   -5.0673   H         1 RES1   0.0000
   298 H168      3.3610    0.8426   -4.2658   H         1 RES1   0.0000
   299 H169      2.2463    1.7850   -3.2350   H         1 RES1   0.0000
   300 H170      5.7120    0.7589   -1.3691   H         1 RES1   0.0000
   301 H171      5.7358    1.2537   -3.0472   H         1 RES1   0.0000
   302 H172      4.7445   -1.5353   -2.5108   H         1 RES1   0.0000
   303 H173      6.4438   -1.1824   -2.2378   H         1 RES1   0.0000
   304 H174      6.6332   -1.7809   -4.4110   H         1 RES1   0.0000
   305 H175      6.2684   -0.0886   -4.6796   H         1 RES1   0.0000
   306 H176      3.8332   -0.7527   -4.9891   H         1 RES1   0.0000
   307 H177      4.3278   -2.4379   -4.8292   H         1 RES1   0.0000
   308 H178      5.7692   -2.2557   -6.7881   H         1 RES1   0.0000
   309 H179      5.5204   -0.5149   -6.8726   H         1 RES1   0.0000
   310 H180      3.3925   -2.6427   -7.3486   H         1 RES1   0.0000
   311 H181      4.2659   -1.7547   -8.5913   H         1 RES1   0.0000
   312 H182      2.3449   -0.5426   -6.5687   H         1 RES1   0.0000
   313 H183      2.0151   -0.8594   -8.2681   H         1 RES1   0.0000
   314 H184      4.0477    1.1557   -7.2132   H         1 RES1   0.0000
   315 H185      2.4867    1.5037   -7.9473   H         1 RES1   0.0000
   316 H186      3.7696    0.7839   -8.9145   H         1 RES1   0.0000
   317 H187      4.3307   -0.8904   -0.3530   H         1 RES1   0.0000
   318 H188      3.1951    1.5111    1.1625   H         1 RES1   0.0000
   319 H189      4.7623    1.5829    0.3577   H         1 RES1   0.0000
   320 H190      4.5801    0.5165    1.7249   H         1 RES1   0.0000
   321 H191      3.5384   -2.4196    1.1960   H         1 RES1   0.0000
   322 H192      1.7402   -0.6806    2.9560   H         1 RES1   0.0000
   323 H193      3.5191   -0.5284    2.9416   H         1 RES1   0.0000
   324 H194      2.7638   -1.9653    3.5944   H         1 RES1   0.0000
   325 H195      2.0126   -5.4182    3.2874   H         1 RES1   0.0000
   326 H196      2.4630   -3.7981    3.7569   H         1 RES1   0.0000
   327 H197      4.3583   -3.9042    2.0664   H         1 RES1   0.0000
   328 H198      3.8044   -5.5233    1.6405   H         1 RES1   0.0000
   329 H199      4.1689   -6.1937    4.0552   H         1 RES1   0.0000
   330 H200      4.7971   -4.5760    4.3536   H         1 RES1   0.0000
   331 H201      6.5286   -4.9490    2.5802   H         1 RES1   0.0000
   332 H202      5.8494   -6.5476    2.2818   H         1 RES1   0.0000
   333 H203      7.7603   -6.9144    3.5659   H         1 RES1   0.0000
   334 H204      6.4292   -7.1465    4.6862   H         1 RES1   0.0000
   335 H205      7.7352   -4.4239    4.5030   H         1 RES1   0.0000
   336 H206      8.5924   -5.7171    5.3283   H         1 RES1   0.0000
   337 H207      6.7490   -6.0549    6.8845   H         1 RES1   0.0000
   338 H208      5.7978   -4.7977    6.1118   H         1 RES1   0.0000
   339 H209      8.4872   -4.4063    7.5009   H         1 RES1   0.0000
   340 H210      6.9174   -3.8606    8.0869   H         1 RES1   0.0000
   341 H211      7.6261   -3.1344    6.6429   H         1 RES1   0.0000
   342 H212     -0.4230   -4.3039    1.0985   H         1 RES1   0.0000
   343 H213     -0.3637   -4.5762    2.8436   H         1 RES1   0.0000
   344 H214     -0.6998   -6.6680    1.9143   H         1 RES1   0.0000
   345 H215      0.9757   -6.7106    2.3960   H         1 RES1   0.0000
   346 H216      0.0682   -6.1666   -0.4531   H         1 RES1   0.0000
   347 H217      0.3867   -7.7703    0.1889   H         1 RES1   0.0000
   348 H218      2.7064   -7.1203    0.7367   H         1 RES1   0.0000
   349 H219      2.4367   -5.5418   -0.0402   H         1 RES1   0.0000
   350 H220      2.1103   -6.6435   -2.2097   H         1 RES1   0.0000
   351 H221      2.0852   -8.2244   -1.4413   H         1 RES1   0.0000
   352 H222      4.2034   -7.8082   -2.5829   H         1 RES1   0.0000
   353 H223      4.4204   -8.0952   -0.8619   H         1 RES1   0.0000
   354 H224      5.9054   -6.3512   -1.5984   H         1 RES1   0.0000
   355 H225      4.7439   -5.6758   -0.4703   H         1 RES1   0.0000
   356 H226      4.5458   -5.4440   -3.5106   H         1 RES1   0.0000
   357 H227      5.1838   -4.1960   -2.4429   H         1 RES1   0.0000
   358 H228      3.4818   -4.6486   -2.3453   H         1 RES1   0.0000
@<TRIPOS>BOND
     1     1    20    1
     2     1    23    1
     3     1    27    1
     4     1   139    1
     5     1   142    1
     6     1   146    1
     7     1   258    1
     8     1   261    1
     9     1   265    1
    10     2     3    1
    11     2    45    1
    12     2    46    1
    13     2    47    1
    14     3     4    1
    15     3    48    1
    16     3    49    1
    17     4     5    1
    18     4    50    1
    19     4    51    1
    20     5     6    1
    21     5    52    1
    22     5    53    1
    23     6     7    1
    24     6    54    1
    25     6    55    1
    26     7     8    1
    27     7    56    1
    28     7    57    1
    29     8     9    1
    30     8    58    1
    31     8    59    1
    32     9    10    1
    33     9    60    1
    34     9    61    1
    35    10    11    1
    36    10    19    1
    37    11    12    1
    38    11    62    1
    39    11    63    1
    40    12    13    1
    41    12    64    1
    42    12    65    1
    43    13    14    1
    44    13    66    1
    45    13    67    1
    46    14    15    1
    47    14    68    1
    48    14    69    1
    49    15    16    1
    50    15    70    1
    51    15    71    1
    52    16    17    1
    53    16    72    1
    54    16    73    1
    55    17    18    1
    56    17    74    1
    57    17    75    1
    58    18    76    1
    59    18    77    1
    60    18    78    1
    61    19    20    2
    62    19    21    1
    63    21    22    1
    64    21    23    1
    65    21    79    1
    66    22    80    1
    67    22    81    1
    68    22    82    1
    69    23    24    1
    70    24    25    1
    71    24    26    1
    72    24    83    1
    73    25    84    1
    74    25    85    1
    75    25    86    1
    76    26    27    2
    77    26    28    1
    78    28    29    1
    79    28    37    1
    80    29    30    1
    81    29    87    1
    82    29    88    1
    83    30    31    1
    84    30    89    1
    85    30    90    1
    86    31    32    1
    87    31    91    1
    88    31    92    1
    89    32    33    1
    90    32    93    1
    91    32    94    1
    92    33    34    1
    93    33    95    1
    94    33    96    1
    95    34    35    1
    96    34    97    1
    97    34    98    1
    98    35    36    1
    99    35    99    1
   100    35   100    1
   101    36   101    1
   102    36   102    1
   103    36   103    1
   104    37    38    1
   105    37   104    1
   106    37   105    1
   107    38    39    1
   108    38   106    1
   109    38   107    1
   110    39    40    1
   111    39   108    1
   112    39   109    1
   113    40    41    1
   114    40   110    1
   115    40   111    1
   116    41    42    1
   117    41   112    1
   118    41   113    1
   119    42    43    1
   120    42   114    1
   121    42   115    1
   122    43    44    1
   123    43   116    1
   124    43   117    1
   125    44   118    1
   126    44   119    1
   127    44   120    1
   128   121   122    1
   129   121   164    1
   130   121   165    1
   131   121   166    1
   132   122   123    1
   133   122   167    1
   134   122   168    1
   135   123   124    1
   136   123   169    1
   137   123   170    1
   138   124   125    1
   139   124   171    1
   140   124   172    1
   141   125   126    1
   142   125   173    1
   143   125   174    1
   144   126   127    1
   145   126   175    1
   146   126   176    1
   147   127   128    1
   148   127   177    1
   149   127   178    1
   150   128   129    1
   151   128   179    1
   152   128   180    1
   153   129   130    1
   154   129   138    1
   155   130   131    1
   156   130   181    1
   157   130   182    1
   158   131   132    1
   159   131   183    1
   160   131   184    1
   161   132   133    1
   162   132   185    1
   163   132   186    1
   164   133   134    1
   165   133   187    1
   166   133   188    1
   167   134   135    1
   168   134   189    1
   169   134   190    1
   170   135   136    1
   171   135   191    1
   172   135   192    1
   173   136   137    1
   174   136   193    1
   175   136   194    1
   176   137   195    1
   177   137   196    1
   178   137   197    1
   179   138   139    2
   180   138   140    1
   181   140   141    1
   182   140   142    1
   183   140   198    1
   184   141   199    1
   185   141   200    1
   186   141   201    1
   187   142   143    1
   188   143   144    1
   189   143   145    1
   190   143   202    1
   191   144   203    1
   192   144   204    1
   193   144   205    1
   194   145   146    2
   195   145   147    1
   196   147   148    1
   197   147   156    1
   198   148   149    1
   199   148   206    1
   200   148   207    1
   201   149   150    1
   202   149   208    1
   203   149   209    1
   204   150   151    1
   205   150   210    1
   206   150   211    1
   207   151   152    1
   208   151   212    1
   209   151   213    1
   210   152   153    1
   211   152   214    1
   212   152   215    1
   213   153   154    1
   214   153   216    1
   215   153   217    1
   216   154   155    1
   217   154   218    1
   218   154   219    1
   219   155   220    1
   220   155   221    1
   221   155   222    1
   222   156   157    1
   223   156   223    1
   224   156   224    1
   225   157   158    1
   226   157   225    1
   227   157   226    1
   228   158   159    1
   229   158   227    1
   230   158   228    1
   231   159   160    1
   232   159   229    1
   233   159   230    1
   234   160   161    1
   235   160   231    1
   236   160   232    1
   237   161   162    1
   238   161   233    1
   239   161   234    1
   240   162   163    1
   241   162   235    1
   242   162   236    1
   243   163   237    1
   244   163   238    1
   245   163   239    1
   246   240   241    1
   247   240   283    1
   248   240   284    1
   249   240   285    1
   250   241   242    1
   251   241   286    1
   252   241   287    1
   253   242   243    1
   254   242   288    1
   255   242   289    1
   256   243   244    1
   257   243   290    1
   258   243   291    1
   259   244   245    1
   260   244   292    1
   261   244   293    1
   262   245   246    1
   263   245   294    1
   264   245   295    1
   265   246   247    1
   266   246   296    1
   267   246   297    1
   268   247   248    1
   269   247   298    1
   270   247   299    1
   271   248   249    1
   272   248   257    1
   273   249   250    1
   274   249   300    1
   275   249   301    1
   276   250   251    1
   277   250   302    1
   278   250   303    1
   279   251   252    1
   280   251   304    1
   281   251   305    1
   282   252   253    1
   283   252   306    1
   284   252   307    1
   285   253   254    1
   286   253   308    1
   287   253   309    1
   288   254   255    1
   289   254   310    1
   290   254   311    1
   291   255   256    1
   292   255   312    1
   293   255   313    1
   294   256   314    1
   295   256   315    1
   296   256   316    1
   297   257   258    2
   298   257   259    1
   299   259   260    1
   300   259   261    1
   301   259   317    1
   302   260   318    1
   303   260   319    1
   304   260   320    1
   305   261   262    1
   306   262   263    1
   307   262   264    1
   308   262   321    1
   309   263   322    1
   310   263   323    1
   311   263   324    1
   312   264   265    2
   313   264   266    1
   314   266   267    1
   315   266   275    1
   316   267   268    1
   317   267   325    1
   318   267   326    1
   319   268   269    1
   320   268   327    1
   321   268   328    1
   322   269   270    1
   323   269   329    1
   324   269   330    1
   325   270   271    1
   326   270   331    1
   327   270   332    1
   328   271   272    1
   329   271   333    1
   330   271   334    1
   331   272   273    1
   332   272   335    1
   333   272   336    1
   334   273   274    1
   335   273   337    1
   336   273   338    1
   337   274   339    1
   338   274   340    1
   339   274   341    1
   340   275   276    1
   341   275   342    1
   342   275   343    1
   343   276   277    1
   344   276   344    1
   345   276   345    1
   346   277   278    1
   347   277   346    1
   348   277   347    1
   349   278   279    1
   350   278   348    1
   351   278   349    1
   352   279   280    1
   353   279   350    1
   354   279   351    1
   355   280   281    1
   356   280   352    1
   357   280   353    1
   358   281   282    1
   359   281   354    1
   360   281   355    1
   361   282   356    1
   362   282   357    1
   363   282   358    1
@<TRIPOS>SUBSTRUCTURE
     1 RES1      358 GROUP             0 ****  ****    0  
