@<TRIPOS>MOLECULE
am_c3_9H2O_c0_0_nunpairedes_0_charge_3 Charge: 3 Unpaired_Electrons: 3 XTB_Unpaired_Electrons: 0 XTB_Charge: 3
   120   133     1     0     0
SMALL
NoCharges
****
Generated from Architector

@<TRIPOS>ATOM
     1 Nd1      -0.0258   -0.8348   -0.3676   Nd        1 RES1   0.0000
     2 C1       -6.7511    0.0346   -2.0761   C.3       1 RES1   0.0000
     3 C2       -5.5826   -0.2641   -3.0075   C.3       1 RES1   0.0000
     4 C3       -4.9585    1.0296   -3.5290   C.3       1 RES1   0.0000
     5 C4       -3.6049    0.8267   -4.2168   C.3       1 RES1   0.0000
     6 C5       -2.7628    2.1038   -4.2091   C.3       1 RES1   0.0000
     7 C6       -1.7829    2.1504   -3.0205   C.3       1 RES1   0.0000
     8 N1       -2.4010    1.8721   -1.7147   N.ar      1 RES1   0.0000
     9 C7       -2.9098    2.8798   -0.9126   C.ar      1 RES1   0.0000
    10 C8       -2.1737    4.1730   -0.9075   C.ar      1 RES1   0.0000
    11 C9       -1.4514    4.3914    0.2772   C.ar      1 RES1   0.0000
    12 C10      -0.5968    5.4698    0.3962   C.ar      1 RES1   0.0000
    13 C11      -0.4430    6.3541   -0.6591   C.ar      1 RES1   0.0000
    14 C12      -1.1840    6.1760   -1.8154   C.ar      1 RES1   0.0000
    15 C13      -2.0371    5.0880   -1.9471   C.ar      1 RES1   0.0000
    16 C14      -3.7302    2.5980    0.1789   C.ar      1 RES1   0.0000
    17 C15      -4.4971    3.7404    0.6751   C.ar      1 RES1   0.0000
    18 C16      -4.5804    4.1476    2.0041   C.ar      1 RES1   0.0000
    19 C17      -5.3317    5.2532    2.3467   C.ar      1 RES1   0.0000
    20 C18      -6.0243    5.9602    1.3757   C.ar      1 RES1   0.0000
    21 C19      -5.9262    5.5812    0.0456   C.ar      1 RES1   0.0000
    22 C20      -5.1575    4.4925   -0.3047   C.ar      1 RES1   0.0000
    23 C21      -3.6574    1.3000    0.7841   C.ar      1 RES1   0.0000
    24 C22      -4.0101    0.9710    2.1167   C.ar      1 RES1   0.0000
    25 C23      -3.2184    0.0661    2.8229   C.ar      1 RES1   0.0000
    26 C24      -3.1745   -0.0122    4.2615   C.ar      1 RES1   0.0000
    27 C25      -2.0397   -0.3784    4.9073   C.ar      1 RES1   0.0000
    28 C26      -0.8426   -0.7305    4.1856   C.ar      1 RES1   0.0000
    29 C27       0.4577   -0.5588    4.6768   C.ar      1 RES1   0.0000
    30 C28       1.5565   -0.5292    3.7873   C.ar      1 RES1   0.0000
    31 C29       2.7905    0.2152    3.9533   C.ar      1 RES1   0.0000
    32 C30       3.6476    0.2953    5.1191   C.ar      1 RES1   0.0000
    33 C31       3.3115   -0.0117    6.4494   C.ar      1 RES1   0.0000
    34 C32       4.2686   -0.0004    7.4467   C.ar      1 RES1   0.0000
    35 C33       5.5930    0.3105    7.1691   C.ar      1 RES1   0.0000
    36 C34       5.9574    0.5976    5.8612   C.ar      1 RES1   0.0000
    37 C35       5.0098    0.5836    4.8604   C.ar      1 RES1   0.0000
    38 C36       3.1677    0.9095    2.7629   C.ar      1 RES1   0.0000
    39 C37       3.2985    2.3744    2.7662   C.ar      1 RES1   0.0000
    40 C38       3.7925    3.1503    3.8217   C.ar      1 RES1   0.0000
    41 C39       3.7016    4.5295    3.7936   C.ar      1 RES1   0.0000
    42 C40       3.1387    5.1852    2.7136   C.ar      1 RES1   0.0000
    43 C41       2.5859    4.4366    1.6851   C.ar      1 RES1   0.0000
    44 C42       2.6523    3.0556    1.7151   C.ar      1 RES1   0.0000
    45 N2        3.0131    0.2864    1.5275   N.ar      1 RES1   0.0000
    46 C43       3.7404    0.6833    0.3088   C.3       1 RES1   0.0000
    47 C44       4.5447   -0.4618   -0.3386   C.3       1 RES1   0.0000
    48 C45       6.0504   -0.3059   -0.1796   C.3       1 RES1   0.0000
    49 C46       6.4737   -0.5372    1.2693   C.3       1 RES1   0.0000
    50 C47       7.8187    0.1043    1.6043   C.3       1 RES1   0.0000
    51 C48       7.7525    1.6320    1.6066   C.3       1 RES1   0.0000
    52 C49       2.1689   -0.7507    1.3668   C.ar      1 RES1   0.0000
    53 O1        1.9840   -1.2794    0.2284   O.2       1 RES1   0.0000
    54 C50       1.2622   -0.9851    2.4696   C.ar      1 RES1   0.0000
    55 N3        0.0400   -1.3202    2.0290   N.ar      1 RES1   0.0000
    56 C51      -1.0076   -1.0527    2.8111   C.ar      1 RES1   0.0000
    57 C52      -2.2045   -0.6324    2.1106   C.ar      1 RES1   0.0000
    58 N4       -2.1137   -0.5803    0.7775   N.ar      1 RES1   0.0000
    59 C53      -2.7944    0.3812    0.1281   C.ar      1 RES1   0.0000
    60 C54      -2.3028    0.6136   -1.2218   C.ar      1 RES1   0.0000
    61 O2       -1.5841   -0.2584   -1.7997   O.2       1 RES1   0.0000
    62 H1       -7.2179   -0.8869   -1.7421   H         1 RES1   0.0000
    63 H2       -7.5068    0.6272   -2.5856   H         1 RES1   0.0000
    64 H3       -6.4112    0.5882   -1.2003   H         1 RES1   0.0000
    65 H4       -5.9383   -0.8676   -3.8425   H         1 RES1   0.0000
    66 H5       -4.8273   -0.8509   -2.4729   H         1 RES1   0.0000
    67 H6       -4.8340    1.7200   -2.6879   H         1 RES1   0.0000
    68 H7       -5.6594    1.4912   -4.2272   H         1 RES1   0.0000
    69 H8       -3.7668    0.4982   -5.2405   H         1 RES1   0.0000
    70 H9       -3.0401    0.0436   -3.7092   H         1 RES1   0.0000
    71 H10      -3.4244    2.9672   -4.1860   H         1 RES1   0.0000
    72 H11      -2.1659    2.1765   -5.1203   H         1 RES1   0.0000
    73 H12      -1.2990    3.1294   -2.9708   H         1 RES1   0.0000
    74 H13      -1.0214    1.3732   -3.1503   H         1 RES1   0.0000
    75 H14      -1.6034    3.7364    1.1254   H         1 RES1   0.0000
    76 H15      -0.0674    5.6193    1.3246   H         1 RES1   0.0000
    77 H16       0.2279    7.1913   -0.5620   H         1 RES1   0.0000
    78 H17      -1.1128    6.8895   -2.6209   H         1 RES1   0.0000
    79 H18      -2.6466    4.9996   -2.8338   H         1 RES1   0.0000
    80 H19      -4.0093    3.6347    2.7629   H         1 RES1   0.0000
    81 H20      -5.3753    5.5742    3.3738   H         1 RES1   0.0000
    82 H21      -6.6226    6.8105    1.6573   H         1 RES1   0.0000
    83 H22      -6.4618    6.1282   -0.7142   H         1 RES1   0.0000
    84 H23      -5.0780    4.1826   -1.3368   H         1 RES1   0.0000
    85 H24      -4.7858    1.5154    2.6352   H         1 RES1   0.0000
    86 H25      -4.0341    0.3339    4.8113   H         1 RES1   0.0000
    87 H26      -1.9787   -0.3361    5.9816   H         1 RES1   0.0000
    88 H27       0.5829   -0.2623    5.7077   H         1 RES1   0.0000
    89 H28       2.3067   -0.2646    6.7389   H         1 RES1   0.0000
    90 H29       3.9875   -0.2442    8.4587   H         1 RES1   0.0000
    91 H30       6.3256    0.3325    7.9618   H         1 RES1   0.0000
    92 H31       6.9878    0.8039    5.6191   H         1 RES1   0.0000
    93 H32       5.3244    0.7567    3.8423   H         1 RES1   0.0000
    94 H33       4.2661    2.6871    4.6702   H         1 RES1   0.0000
    95 H34       4.0918    5.0882    4.6259   H         1 RES1   0.0000
    96 H35       3.1215    6.2608    2.6798   H         1 RES1   0.0000
    97 H36       2.0943    4.9251    0.8554   H         1 RES1   0.0000
    98 H37       2.1919    2.4928    0.9091   H         1 RES1   0.0000
    99 H38       4.3952    1.5198    0.5501   H         1 RES1   0.0000
   100 H39       2.9715    1.0016   -0.4078   H         1 RES1   0.0000
   101 H40       4.2891   -0.4935   -1.3981   H         1 RES1   0.0000
   102 H41       4.2536   -1.4108    0.1049   H         1 RES1   0.0000
   103 H42       6.3570    0.6832   -0.5205   H         1 RES1   0.0000
   104 H43       6.5377   -1.0447   -0.8149   H         1 RES1   0.0000
   105 H44       6.5306   -1.6102    1.4596   H         1 RES1   0.0000
   106 H45       5.7098   -0.1246    1.9351   H         1 RES1   0.0000
   107 H46       8.5687   -0.2274    0.8844   H         1 RES1   0.0000
   108 H47       8.1368   -0.2422    2.5899   H         1 RES1   0.0000
   109 H48       7.6561    2.0295    0.5965   H         1 RES1   0.0000
   110 H49       8.6627    2.0443    2.0367   H         1 RES1   0.0000
   111 H50       6.9028    1.9860    2.1974   H         1 RES1   0.0000
   112 O3       -0.1976    1.4669    1.4973   O.3       1 RES1   0.0000
   113 H51       0.3953    2.1979    1.7455   H         1 RES1   0.0000
   114 H52      -0.7567    1.3214    2.2755   H         1 RES1   0.0000
   115 O4        1.1048   -1.0252   -2.4743   O.3       1 RES1   0.0000
   116 H53       0.5624   -1.2586   -3.2508   H         1 RES1   0.0000
   117 H54       1.9912   -1.3806   -2.6547   H         1 RES1   0.0000
   118 O5        0.5307    1.5737   -0.9776   O.3       1 RES1   0.0000
   119 H55       1.0212    2.0596   -1.6627   H         1 RES1   0.0000
   120 H56      -0.1107    2.2156   -0.6252   H         1 RES1   0.0000
@<TRIPOS>BOND
     1     1     8    1
     2     1    45    1
     3     1    53    1
     4     1    55    1
     5     1    58    1
     6     1    61    1
     7     1   112    1
     8     1   115    1
     9     1   118    1
    10     2     3    1
    11     2    62    1
    12     2    63    1
    13     2    64    1
    14     3     4    1
    15     3    65    1
    16     3    66    1
    17     4     5    1
    18     4    67    1
    19     4    68    1
    20     5     6    1
    21     5    69    1
    22     5    70    1
    23     6     7    1
    24     6    71    1
    25     6    72    1
    26     7     8    1
    27     7    73    1
    28     7    74    1
    29     8     9    1
    30     8    60    1
    31     9    10    1
    32     9    16    2
    33    10    11    1
    34    10    15    2
    35    11    12    2
    36    11    75    1
    37    12    13    1
    38    12    76    1
    39    13    14    2
    40    13    77    1
    41    14    15    1
    42    14    78    1
    43    15    79    1
    44    16    17    1
    45    16    23    1
    46    17    18    1
    47    17    22    2
    48    18    19    2
    49    18    80    1
    50    19    20    1
    51    19    81    1
    52    20    21    2
    53    20    82    1
    54    21    22    1
    55    21    83    1
    56    22    84    1
    57    23    24    1
    58    23    59    2
    59    24    25    2
    60    24    85    1
    61    25    26    1
    62    25    57    1
    63    26    27    2
    64    26    86    1
    65    27    28    1
    66    27    87    1
    67    28    29    1
    68    28    56    2
    69    29    30    2
    70    29    88    1
    71    30    31    1
    72    30    54    1
    73    31    32    1
    74    31    38    2
    75    32    33    1
    76    32    37    2
    77    33    34    2
    78    33    89    1
    79    34    35    1
    80    34    90    1
    81    35    36    2
    82    35    91    1
    83    36    37    1
    84    36    92    1
    85    37    93    1
    86    38    39    1
    87    38    45    1
    88    39    40    1
    89    39    44    2
    90    40    41    2
    91    40    94    1
    92    41    42    1
    93    41    95    1
    94    42    43    2
    95    42    96    1
    96    43    44    1
    97    43    97    1
    98    44    98    1
    99    45    46    1
   100    45    52    1
   101    46    47    1
   102    46    99    1
   103    46   100    1
   104    47    48    1
   105    47   101    1
   106    47   102    1
   107    48    49    1
   108    48   103    1
   109    48   104    1
   110    49    50    1
   111    49   105    1
   112    49   106    1
   113    50    51    1
   114    50   107    1
   115    50   108    1
   116    51   109    1
   117    51   110    1
   118    51   111    1
   119    52    53    2
   120    52    54    1
   121    54    55    2
   122    55    56    1
   123    56    57    1
   124    57    58    2
   125    58    59    1
   126    59    60    1
   127    60    61    2
   128   112   113    1
   129   112   114    1
   130   115   116    1
   131   115   117    1
   132   118   119    1
   133   118   120    1
@<TRIPOS>SUBSTRUCTURE
     1 RES1      120 GROUP             0 ****  ****    0  
