@<TRIPOS>MOLECULE
am_c3_9H2O_c0_0_nunpairedes_0_charge_3 Charge: 3 Unpaired_Electrons: 3 XTB_Unpaired_Electrons: 0 XTB_Charge: 3
   342   347     1     0     0
SMALL
NoCharges
****
Generated from Architector

@<TRIPOS>ATOM
     1 Nd1      -0.1260    0.0591    0.0179   Nd        1 RES1   0.0000
     2 C1        8.5765   -1.4950   -2.5682   C.3       1 RES1   0.0000
     3 C2        7.8809   -0.2851   -3.1820   C.3       1 RES1   0.0000
     4 C3        6.8277    0.3708   -2.2832   C.3       1 RES1   0.0000
     5 C4        7.4011    1.0059   -1.0079   C.3       1 RES1   0.0000
     6 C5        7.4788    0.0664    0.1970   C.3       1 RES1   0.0000
     7 C6        6.1086   -0.2569    0.7918   C.3       1 RES1   0.0000
     8 C7        6.2054   -1.4508    1.7367   C.3       1 RES1   0.0000
     9 C8        4.8812   -1.8357    2.4053   C.3       1 RES1   0.0000
    10 N1        3.7902   -2.0485    1.4634   N.am      1 RES1   0.0000
    11 C9        3.9433   -3.1629    0.5165   C.3       1 RES1   0.0000
    12 C10       4.4576   -4.5034    1.0449   C.3       1 RES1   0.0000
    13 C11       3.4419   -5.3214    1.8480   C.3       1 RES1   0.0000
    14 C12       3.5024   -5.1143    3.3608   C.3       1 RES1   0.0000
    15 C13       4.7457   -5.7180    4.0125   C.3       1 RES1   0.0000
    16 C14       4.7771   -5.4812    5.5258   C.3       1 RES1   0.0000
    17 C15       5.1466   -4.0565    5.9470   C.3       1 RES1   0.0000
    18 C16       6.6110   -3.7175    5.6966   C.3       1 RES1   0.0000
    19 C17       2.7811   -1.2041    1.2799   C.2       1 RES1   0.0000
    20 O1        1.8344   -1.4457    0.5023   O.2       1 RES1   0.0000
    21 C18       2.7445    0.1360    2.0224   C.3       1 RES1   0.0000
    22 N2        2.0539    1.1163    1.1700   N.4       1 RES1   0.0000
    23 C19       1.6231    2.2750    1.9632   C.3       1 RES1   0.0000
    24 C20       0.2134    2.0068    2.5266   C.2       1 RES1   0.0000
    25 O2       -0.4116    1.0174    2.1004   O.2       1 RES1   0.0000
    26 N3       -0.2894    2.8907    3.3822   N.am      1 RES1   0.0000
    27 C21       0.5900    3.7445    4.1725   C.3       1 RES1   0.0000
    28 C22       1.4879    2.9713    5.1673   C.3       1 RES1   0.0000
    29 C23       0.8601    2.5995    6.5237   C.3       1 RES1   0.0000
    30 C24       0.4574    1.1260    6.6692   C.3       1 RES1   0.0000
    31 C25      -0.7421    0.7847    5.7900   C.3       1 RES1   0.0000
    32 C26      -1.4596   -0.5257    6.0899   C.3       1 RES1   0.0000
    33 C27      -2.5196   -0.8234    5.0295   C.3       1 RES1   0.0000
    34 C28      -3.3624   -2.0334    5.4079   C.3       1 RES1   0.0000
    35 C29      -1.7140    2.8586    3.7123   C.3       1 RES1   0.0000
    36 C30      -2.6594    3.5783    2.7446   C.3       1 RES1   0.0000
    37 C31      -2.4603    5.0837    2.5545   C.3       1 RES1   0.0000
    38 C32      -1.4642    5.4461    1.4568   C.3       1 RES1   0.0000
    39 C33      -1.4024    6.9520    1.1824   C.3       1 RES1   0.0000
    40 C34      -0.9268    7.8265    2.3428   C.3       1 RES1   0.0000
    41 C35       0.5299    7.5771    2.7195   C.3       1 RES1   0.0000
    42 C36       1.0073    8.5481    3.7904   C.3       1 RES1   0.0000
    43 C37       2.9118    1.5340    0.0484   C.3       1 RES1   0.0000
    44 C38       2.0375    2.3130   -0.9430   C.2       1 RES1   0.0000
    45 O3        0.8435    1.9742   -1.0538   O.2       1 RES1   0.0000
    46 N4        2.5330    3.3363   -1.6235   N.am      1 RES1   0.0000
    47 C39       3.9302    3.7433   -1.5744   C.3       1 RES1   0.0000
    48 C40       4.2441    4.6561   -0.3782   C.3       1 RES1   0.0000
    49 C41       3.6262    6.0504   -0.4682   C.3       1 RES1   0.0000
    50 C42       3.7739    6.8857    0.8067   C.3       1 RES1   0.0000
    51 C43       5.1734    7.4089    1.1396   C.3       1 RES1   0.0000
    52 C44       6.1758    6.4101    1.7248   C.3       1 RES1   0.0000
    53 C45       5.6564    5.6263    2.9286   C.3       1 RES1   0.0000
    54 C46       6.7260    4.6875    3.4733   C.3       1 RES1   0.0000
    55 C47       1.6160    4.1775   -2.3949   C.3       1 RES1   0.0000
    56 C48       1.2647    3.6648   -3.7913   C.3       1 RES1   0.0000
    57 C49       0.3449    4.6811   -4.4829   C.3       1 RES1   0.0000
    58 C50      -0.2621    4.1737   -5.7903   C.3       1 RES1   0.0000
    59 C51      -1.0829    5.2207   -6.5514   C.3       1 RES1   0.0000
    60 C52      -2.4367    5.6044   -5.9368   C.3       1 RES1   0.0000
    61 C53      -2.3929    6.7688   -4.9450   C.3       1 RES1   0.0000
    62 C54      -3.7906    7.2562   -4.5742   C.3       1 RES1   0.0000
    63 H1        9.1412   -2.0212   -3.3325   H         1 RES1   0.0000
    64 H2        7.8517   -2.1912   -2.1478   H         1 RES1   0.0000
    65 H3        9.2750   -1.1932   -1.7929   H         1 RES1   0.0000
    66 H4        7.3900   -0.5948   -4.1080   H         1 RES1   0.0000
    67 H5        8.6311    0.4599   -3.4483   H         1 RES1   0.0000
    68 H6        6.0653   -0.3721   -2.0299   H         1 RES1   0.0000
    69 H7        6.3349    1.1507   -2.8717   H         1 RES1   0.0000
    70 H8        6.8019    1.8785   -0.7281   H         1 RES1   0.0000
    71 H9        8.4049    1.3660   -1.2304   H         1 RES1   0.0000
    72 H10       8.0943    0.5280    0.9709   H         1 RES1   0.0000
    73 H11       7.9662   -0.8608   -0.0958   H         1 RES1   0.0000
    74 H12       5.4043   -0.4811   -0.0148   H         1 RES1   0.0000
    75 H13       5.7357    0.6159    1.3340   H         1 RES1   0.0000
    76 H14       6.9141   -1.2184    2.5332   H         1 RES1   0.0000
    77 H15       6.5956   -2.3078    1.1871   H         1 RES1   0.0000
    78 H16       4.5992   -1.0796    3.1353   H         1 RES1   0.0000
    79 H17       5.0278   -2.7663    2.9565   H         1 RES1   0.0000
    80 H18       4.6355   -2.8176   -0.2612   H         1 RES1   0.0000
    81 H19       2.9658   -3.3213    0.0546   H         1 RES1   0.0000
    82 H20       5.3725   -4.3738    1.6175   H         1 RES1   0.0000
    83 H21       4.7274   -5.0683    0.1506   H         1 RES1   0.0000
    84 H22       3.6099   -6.3794    1.6470   H         1 RES1   0.0000
    85 H23       2.4410   -5.0755    1.4848   H         1 RES1   0.0000
    86 H24       2.6285   -5.5907    3.8088   H         1 RES1   0.0000
    87 H25       3.4458   -4.0486    3.5859   H         1 RES1   0.0000
    88 H26       5.6535   -5.3133    3.5627   H         1 RES1   0.0000
    89 H27       4.7478   -6.7939    3.8251   H         1 RES1   0.0000
    90 H28       5.5009   -6.1638    5.9714   H         1 RES1   0.0000
    91 H29       3.7975   -5.7324    5.9392   H         1 RES1   0.0000
    92 H30       4.9468   -3.9602    7.0151   H         1 RES1   0.0000
    93 H31       4.5100   -3.3302    5.4340   H         1 RES1   0.0000
    94 H32       7.2508   -4.4197    6.2232   H         1 RES1   0.0000
    95 H33       6.8352   -2.7175    6.0599   H         1 RES1   0.0000
    96 H34       6.8572   -3.7584    4.6373   H         1 RES1   0.0000
    97 H35       3.7440    0.4995    2.2871   H         1 RES1   0.0000
    98 H36       2.1694   -0.0130    2.9442   H         1 RES1   0.0000
    99 H37       1.5147    3.1477    1.3077   H         1 RES1   0.0000
   100 H38       2.3612    2.5246    2.7324   H         1 RES1   0.0000
   101 H39      -0.0313    4.4492    4.7240   H         1 RES1   0.0000
   102 H40       1.2197    4.3334    3.4991   H         1 RES1   0.0000
   103 H41       2.3558    3.6079    5.3501   H         1 RES1   0.0000
   104 H42       1.8548    2.0509    4.7096   H         1 RES1   0.0000
   105 H43      -0.0107    3.2266    6.7148   H         1 RES1   0.0000
   106 H44       1.5898    2.8231    7.3008   H         1 RES1   0.0000
   107 H45       0.2001    0.9502    7.7138   H         1 RES1   0.0000
   108 H46       1.3125    0.4851    6.4361   H         1 RES1   0.0000
   109 H47      -0.4209    0.7556    4.7469   H         1 RES1   0.0000
   110 H48      -1.4674    1.5863    5.9211   H         1 RES1   0.0000
   111 H49      -1.9394   -0.4646    7.0661   H         1 RES1   0.0000
   112 H50      -0.7487   -1.3454    6.1222   H         1 RES1   0.0000
   113 H51      -2.0348   -0.9902    4.0601   H         1 RES1   0.0000
   114 H52      -3.1775    0.0428    4.9212   H         1 RES1   0.0000
   115 H53      -2.7433   -2.9185    5.5288   H         1 RES1   0.0000
   116 H54      -4.1078   -2.2431    4.6485   H         1 RES1   0.0000
   117 H55      -3.8805   -1.8532    6.3448   H         1 RES1   0.0000
   118 H56      -1.8297    3.2836    4.7079   H         1 RES1   0.0000
   119 H57      -2.0302    1.8150    3.7290   H         1 RES1   0.0000
   120 H58      -3.6506    3.4162    3.1717   H         1 RES1   0.0000
   121 H59      -2.6348    3.0683    1.7836   H         1 RES1   0.0000
   122 H60      -2.1522    5.5343    3.4972   H         1 RES1   0.0000
   123 H61      -3.4255    5.5185    2.2867   H         1 RES1   0.0000
   124 H62      -1.7851    4.9631    0.5288   H         1 RES1   0.0000
   125 H63      -0.4752    5.0615    1.7096   H         1 RES1   0.0000
   126 H64      -2.3982    7.2848    0.8847   H         1 RES1   0.0000
   127 H65      -0.7329    7.1229    0.3348   H         1 RES1   0.0000
   128 H66      -1.5640    7.6896    3.2169   H         1 RES1   0.0000
   129 H67      -1.0310    8.8686    2.0348   H         1 RES1   0.0000
   130 H68       1.1466    7.6921    1.8264   H         1 RES1   0.0000
   131 H69       0.6501    6.5536    3.0830   H         1 RES1   0.0000
   132 H70       0.9214    9.5719    3.4361   H         1 RES1   0.0000
   133 H71       2.0472    8.3602    4.0470   H         1 RES1   0.0000
   134 H72       0.4068    8.4495    4.6918   H         1 RES1   0.0000
   135 H73       3.2766    0.6362   -0.4621   H         1 RES1   0.0000
   136 H74       3.7750    2.1060    0.4065   H         1 RES1   0.0000
   137 H75       4.1476    4.2603   -2.5104   H         1 RES1   0.0000
   138 H76       4.5623    2.8516   -1.5434   H         1 RES1   0.0000
   139 H77       5.3266    4.7454   -0.3175   H         1 RES1   0.0000
   140 H78       3.8951    4.1838    0.5433   H         1 RES1   0.0000
   141 H79       2.5543    5.9533   -0.6536   H         1 RES1   0.0000
   142 H80       4.0675    6.5936   -1.3044   H         1 RES1   0.0000
   143 H81       3.3698    6.3301    1.6547   H         1 RES1   0.0000
   144 H82       3.1376    7.7611    0.6721   H         1 RES1   0.0000
   145 H83       5.0464    8.2162    1.8638   H         1 RES1   0.0000
   146 H84       5.6064    7.8520    0.2408   H         1 RES1   0.0000
   147 H85       7.0517    6.9796    2.0401   H         1 RES1   0.0000
   148 H86       6.5198    5.7117    0.9593   H         1 RES1   0.0000
   149 H87       4.7790    5.0364    2.6465   H         1 RES1   0.0000
   150 H88       5.3516    6.3244    3.7099   H         1 RES1   0.0000
   151 H89       7.0385    3.9785    2.7071   H         1 RES1   0.0000
   152 H90       6.3567    4.1327    4.3334   H         1 RES1   0.0000
   153 H91       7.5986    5.2532    3.7858   H         1 RES1   0.0000
   154 H92       2.0793    5.1577   -2.4930   H         1 RES1   0.0000
   155 H93       0.6931    4.2781   -1.8161   H         1 RES1   0.0000
   156 H94       0.7804    2.6895   -3.7073   H         1 RES1   0.0000
   157 H95       2.1791    3.5443   -4.3716   H         1 RES1   0.0000
   158 H96       0.9183    5.5848   -4.6924   H         1 RES1   0.0000
   159 H97      -0.4571    4.9563   -3.7969   H         1 RES1   0.0000
   160 H98      -0.8919    3.3031   -5.5983   H         1 RES1   0.0000
   161 H99       0.5437    3.8505   -6.4508   H         1 RES1   0.0000
   162 H100     -1.2726    4.8086   -7.5444   H         1 RES1   0.0000
   163 H101     -0.4826    6.1204   -6.6905   H         1 RES1   0.0000
   164 H102     -2.8772    4.7276   -5.4574   H         1 RES1   0.0000
   165 H103     -3.1049    5.8929   -6.7513   H         1 RES1   0.0000
   166 H104     -1.8459    7.5988   -5.3942   H         1 RES1   0.0000
   167 H105     -1.8636    6.4776   -4.0351   H         1 RES1   0.0000
   168 H106     -4.3123    7.6220   -5.4547   H         1 RES1   0.0000
   169 H107     -3.7286    8.0700   -3.8554   H         1 RES1   0.0000
   170 H108     -4.3869    6.4576   -4.1348   H         1 RES1   0.0000
   171 C55       5.1320   -6.3435   -3.7796   C.3       1 RES1   0.0000
   172 C56       4.4087   -6.9552   -2.5840   C.3       1 RES1   0.0000
   173 C57       3.0272   -6.3595   -2.2923   C.3       1 RES1   0.0000
   174 C58       1.9455   -6.7136   -3.3219   C.3       1 RES1   0.0000
   175 C59       1.8904   -5.8050   -4.5503   C.3       1 RES1   0.0000
   176 C60       1.3687   -4.4036   -4.2412   C.3       1 RES1   0.0000
   177 C61       1.6026   -3.4822   -5.4345   C.3       1 RES1   0.0000
   178 C62       1.0524   -2.0653   -5.2453   C.3       1 RES1   0.0000
   179 N5        1.5046   -1.4208   -4.0231   N.am      1 RES1   0.0000
   180 C63       2.9414   -1.1545   -3.9011   C.3       1 RES1   0.0000
   181 C64       3.6633   -0.5553   -5.1070   C.3       1 RES1   0.0000
   182 C65       3.3580    0.9191   -5.3705   C.3       1 RES1   0.0000
   183 C66       2.1223    1.1987   -6.2230   C.3       1 RES1   0.0000
   184 C67       2.2632    0.7512   -7.6777   C.3       1 RES1   0.0000
   185 C68       1.1114    1.2562   -8.5510   C.3       1 RES1   0.0000
   186 C69      -0.2545    0.6423   -8.2359   C.3       1 RES1   0.0000
   187 C70      -0.3641   -0.8148   -8.6707   C.3       1 RES1   0.0000
   188 C71       0.7315   -1.1864   -2.9674   C.2       1 RES1   0.0000
   189 O4        1.1293   -0.5410   -1.9746   O.2       1 RES1   0.0000
   190 C72      -0.6947   -1.7378   -2.9315   C.3       1 RES1   0.0000
   191 N6       -1.0810   -1.9579   -1.5326   N.4       1 RES1   0.0000
   192 C73      -2.5322   -2.1540   -1.4227   C.3       1 RES1   0.0000
   193 C74      -3.1743   -0.8286   -1.0287   C.2       1 RES1   0.0000
   194 O5       -2.4192    0.1036   -0.6783   O.2       1 RES1   0.0000
   195 N7       -4.4944   -0.7126   -1.0377   N.am      1 RES1   0.0000
   196 C75      -5.3719   -1.7337   -1.5983   C.3       1 RES1   0.0000
   197 C76      -5.3663   -1.8837   -3.1335   C.3       1 RES1   0.0000
   198 C77      -6.0343   -0.7627   -3.9466   C.3       1 RES1   0.0000
   199 C78      -5.0321    0.1423   -4.6703   C.3       1 RES1   0.0000
   200 C79      -4.2824    1.0202   -3.6786   C.3       1 RES1   0.0000
   201 C80      -3.2081    1.9243   -4.2664   C.3       1 RES1   0.0000
   202 C81      -2.4286    2.6160   -3.1433   C.3       1 RES1   0.0000
   203 C82      -3.2225    3.7245   -2.4576   C.3       1 RES1   0.0000
   204 C83      -5.0680    0.5365   -0.5383   C.3       1 RES1   0.0000
   205 C84      -5.0153    0.7028    0.9827   C.3       1 RES1   0.0000
   206 C85      -5.9422   -0.2442    1.7448   C.3       1 RES1   0.0000
   207 C86      -5.3115   -1.6042    2.0257   C.3       1 RES1   0.0000
   208 C87      -6.2103   -2.4913    2.8912   C.3       1 RES1   0.0000
   209 C88      -7.4634   -3.0262    2.1956   C.3       1 RES1   0.0000
   210 C89      -7.1446   -4.0425    1.1024   C.3       1 RES1   0.0000
   211 C90      -8.4042   -4.6516    0.5029   C.3       1 RES1   0.0000
   212 C91      -0.3723   -3.0976   -0.9365   C.3       1 RES1   0.0000
   213 C92      -0.6324   -3.0396    0.5780   C.2       1 RES1   0.0000
   214 O6       -0.8374   -1.9197    1.0882   O.2       1 RES1   0.0000
   215 N8       -0.6488   -4.1594    1.2833   N.am      1 RES1   0.0000
   216 C93      -0.4831   -5.4843    0.6925   C.3       1 RES1   0.0000
   217 C94      -1.7625   -6.0174    0.0276   C.3       1 RES1   0.0000
   218 C95      -2.8909   -6.3335    1.0077   C.3       1 RES1   0.0000
   219 C96      -4.2476   -6.5328    0.3250   C.3       1 RES1   0.0000
   220 C97      -4.4070   -7.7930   -0.5327   C.3       1 RES1   0.0000
   221 C98      -3.8188   -7.7683   -1.9471   C.3       1 RES1   0.0000
   222 C99      -4.3064   -6.6114   -2.8173   C.3       1 RES1   0.0000
   223 C100     -3.7446   -6.7144   -4.2308   C.3       1 RES1   0.0000
   224 C101     -0.8802   -4.0766    2.7282   C.3       1 RES1   0.0000
   225 C102      0.2930   -3.4310    3.4744   C.3       1 RES1   0.0000
   226 C103      0.2660   -3.7873    4.9648   C.3       1 RES1   0.0000
   227 C104      1.3485   -3.0595    5.7625   C.3       1 RES1   0.0000
   228 C105      1.4484   -3.4616    7.2423   C.3       1 RES1   0.0000
   229 C106      0.4932   -2.7622    8.2201   C.3       1 RES1   0.0000
   230 C107     -0.8993   -3.3841    8.3242   C.3       1 RES1   0.0000
   231 C108     -1.7674   -2.6741    9.3581   C.3       1 RES1   0.0000
   232 H109      6.1809   -6.6267   -3.7615   H         1 RES1   0.0000
   233 H110      5.0744   -5.2553   -3.7561   H         1 RES1   0.0000
   234 H111      4.7147   -6.7035   -4.7153   H         1 RES1   0.0000
   235 H112      5.0282   -6.8189   -1.6939   H         1 RES1   0.0000
   236 H113      4.3068   -8.0294   -2.7385   H         1 RES1   0.0000
   237 H114      3.1214   -5.2736   -2.1954   H         1 RES1   0.0000
   238 H115      2.7061   -6.7418   -1.3190   H         1 RES1   0.0000
   239 H116      0.9648   -6.6958   -2.8353   H         1 RES1   0.0000
   240 H117      2.1184   -7.7353   -3.6584   H         1 RES1   0.0000
   241 H118      1.2356   -6.2591   -5.2963   H         1 RES1   0.0000
   242 H119      2.8802   -5.7232   -4.9930   H         1 RES1   0.0000
   243 H120      1.8778   -4.0024   -3.3602   H         1 RES1   0.0000
   244 H121      0.3000   -4.4589   -4.0174   H         1 RES1   0.0000
   245 H122      1.1113   -3.9055   -6.3125   H         1 RES1   0.0000
   246 H123      2.6712   -3.4350   -5.6463   H         1 RES1   0.0000
   247 H124     -0.0354   -2.0839   -5.2815   H         1 RES1   0.0000
   248 H125      1.3833   -1.4419   -6.0777   H         1 RES1   0.0000
   249 H126      3.4192   -2.1111   -3.6577   H         1 RES1   0.0000
   250 H127      3.0649   -0.4822   -3.0488   H         1 RES1   0.0000
   251 H128      3.4942   -1.1443   -6.0046   H         1 RES1   0.0000
   252 H129      4.7252   -0.6455   -4.8680   H         1 RES1   0.0000
   253 H130      4.2177    1.3584   -5.8760   H         1 RES1   0.0000
   254 H131      3.2536    1.4219   -4.4059   H         1 RES1   0.0000
   255 H132      1.9652    2.2769   -6.2338   H         1 RES1   0.0000
   256 H133      1.2397    0.7532   -5.7613   H         1 RES1   0.0000
   257 H134      2.3284   -0.3356   -7.7531   H         1 RES1   0.0000
   258 H135      3.1968    1.1557   -8.0756   H         1 RES1   0.0000
   259 H136      1.3477    1.0486   -9.5952   H         1 RES1   0.0000
   260 H137      1.0454    2.3411   -8.4432   H         1 RES1   0.0000
   261 H138     -1.0131    1.2197   -8.7655   H         1 RES1   0.0000
   262 H139     -0.4696    0.7330   -7.1679   H         1 RES1   0.0000
   263 H140     -0.1857   -0.8975   -9.7392   H         1 RES1   0.0000
   264 H141     -1.3594   -1.2008   -8.4621   H         1 RES1   0.0000
   265 H142      0.3611   -1.4425   -8.1571   H         1 RES1   0.0000
   266 H143     -0.7813   -2.6700   -3.5018   H         1 RES1   0.0000
   267 H144     -1.3605   -0.9874   -3.3738   H         1 RES1   0.0000
   268 H145     -2.7634   -2.8535   -0.6126   H         1 RES1   0.0000
   269 H146     -2.9389   -2.5690   -2.3482   H         1 RES1   0.0000
   270 H147     -6.3883   -1.5044   -1.2769   H         1 RES1   0.0000
   271 H148     -5.1052   -2.7014   -1.1618   H         1 RES1   0.0000
   272 H149     -5.8811   -2.8261   -3.3288   H         1 RES1   0.0000
   273 H150     -4.3507   -2.0027   -3.5119   H         1 RES1   0.0000
   274 H151     -6.6713   -0.1541   -3.3051   H         1 RES1   0.0000
   275 H152     -6.6804   -1.2199   -4.6939   H         1 RES1   0.0000
   276 H153     -5.5711    0.7712   -5.3773   H         1 RES1   0.0000
   277 H154     -4.3305   -0.4690   -5.2450   H         1 RES1   0.0000
   278 H155     -3.7906    0.3730   -2.9533   H         1 RES1   0.0000
   279 H156     -5.0168    1.6364   -3.1604   H         1 RES1   0.0000
   280 H157     -3.6636    2.6617   -4.9277   H         1 RES1   0.0000
   281 H158     -2.5179    1.3260   -4.8689   H         1 RES1   0.0000
   282 H159     -1.5250    3.0514   -3.5591   H         1 RES1   0.0000
   283 H160     -2.1132    1.8533   -2.4170   H         1 RES1   0.0000
   284 H161     -3.5726    4.4421   -3.1938   H         1 RES1   0.0000
   285 H162     -2.6042    4.2692   -1.7470   H         1 RES1   0.0000
   286 H163     -4.0921    3.3457   -1.9271   H         1 RES1   0.0000
   287 H164     -6.1023    0.5965   -0.8762   H         1 RES1   0.0000
   288 H165     -4.5090    1.3606   -0.9864   H         1 RES1   0.0000
   289 H166     -5.3196    1.7323    1.1792   H         1 RES1   0.0000
   290 H167     -3.9863    0.5921    1.3370   H         1 RES1   0.0000
   291 H168     -6.8669   -0.3722    1.1813   H         1 RES1   0.0000
   292 H169     -6.2064    0.2187    2.6965   H         1 RES1   0.0000
   293 H170     -4.3627   -1.4436    2.5455   H         1 RES1   0.0000
   294 H171     -5.0837   -2.1107    1.0884   H         1 RES1   0.0000
   295 H172     -6.5141   -1.9200    3.7705   H         1 RES1   0.0000
   296 H173     -5.6313   -3.3506    3.2387   H         1 RES1   0.0000
   297 H174     -8.0509   -2.2058    1.7812   H         1 RES1   0.0000
   298 H175     -8.0832   -3.5140    2.9500   H         1 RES1   0.0000
   299 H176     -6.5278   -4.8363    1.5279   H         1 RES1   0.0000
   300 H177     -6.5696   -3.5644    0.3065   H         1 RES1   0.0000
   301 H178     -8.9647   -5.1871    1.2643   H         1 RES1   0.0000
   302 H179     -8.1512   -5.3499   -0.2918   H         1 RES1   0.0000
   303 H180     -9.0458   -3.8767    0.0893   H         1 RES1   0.0000
   304 H181      0.7063   -2.9758   -1.0896   H         1 RES1   0.0000
   305 H182     -0.6910   -4.0382   -1.3991   H         1 RES1   0.0000
   306 H183     -0.1844   -6.1643    1.4911   H         1 RES1   0.0000
   307 H184      0.3333   -5.4616   -0.0352   H         1 RES1   0.0000
   308 H185     -1.4905   -6.9201   -0.5177   H         1 RES1   0.0000
   309 H186     -2.1379   -5.2936   -0.6991   H         1 RES1   0.0000
   310 H187     -2.9938   -5.5031    1.7111   H         1 RES1   0.0000
   311 H188     -2.6431   -7.2279    1.5798   H         1 RES1   0.0000
   312 H189     -4.4920   -5.6466   -0.2640   H         1 RES1   0.0000
   313 H190     -4.9900   -6.5936    1.1212   H         1 RES1   0.0000
   314 H191     -5.4775   -7.9859   -0.6274   H         1 RES1   0.0000
   315 H192     -3.9767   -8.6386    0.0066   H         1 RES1   0.0000
   316 H193     -4.1110   -8.7020   -2.4313   H         1 RES1   0.0000
   317 H194     -2.7279   -7.7614   -1.9178   H         1 RES1   0.0000
   318 H195     -4.0016   -5.6541   -2.3816   H         1 RES1   0.0000
   319 H196     -5.3965   -6.6265   -2.8583   H         1 RES1   0.0000
   320 H197     -2.6550   -6.7138   -4.2124   H         1 RES1   0.0000
   321 H198     -4.0846   -5.8853   -4.8480   H         1 RES1   0.0000
   322 H199     -4.0722   -7.6384   -4.6985   H         1 RES1   0.0000
   323 H200     -1.0327   -5.0926    3.0902   H         1 RES1   0.0000
   324 H201     -1.7893   -3.4976    2.9090   H         1 RES1   0.0000
   325 H202      0.2525   -2.3472    3.3375   H         1 RES1   0.0000
   326 H203      1.2221   -3.7878    3.0296   H         1 RES1   0.0000
   327 H204      0.4126   -4.8633    5.0723   H         1 RES1   0.0000
   328 H205     -0.7149   -3.5460    5.3693   H         1 RES1   0.0000
   329 H206      1.1935   -1.9813    5.6925   H         1 RES1   0.0000
   330 H207      2.3120   -3.2754    5.2987   H         1 RES1   0.0000
   331 H208      2.4653   -3.2315    7.5658   H         1 RES1   0.0000
   332 H209      1.3252   -4.5413    7.3326   H         1 RES1   0.0000
   333 H210      0.4061   -1.7077    7.9512   H         1 RES1   0.0000
   334 H211      0.9477   -2.7985    9.2127   H         1 RES1   0.0000
   335 H212     -0.8041   -4.4329    8.6089   H         1 RES1   0.0000
   336 H213     -1.4036   -3.3460    7.3585   H         1 RES1   0.0000
   337 H214     -1.3281   -2.7496   10.3496   H         1 RES1   0.0000
   338 H215     -2.7573   -3.1239    9.3907   H         1 RES1   0.0000
   339 H216     -1.8792   -1.6188    9.1150   H         1 RES1   0.0000
   340 O7       -1.4352    2.3919    0.0632   O.3       1 RES1   0.0000
   341 H217     -1.1170    3.2339   -0.2771   H         1 RES1   0.0000
   342 H218     -2.2972    2.2391   -0.3417   H         1 RES1   0.0000
@<TRIPOS>BOND
     1     1    20    1
     2     1    22    1
     3     1    25    1
     4     1    45    1
     5     1   189    1
     6     1   191    1
     7     1   194    1
     8     1   214    1
     9     1   340    1
    10     2     3    1
    11     2    63    1
    12     2    64    1
    13     2    65    1
    14     3     4    1
    15     3    66    1
    16     3    67    1
    17     4     5    1
    18     4    68    1
    19     4    69    1
    20     5     6    1
    21     5    70    1
    22     5    71    1
    23     6     7    1
    24     6    72    1
    25     6    73    1
    26     7     8    1
    27     7    74    1
    28     7    75    1
    29     8     9    1
    30     8    76    1
    31     8    77    1
    32     9    10    1
    33     9    78    1
    34     9    79    1
    35    10    11    1
    36    10    19    1
    37    11    12    1
    38    11    80    1
    39    11    81    1
    40    12    13    1
    41    12    82    1
    42    12    83    1
    43    13    14    1
    44    13    84    1
    45    13    85    1
    46    14    15    1
    47    14    86    1
    48    14    87    1
    49    15    16    1
    50    15    88    1
    51    15    89    1
    52    16    17    1
    53    16    90    1
    54    16    91    1
    55    17    18    1
    56    17    92    1
    57    17    93    1
    58    18    94    1
    59    18    95    1
    60    18    96    1
    61    19    20    2
    62    19    21    1
    63    21    22    1
    64    21    97    1
    65    21    98    1
    66    22    23    1
    67    22    43    1
    68    23    24    1
    69    23    99    1
    70    23   100    1
    71    24    25    2
    72    24    26    1
    73    26    27    1
    74    26    35    1
    75    27    28    1
    76    27   101    1
    77    27   102    1
    78    28    29    1
    79    28   103    1
    80    28   104    1
    81    29    30    1
    82    29   105    1
    83    29   106    1
    84    30    31    1
    85    30   107    1
    86    30   108    1
    87    31    32    1
    88    31   109    1
    89    31   110    1
    90    32    33    1
    91    32   111    1
    92    32   112    1
    93    33    34    1
    94    33   113    1
    95    33   114    1
    96    34   115    1
    97    34   116    1
    98    34   117    1
    99    35    36    1
   100    35   118    1
   101    35   119    1
   102    36    37    1
   103    36   120    1
   104    36   121    1
   105    37    38    1
   106    37   122    1
   107    37   123    1
   108    38    39    1
   109    38   124    1
   110    38   125    1
   111    39    40    1
   112    39   126    1
   113    39   127    1
   114    40    41    1
   115    40   128    1
   116    40   129    1
   117    41    42    1
   118    41   130    1
   119    41   131    1
   120    42   132    1
   121    42   133    1
   122    42   134    1
   123    43    44    1
   124    43   135    1
   125    43   136    1
   126    44    45    2
   127    44    46    1
   128    46    47    1
   129    46    55    1
   130    47    48    1
   131    47   137    1
   132    47   138    1
   133    48    49    1
   134    48   139    1
   135    48   140    1
   136    49    50    1
   137    49   141    1
   138    49   142    1
   139    50    51    1
   140    50   143    1
   141    50   144    1
   142    51    52    1
   143    51   145    1
   144    51   146    1
   145    52    53    1
   146    52   147    1
   147    52   148    1
   148    53    54    1
   149    53   149    1
   150    53   150    1
   151    54   151    1
   152    54   152    1
   153    54   153    1
   154    55    56    1
   155    55   154    1
   156    55   155    1
   157    56    57    1
   158    56   156    1
   159    56   157    1
   160    57    58    1
   161    57   158    1
   162    57   159    1
   163    58    59    1
   164    58   160    1
   165    58   161    1
   166    59    60    1
   167    59   162    1
   168    59   163    1
   169    60    61    1
   170    60   164    1
   171    60   165    1
   172    61    62    1
   173    61   166    1
   174    61   167    1
   175    62   168    1
   176    62   169    1
   177    62   170    1
   178   171   172    1
   179   171   232    1
   180   171   233    1
   181   171   234    1
   182   172   173    1
   183   172   235    1
   184   172   236    1
   185   173   174    1
   186   173   237    1
   187   173   238    1
   188   174   175    1
   189   174   239    1
   190   174   240    1
   191   175   176    1
   192   175   241    1
   193   175   242    1
   194   176   177    1
   195   176   243    1
   196   176   244    1
   197   177   178    1
   198   177   245    1
   199   177   246    1
   200   178   179    1
   201   178   247    1
   202   178   248    1
   203   179   180    1
   204   179   188    1
   205   180   181    1
   206   180   249    1
   207   180   250    1
   208   181   182    1
   209   181   251    1
   210   181   252    1
   211   182   183    1
   212   182   253    1
   213   182   254    1
   214   183   184    1
   215   183   255    1
   216   183   256    1
   217   184   185    1
   218   184   257    1
   219   184   258    1
   220   185   186    1
   221   185   259    1
   222   185   260    1
   223   186   187    1
   224   186   261    1
   225   186   262    1
   226   187   263    1
   227   187   264    1
   228   187   265    1
   229   188   189    2
   230   188   190    1
   231   190   191    1
   232   190   266    1
   233   190   267    1
   234   191   192    1
   235   191   212    1
   236   192   193    1
   237   192   268    1
   238   192   269    1
   239   193   194    2
   240   193   195    1
   241   195   196    1
   242   195   204    1
   243   196   197    1
   244   196   270    1
   245   196   271    1
   246   197   198    1
   247   197   272    1
   248   197   273    1
   249   198   199    1
   250   198   274    1
   251   198   275    1
   252   199   200    1
   253   199   276    1
   254   199   277    1
   255   200   201    1
   256   200   278    1
   257   200   279    1
   258   201   202    1
   259   201   280    1
   260   201   281    1
   261   202   203    1
   262   202   282    1
   263   202   283    1
   264   203   284    1
   265   203   285    1
   266   203   286    1
   267   204   205    1
   268   204   287    1
   269   204   288    1
   270   205   206    1
   271   205   289    1
   272   205   290    1
   273   206   207    1
   274   206   291    1
   275   206   292    1
   276   207   208    1
   277   207   293    1
   278   207   294    1
   279   208   209    1
   280   208   295    1
   281   208   296    1
   282   209   210    1
   283   209   297    1
   284   209   298    1
   285   210   211    1
   286   210   299    1
   287   210   300    1
   288   211   301    1
   289   211   302    1
   290   211   303    1
   291   212   213    1
   292   212   304    1
   293   212   305    1
   294   213   214    2
   295   213   215    1
   296   215   216    1
   297   215   224    1
   298   216   217    1
   299   216   306    1
   300   216   307    1
   301   217   218    1
   302   217   308    1
   303   217   309    1
   304   218   219    1
   305   218   310    1
   306   218   311    1
   307   219   220    1
   308   219   312    1
   309   219   313    1
   310   220   221    1
   311   220   314    1
   312   220   315    1
   313   221   222    1
   314   221   316    1
   315   221   317    1
   316   222   223    1
   317   222   318    1
   318   222   319    1
   319   223   320    1
   320   223   321    1
   321   223   322    1
   322   224   225    1
   323   224   323    1
   324   224   324    1
   325   225   226    1
   326   225   325    1
   327   225   326    1
   328   226   227    1
   329   226   327    1
   330   226   328    1
   331   227   228    1
   332   227   329    1
   333   227   330    1
   334   228   229    1
   335   228   331    1
   336   228   332    1
   337   229   230    1
   338   229   333    1
   339   229   334    1
   340   230   231    1
   341   230   335    1
   342   230   336    1
   343   231   337    1
   344   231   338    1
   345   231   339    1
   346   340   341    1
   347   340   342    1
@<TRIPOS>SUBSTRUCTURE
     1 RES1      342 GROUP             0 ****  ****    0  
