@<TRIPOS>MOLECULE
am_c3_9H2O_c0_0_nunpairedes_0_charge_3 Charge: 3 Unpaired_Electrons: 3 XTB_Unpaired_Electrons: 0 XTB_Charge: 3
   130   141     1     0     0
SMALL
NoCharges
****
Generated from Architector

@<TRIPOS>ATOM
     1 Nd1      -0.1023    0.1515    0.0346   Nd        1 RES1   0.0000
     2 C1       -4.1060    1.4424    3.9185   C.3       1 RES1   0.0000
     3 N1       -2.7807    1.6523    3.3569   N.am      1 RES1   0.0000
     4 C2       -2.3971    1.1456    2.1848   C.2       1 RES1   0.0000
     5 O1       -1.3384    1.4525    1.6027   O.2       1 RES1   0.0000
     6 C3       -3.2314    0.0347    1.5114   C.3       1 RES1   0.0000
     7 O2       -2.7247   -0.1625    0.2010   O.3       1 RES1   0.0000
     8 C4       -3.4862    0.5390   -0.7812   C.3       1 RES1   0.0000
     9 C5       -2.5790    1.2614   -1.7801   C.2       1 RES1   0.0000
    10 O3       -1.3654    1.3957   -1.5331   O.2       1 RES1   0.0000
    11 N2       -3.1469    1.7853   -2.8626   N.am      1 RES1   0.0000
    12 C6       -2.3281    2.6511   -3.7070   C.3       1 RES1   0.0000
    13 C7       -4.4686    1.4889   -3.3426   C.ar      1 RES1   0.0000
    14 C8       -5.5991    1.6031   -2.5380   C.ar      1 RES1   0.0000
    15 C9       -6.8504    1.2860   -3.0442   C.ar      1 RES1   0.0000
    16 C10      -6.9993    0.8995   -4.3653   C.ar      1 RES1   0.0000
    17 C11      -5.8795    0.8262   -5.1767   C.ar      1 RES1   0.0000
    18 C12      -4.6190    1.1073   -4.6756   C.ar      1 RES1   0.0000
    19 C13      -1.8572    2.3394    4.2118   C.ar      1 RES1   0.0000
    20 C14      -0.5165    1.9670    4.1675   C.ar      1 RES1   0.0000
    21 C15       0.3767    2.5094    5.0690   C.ar      1 RES1   0.0000
    22 C16      -0.0579    3.4151    6.0244   C.ar      1 RES1   0.0000
    23 C17      -1.3909    3.7888    6.0641   C.ar      1 RES1   0.0000
    24 C18      -2.2980    3.2683    5.1527   C.ar      1 RES1   0.0000
    25 H1       -4.6309    0.6221    3.4425   H         1 RES1   0.0000
    26 H2       -4.0169    1.2216    4.9809   H         1 RES1   0.0000
    27 H3       -4.7205    2.3388    3.8110   H         1 RES1   0.0000
    28 H4       -3.0305   -0.8942    2.0577   H         1 RES1   0.0000
    29 H5       -4.3136    0.1973    1.4764   H         1 RES1   0.0000
    30 H6       -4.1283   -0.1801   -1.3045   H         1 RES1   0.0000
    31 H7       -4.1073    1.3107   -0.3066   H         1 RES1   0.0000
    32 H8       -1.7196    3.2956   -3.0708   H         1 RES1   0.0000
    33 H9       -1.6597    2.0755   -4.3496   H         1 RES1   0.0000
    34 H10      -2.9925    3.2608   -4.3156   H         1 RES1   0.0000
    35 H11      -5.5370    1.9894   -1.5325   H         1 RES1   0.0000
    36 H12      -7.7128    1.3564   -2.4001   H         1 RES1   0.0000
    37 H13      -7.9733    0.6787   -4.7765   H         1 RES1   0.0000
    38 H14      -5.9935    0.5472   -6.2102   H         1 RES1   0.0000
    39 H15      -3.7574    1.0395   -5.3230   H         1 RES1   0.0000
    40 H16      -0.1757    1.2300    3.4520   H         1 RES1   0.0000
    41 H17       1.4104    2.2031    5.0371   H         1 RES1   0.0000
    42 H18       0.6334    3.8226    6.7461   H         1 RES1   0.0000
    43 H19      -1.7299    4.4785    6.8225   H         1 RES1   0.0000
    44 H20      -3.3303    3.5853    5.1994   H         1 RES1   0.0000
    45 C19       5.0196   -1.5551   -1.6332   C.3       1 RES1   0.0000
    46 N3        3.6528   -1.2420   -2.0310   N.am      1 RES1   0.0000
    47 C20       2.8361   -0.6367   -1.1639   C.2       1 RES1   0.0000
    48 O4        1.6632   -0.3080   -1.4024   O.2       1 RES1   0.0000
    49 C21       3.4045   -0.3251    0.2340   C.3       1 RES1   0.0000
    50 O5        2.3952    0.2303    1.0692   O.3       1 RES1   0.0000
    51 C22       2.6777    1.5299    1.5864   C.3       1 RES1   0.0000
    52 C23       1.7030    2.5271    0.9553   C.2       1 RES1   0.0000
    53 O6        1.0278    2.1230   -0.0114   O.2       1 RES1   0.0000
    54 N4        1.6192    3.7740    1.3984   N.am      1 RES1   0.0000
    55 C24       0.6999    4.6440    0.6773   C.3       1 RES1   0.0000
    56 C25       2.2293    4.2951    2.5811   C.ar      1 RES1   0.0000
    57 C26       3.5850    4.1371    2.8562   C.ar      1 RES1   0.0000
    58 C27       4.1161    4.6656    4.0232   C.ar      1 RES1   0.0000
    59 C28       3.3216    5.3902    4.8959   C.ar      1 RES1   0.0000
    60 C29       1.9825    5.5738    4.5989   C.ar      1 RES1   0.0000
    61 C30       1.4290    5.0250    3.4564   C.ar      1 RES1   0.0000
    62 C31       3.2720   -1.5631   -3.3795   C.ar      1 RES1   0.0000
    63 C32       2.2869   -0.8450   -4.0524   C.ar      1 RES1   0.0000
    64 C33       2.0300   -1.1112   -5.3878   C.ar      1 RES1   0.0000
    65 C34       2.7550   -2.0715   -6.0758   C.ar      1 RES1   0.0000
    66 C35       3.7029   -2.8138   -5.3927   C.ar      1 RES1   0.0000
    67 C36       3.9482   -2.5805   -4.0515   C.ar      1 RES1   0.0000
    68 H21       5.0675   -2.4454   -1.0019   H         1 RES1   0.0000
    69 H22       5.6273   -1.7299   -2.5154   H         1 RES1   0.0000
    70 H23       5.4789   -0.7267   -1.0981   H         1 RES1   0.0000
    71 H24       3.7656   -1.2357    0.7277   H         1 RES1   0.0000
    72 H25       4.2471    0.3677    0.1243   H         1 RES1   0.0000
    73 H26       2.5591    1.5003    2.6743   H         1 RES1   0.0000
    74 H27       3.7072    1.8271    1.3574   H         1 RES1   0.0000
    75 H28       0.6758    4.3482   -0.3715   H         1 RES1   0.0000
    76 H29      -0.3115    4.5557    1.0725   H         1 RES1   0.0000
    77 H30       1.0418    5.6700    0.7645   H         1 RES1   0.0000
    78 H31       4.2500    3.6599    2.1518   H         1 RES1   0.0000
    79 H32       5.1616    4.5213    4.2400   H         1 RES1   0.0000
    80 H33       3.7391    5.8457    5.7807   H         1 RES1   0.0000
    81 H34       1.3655    6.1540    5.2621   H         1 RES1   0.0000
    82 H35       0.3787    5.1599    3.2444   H         1 RES1   0.0000
    83 H36       1.7391   -0.0601   -3.5542   H         1 RES1   0.0000
    84 H37       1.2696   -0.5331   -5.8921   H         1 RES1   0.0000
    85 H38       2.6031   -2.2382   -7.1320   H         1 RES1   0.0000
    86 H39       4.2745   -3.5696   -5.9046   H         1 RES1   0.0000
    87 H40       4.6799   -3.1909   -3.5465   H         1 RES1   0.0000
    88 C37       1.1147   -4.0396    3.9706   C.3       1 RES1   0.0000
    89 N5        0.3706   -2.8308    3.6759   N.am      1 RES1   0.0000
    90 C38       0.4380   -2.2562    2.4820   C.2       1 RES1   0.0000
    91 O7       -0.1140   -1.1811    2.1712   O.2       1 RES1   0.0000
    92 C39       1.2118   -3.0452    1.4179   C.3       1 RES1   0.0000
    93 O8        1.0570   -2.3923    0.1726   O.3       1 RES1   0.0000
    94 C40       0.7680   -3.2785   -0.8975   C.3       1 RES1   0.0000
    95 C41      -0.2023   -2.5834   -1.8419   C.2       1 RES1   0.0000
    96 O9       -0.8307   -1.5867   -1.4228   O.2       1 RES1   0.0000
    97 N6       -0.4386   -3.1130   -3.0347   N.am      1 RES1   0.0000
    98 C42      -1.4762   -2.4540   -3.8187   C.3       1 RES1   0.0000
    99 C43       0.2643   -4.1797   -3.6861   C.ar      1 RES1   0.0000
   100 C44       0.6370   -5.3674   -3.0580   C.ar      1 RES1   0.0000
   101 C45       1.2928   -6.3598   -3.7749   C.ar      1 RES1   0.0000
   102 C46       1.5726   -6.1989   -5.1217   C.ar      1 RES1   0.0000
   103 C47       1.1759   -5.0314   -5.7499   C.ar      1 RES1   0.0000
   104 C48       0.5186   -4.0369   -5.0492   C.ar      1 RES1   0.0000
   105 C49      -0.5265   -2.3982    4.7052   C.ar      1 RES1   0.0000
   106 C50      -1.8590   -2.1953    4.3796   C.ar      1 RES1   0.0000
   107 C51      -2.7739   -1.8954    5.3714   C.ar      1 RES1   0.0000
   108 C52      -2.3584   -1.8067    6.6915   C.ar      1 RES1   0.0000
   109 C53      -1.0272   -2.0242    7.0156   C.ar      1 RES1   0.0000
   110 C54      -0.0998   -2.3134    6.0266   C.ar      1 RES1   0.0000
   111 H41       2.1874   -3.8560    4.0224   H         1 RES1   0.0000
   112 H42       0.7702   -4.4077    4.9294   H         1 RES1   0.0000
   113 H43       0.9388   -4.8155    3.2273   H         1 RES1   0.0000
   114 H44       2.2762   -3.1450    1.6684   H         1 RES1   0.0000
   115 H45       0.7971   -4.0621    1.3654   H         1 RES1   0.0000
   116 H46       1.6809   -3.5944   -1.4204   H         1 RES1   0.0000
   117 H47       0.2415   -4.1675   -0.5197   H         1 RES1   0.0000
   118 H48      -2.2425   -2.0833   -3.1388   H         1 RES1   0.0000
   119 H49      -1.0697   -1.6031   -4.3659   H         1 RES1   0.0000
   120 H50      -1.9114   -3.1756   -4.5035   H         1 RES1   0.0000
   121 H51       0.3767   -5.5721   -2.0312   H         1 RES1   0.0000
   122 H52       1.5685   -7.2744   -3.2720   H         1 RES1   0.0000
   123 H53       2.0564   -6.9783   -5.6921   H         1 RES1   0.0000
   124 H54       1.3704   -4.8973   -6.7995   H         1 RES1   0.0000
   125 H55       0.2066   -3.1467   -5.5705   H         1 RES1   0.0000
   126 H56      -2.1776   -2.3312    3.3582   H         1 RES1   0.0000
   127 H57      -3.8176   -1.7815    5.1213   H         1 RES1   0.0000
   128 H58      -3.0690   -1.6025    7.4800   H         1 RES1   0.0000
   129 H59      -0.7191   -1.9983    8.0507   H         1 RES1   0.0000
   130 H60       0.9340   -2.4890    6.2954   H         1 RES1   0.0000
@<TRIPOS>BOND
     1     1     5    1
     2     1     7    1
     3     1    10    1
     4     1    48    1
     5     1    50    1
     6     1    53    1
     7     1    91    1
     8     1    93    1
     9     1    96    1
    10     2     3    1
    11     2    25    1
    12     2    26    1
    13     2    27    1
    14     3     4    1
    15     3    19    1
    16     4     5    2
    17     4     6    1
    18     6     7    1
    19     6    28    1
    20     6    29    1
    21     7     8    1
    22     8     9    1
    23     8    30    1
    24     8    31    1
    25     9    10    2
    26     9    11    1
    27    11    12    1
    28    11    13    1
    29    12    32    1
    30    12    33    1
    31    12    34    1
    32    13    14    1
    33    13    18    2
    34    14    15    2
    35    14    35    1
    36    15    16    1
    37    15    36    1
    38    16    17    2
    39    16    37    1
    40    17    18    1
    41    17    38    1
    42    18    39    1
    43    19    20    1
    44    19    24    2
    45    20    21    2
    46    20    40    1
    47    21    22    1
    48    21    41    1
    49    22    23    2
    50    22    42    1
    51    23    24    1
    52    23    43    1
    53    24    44    1
    54    45    46    1
    55    45    68    1
    56    45    69    1
    57    45    70    1
    58    46    47    1
    59    46    62    1
    60    47    48    2
    61    47    49    1
    62    49    50    1
    63    49    71    1
    64    49    72    1
    65    50    51    1
    66    51    52    1
    67    51    73    1
    68    51    74    1
    69    52    53    2
    70    52    54    1
    71    54    55    1
    72    54    56    1
    73    55    75    1
    74    55    76    1
    75    55    77    1
    76    56    57    1
    77    56    61    2
    78    57    58    2
    79    57    78    1
    80    58    59    1
    81    58    79    1
    82    59    60    2
    83    59    80    1
    84    60    61    1
    85    60    81    1
    86    61    82    1
    87    62    63    1
    88    62    67    2
    89    63    64    2
    90    63    83    1
    91    64    65    1
    92    64    84    1
    93    65    66    2
    94    65    85    1
    95    66    67    1
    96    66    86    1
    97    67    87    1
    98    88    89    1
    99    88   111    1
   100    88   112    1
   101    88   113    1
   102    89    90    1
   103    89   105    1
   104    90    91    2
   105    90    92    1
   106    92    93    1
   107    92   114    1
   108    92   115    1
   109    93    94    1
   110    94    95    1
   111    94   116    1
   112    94   117    1
   113    95    96    2
   114    95    97    1
   115    97    98    1
   116    97    99    1
   117    98   118    1
   118    98   119    1
   119    98   120    1
   120    99   100    1
   121    99   104    2
   122   100   101    2
   123   100   121    1
   124   101   102    1
   125   101   122    1
   126   102   103    2
   127   102   123    1
   128   103   104    1
   129   103   124    1
   130   104   125    1
   131   105   106    1
   132   105   110    2
   133   106   107    2
   134   106   126    1
   135   107   108    1
   136   107   127    1
   137   108   109    2
   138   108   128    1
   139   109   110    1
   140   109   129    1
   141   110   130    1
@<TRIPOS>SUBSTRUCTURE
     1 RES1      130 GROUP             0 ****  ****    0  
