@<TRIPOS>MOLECULE
am_c3_9H2O_c0_0_nunpairedes_0_charge_3 Charge: 3 Unpaired_Electrons: 3 XTB_Unpaired_Electrons: 0 XTB_Charge: 3
   361   369     1     0     0
SMALL
NoCharges
****
Generated from Architector

@<TRIPOS>ATOM
     1 Nd1      -0.2869   -0.2270   -0.3415   Nd        1 RES1   0.0000
     2 C1       -3.2963   -0.7971    7.4172   C.3       1 RES1   0.0000
     3 C2       -2.2139   -1.8663    7.4802   C.3       1 RES1   0.0000
     4 C3       -1.8416   -2.4370    6.1034   C.3       1 RES1   0.0000
     5 C4       -2.3177   -3.8716    5.8671   C.3       1 RES1   0.0000
     6 C5       -3.8365   -4.0710    5.8596   C.3       1 RES1   0.0000
     7 C6       -4.5592   -3.8958    4.5213   C.3       1 RES1   0.0000
     8 C7       -4.5209   -2.4996    3.8754   C.3       1 RES1   0.0000
     9 C8       -3.4503   -2.4219    2.7971   C.3       1 RES1   0.0000
    10 P1       -3.3017   -0.9108    1.7782   P.3       1 RES1   0.0000
    11 O1       -2.2414   -1.1782    0.7525   O.2       1 RES1   0.0000
    12 C9       -5.0124   -0.4718    1.2412   C.3       1 RES1   0.0000
    13 C10      -5.2188    0.7336    0.3244   C.3       1 RES1   0.0000
    14 C11      -6.6804    0.8519   -0.1334   C.3       1 RES1   0.0000
    15 C12      -6.9866    2.2324   -0.7268   C.3       1 RES1   0.0000
    16 C13      -8.4612    2.4041   -1.1198   C.3       1 RES1   0.0000
    17 C14      -9.3712    2.9653   -0.0220   C.3       1 RES1   0.0000
    18 C15      -9.6083    2.0551    1.1827   C.3       1 RES1   0.0000
    19 C16     -10.7945    2.5471    1.9991   C.3       1 RES1   0.0000
    20 C17      -2.8288    0.3795    3.0120   C.3       1 RES1   0.0000
    21 C18      -3.2356    1.7437    2.6029   C.ar      1 RES1   0.0000
    22 C19      -4.1681    2.5128    3.2763   C.ar      1 RES1   0.0000
    23 C20      -4.5543    3.7466    2.7724   C.ar      1 RES1   0.0000
    24 C21      -3.9974    4.1633    1.5724   C.ar      1 RES1   0.0000
    25 C22      -3.0451    3.3879    0.9236   C.ar      1 RES1   0.0000
    26 C23      -2.2779    3.9068   -0.2410   C.3       1 RES1   0.0000
    27 P2       -1.7669    2.9839   -1.8038   P.3       1 RES1   0.0000
    28 O2       -0.9277    1.7621   -1.6154   O.2       1 RES1   0.0000
    29 C24      -0.7481    4.3220   -2.5889   C.3       1 RES1   0.0000
    30 C25       0.0818    5.1732   -1.6170   C.3       1 RES1   0.0000
    31 C26       1.3498    5.7803   -2.2520   C.3       1 RES1   0.0000
    32 C27       1.3730    7.3125   -2.2591   C.3       1 RES1   0.0000
    33 C28       1.5269    7.9694   -0.8829   C.3       1 RES1   0.0000
    34 C29       1.2430    9.4693   -1.0022   C.3       1 RES1   0.0000
    35 C30       1.2229   10.2461    0.3138   C.3       1 RES1   0.0000
    36 C31      -0.0278    9.9838    1.1479   C.3       1 RES1   0.0000
    37 C32      -3.2283    2.7302   -2.9125   C.3       1 RES1   0.0000
    38 C33      -2.8526    2.4541   -4.3841   C.3       1 RES1   0.0000
    39 C34      -2.8539    0.9585   -4.6947   C.3       1 RES1   0.0000
    40 C35      -2.4046    0.6177   -6.1189   C.3       1 RES1   0.0000
    41 C36      -2.8627   -0.7921   -6.4754   C.3       1 RES1   0.0000
    42 C37      -2.3953   -1.3144   -7.8304   C.3       1 RES1   0.0000
    43 C38      -2.9021   -2.7486   -8.0503   C.3       1 RES1   0.0000
    44 C39      -2.0230   -3.8165   -7.4016   C.3       1 RES1   0.0000
    45 N1       -2.6582    2.2090    1.4647   N.ar      1 RES1   0.0000
    46 O3       -1.7796    1.4754    0.8673   O.co2     1 RES1   0.0000
    47 H1       -3.4238   -0.3269    8.3872   H         1 RES1   0.0000
    48 H2       -3.0389   -0.0195    6.6996   H         1 RES1   0.0000
    49 H3       -4.2515   -1.2221    7.1267   H         1 RES1   0.0000
    50 H4       -1.3302   -1.4321    7.9485   H         1 RES1   0.0000
    51 H5       -2.5471   -2.6712    8.1319   H         1 RES1   0.0000
    52 H6       -2.2223   -1.7809    5.3207   H         1 RES1   0.0000
    53 H7       -0.7557   -2.4446    6.0083   H         1 RES1   0.0000
    54 H8       -1.8896   -4.2356    4.9280   H         1 RES1   0.0000
    55 H9       -1.8963   -4.4862    6.6660   H         1 RES1   0.0000
    56 H10      -4.0293   -5.0973    6.1781   H         1 RES1   0.0000
    57 H11      -4.2933   -3.4237    6.6068   H         1 RES1   0.0000
    58 H12      -4.1765   -4.6333    3.8146   H         1 RES1   0.0000
    59 H13      -5.5983   -4.1632    4.7068   H         1 RES1   0.0000
    60 H14      -5.4942   -2.3037    3.4244   H         1 RES1   0.0000
    61 H15      -4.3469   -1.7501    4.6456   H         1 RES1   0.0000
    62 H16      -2.4527   -2.5594    3.2186   H         1 RES1   0.0000
    63 H17      -3.5994   -3.2312    2.0814   H         1 RES1   0.0000
    64 H18      -5.4488   -1.3638    0.7882   H         1 RES1   0.0000
    65 H19      -5.5601   -0.2857    2.1683   H         1 RES1   0.0000
    66 H20      -4.9800    1.6465    0.8700   H         1 RES1   0.0000
    67 H21      -4.5496    0.6704   -0.5367   H         1 RES1   0.0000
    68 H22      -6.9027    0.0880   -0.8840   H         1 RES1   0.0000
    69 H23      -7.3307    0.6912    0.7283   H         1 RES1   0.0000
    70 H24      -6.7307    3.0231   -0.0152   H         1 RES1   0.0000
    71 H25      -6.3621    2.3774   -1.6142   H         1 RES1   0.0000
    72 H26      -8.5088    3.1042   -1.9563   H         1 RES1   0.0000
    73 H27      -8.8556    1.4490   -1.4708   H         1 RES1   0.0000
    74 H28      -8.9711    3.9236    0.3192   H         1 RES1   0.0000
    75 H29     -10.3420    3.1782   -0.4744   H         1 RES1   0.0000
    76 H30      -9.8127    1.0388    0.8417   H         1 RES1   0.0000
    77 H31      -8.7208    2.0325    1.8193   H         1 RES1   0.0000
    78 H32     -11.6951    2.5445    1.3945   H         1 RES1   0.0000
    79 H33     -10.9717    1.9104    2.8595   H         1 RES1   0.0000
    80 H34     -10.6234    3.5607    2.3477   H         1 RES1   0.0000
    81 H35      -3.2784    0.1194    3.9679   H         1 RES1   0.0000
    82 H36      -1.7384    0.2844    3.0480   H         1 RES1   0.0000
    83 H37      -4.6241    2.1215    4.1733   H         1 RES1   0.0000
    84 H38      -5.2756    4.3662    3.2868   H         1 RES1   0.0000
    85 H39      -4.3103    5.0880    1.1122   H         1 RES1   0.0000
    86 H40      -2.7470    4.8241   -0.5968   H         1 RES1   0.0000
    87 H41      -1.2987    4.1812    0.1701   H         1 RES1   0.0000
    88 H42      -0.0837    3.7848   -3.2698   H         1 RES1   0.0000
    89 H43      -1.3855    4.9682   -3.1921   H         1 RES1   0.0000
    90 H44      -0.5354    5.9933   -1.2485   H         1 RES1   0.0000
    91 H45       0.3803    4.5678   -0.7565   H         1 RES1   0.0000
    92 H46       2.2314    5.4365   -1.7090   H         1 RES1   0.0000
    93 H47       1.4420    5.4515   -3.2896   H         1 RES1   0.0000
    94 H48       2.2023    7.6391   -2.8932   H         1 RES1   0.0000
    95 H49       0.4543    7.6768   -2.7233   H         1 RES1   0.0000
    96 H50       0.8413    7.5069   -0.1676   H         1 RES1   0.0000
    97 H51       2.5467    7.8144   -0.5215   H         1 RES1   0.0000
    98 H52       1.9962    9.9071   -1.6608   H         1 RES1   0.0000
    99 H53       0.2710    9.5993   -1.4831   H         1 RES1   0.0000
   100 H54       2.1132   10.0193    0.9006   H         1 RES1   0.0000
   101 H55       1.2532   11.3074    0.0674   H         1 RES1   0.0000
   102 H56       0.0100    9.0123    1.6369   H         1 RES1   0.0000
   103 H57      -0.1371   10.7391    1.9226   H         1 RES1   0.0000
   104 H58      -0.9117   10.0202    0.5135   H         1 RES1   0.0000
   105 H59      -3.8259    1.8943   -2.5397   H         1 RES1   0.0000
   106 H60      -3.8459    3.6272   -2.8466   H         1 RES1   0.0000
   107 H61      -3.5978    2.9380   -5.0213   H         1 RES1   0.0000
   108 H62      -1.8822    2.8922   -4.6265   H         1 RES1   0.0000
   109 H63      -2.2170    0.4374   -3.9721   H         1 RES1   0.0000
   110 H64      -3.8785    0.6026   -4.5650   H         1 RES1   0.0000
   111 H65      -2.8176    1.3285   -6.8362   H         1 RES1   0.0000
   112 H66      -1.3186    0.6742   -6.1924   H         1 RES1   0.0000
   113 H67      -2.4954   -1.4688   -5.7029   H         1 RES1   0.0000
   114 H68      -3.9543   -0.8237   -6.4589   H         1 RES1   0.0000
   115 H69      -2.7807   -0.6688   -8.6238   H         1 RES1   0.0000
   116 H70      -1.3023   -1.2934   -7.8793   H         1 RES1   0.0000
   117 H71      -3.9196   -2.8381   -7.6568   H         1 RES1   0.0000
   118 H72      -2.9561   -2.9487   -9.1197   H         1 RES1   0.0000
   119 H73      -1.9969   -3.7037   -6.3171   H         1 RES1   0.0000
   120 H74      -2.4211   -4.8065   -7.6206   H         1 RES1   0.0000
   121 H75      -1.0043   -3.7549   -7.7855   H         1 RES1   0.0000
   122 C40      -1.5716    7.3260   -5.4948   C.3       1 RES1   0.0000
   123 C41      -0.9354    6.6935   -6.7298   C.3       1 RES1   0.0000
   124 C42      -0.9418    5.1627   -6.7010   C.3       1 RES1   0.0000
   125 C43       0.0168    4.5572   -7.7418   C.3       1 RES1   0.0000
   126 C44       1.3577    4.1302   -7.1315   C.3       1 RES1   0.0000
   127 C45       1.2096    2.7848   -6.4050   C.3       1 RES1   0.0000
   128 C46       2.0430    2.6647   -5.1212   C.3       1 RES1   0.0000
   129 C47       1.5212    1.4834   -4.3223   C.3       1 RES1   0.0000
   130 P3        2.1360    0.9078   -2.6897   P.3       1 RES1   0.0000
   131 O4        1.0937   -0.0770   -2.2820   O.2       1 RES1   0.0000
   132 C48       3.8581    0.2884   -2.9977   C.3       1 RES1   0.0000
   133 C49       4.9321    0.4413   -1.9264   C.3       1 RES1   0.0000
   134 C50       6.1772   -0.3987   -2.2304   C.3       1 RES1   0.0000
   135 C51       7.2507   -0.2685   -1.1295   C.3       1 RES1   0.0000
   136 C52       8.6667   -0.0247   -1.6713   C.3       1 RES1   0.0000
   137 C53       9.0043    1.4297   -2.0264   C.3       1 RES1   0.0000
   138 C54       8.2890    2.0006   -3.2512   C.3       1 RES1   0.0000
   139 C55       8.8448    3.3604   -3.6564   C.3       1 RES1   0.0000
   140 C56       2.2109    2.3557   -1.4778   C.3       1 RES1   0.0000
   141 C57       2.8972    2.2659   -0.1600   C.ar      1 RES1   0.0000
   142 C58       4.1395    2.8511    0.0510   C.ar      1 RES1   0.0000
   143 C59       4.7096    2.8945    1.3108   C.ar      1 RES1   0.0000
   144 C60       3.9751    2.3861    2.3701   C.ar      1 RES1   0.0000
   145 C61       2.7299    1.8207    2.1622   C.ar      1 RES1   0.0000
   146 C62       1.8215    1.5658    3.3209   C.3       1 RES1   0.0000
   147 P4        1.0097   -0.0249    3.9291   P.3       1 RES1   0.0000
   148 O5        0.0989   -0.5443    2.8579   O.2       1 RES1   0.0000
   149 C63       0.1700    0.6572    5.4389   C.3       1 RES1   0.0000
   150 C64      -0.5831    1.9853    5.3076   C.3       1 RES1   0.0000
   151 C65      -1.1098    2.5022    6.6582   C.3       1 RES1   0.0000
   152 C66      -0.0296    3.1259    7.5505   C.3       1 RES1   0.0000
   153 C67       0.5087    4.4527    7.0149   C.3       1 RES1   0.0000
   154 C68       1.5840    5.0446    7.9247   C.3       1 RES1   0.0000
   155 C69       2.0617    6.4187    7.4552   C.3       1 RES1   0.0000
   156 C70       2.8453    6.3666    6.1472   C.3       1 RES1   0.0000
   157 C71       2.2211   -1.2897    4.6177   C.3       1 RES1   0.0000
   158 C72       1.7004   -2.7015    4.9444   C.3       1 RES1   0.0000
   159 C73       2.8403   -3.7484    4.9179   C.3       1 RES1   0.0000
   160 C74       2.4545   -5.2499    4.8047   C.3       1 RES1   0.0000
   161 C75       2.8310   -5.8914    3.4496   C.3       1 RES1   0.0000
   162 C76       2.0755   -7.1745    3.0856   C.3       1 RES1   0.0000
   163 C77       2.2252   -7.5612    1.6070   C.3       1 RES1   0.0000
   164 C78       1.2099   -6.9311    0.6566   C.3       1 RES1   0.0000
   165 N2        2.2186    1.7442    0.9015   N.ar      1 RES1   0.0000
   166 O6        1.0239    1.2598    0.7509   O.co2     1 RES1   0.0000
   167 H76      -1.7068    8.3945   -5.6464   H         1 RES1   0.0000
   168 H77      -2.5521    6.8984   -5.2942   H         1 RES1   0.0000
   169 H78      -0.9401    7.1800   -4.6188   H         1 RES1   0.0000
   170 H79      -1.4798    7.0222   -7.6146   H         1 RES1   0.0000
   171 H80       0.0887    7.0584   -6.8250   H         1 RES1   0.0000
   172 H81      -0.6682    4.8210   -5.6977   H         1 RES1   0.0000
   173 H82      -1.9603    4.8153   -6.8903   H         1 RES1   0.0000
   174 H83      -0.4498    3.6878   -8.2124   H         1 RES1   0.0000
   175 H84       0.2026    5.2866   -8.5311   H         1 RES1   0.0000
   176 H85       2.1163    4.0641   -7.9126   H         1 RES1   0.0000
   177 H86       1.7021    4.8891   -6.4239   H         1 RES1   0.0000
   178 H87       0.1556    2.6790   -6.1299   H         1 RES1   0.0000
   179 H88       1.4417    1.9608   -7.0849   H         1 RES1   0.0000
   180 H89       3.0972    2.5433   -5.3645   H         1 RES1   0.0000
   181 H90       1.9323    3.5933   -4.5607   H         1 RES1   0.0000
   182 H91       0.4469    1.5982   -4.1602   H         1 RES1   0.0000
   183 H92       1.6340    0.5711   -4.9191   H         1 RES1   0.0000
   184 H93       3.7525   -0.7722   -3.2294   H         1 RES1   0.0000
   185 H94       4.1892    0.7956   -3.9047   H         1 RES1   0.0000
   186 H95       5.2471    1.4808   -1.8418   H         1 RES1   0.0000
   187 H96       4.5305    0.1309   -0.9631   H         1 RES1   0.0000
   188 H97       5.8922   -1.4479   -2.3471   H         1 RES1   0.0000
   189 H98       6.6068   -0.0800   -3.1790   H         1 RES1   0.0000
   190 H99       6.9968    0.5471   -0.4452   H         1 RES1   0.0000
   191 H100      7.2719   -1.1909   -0.5401   H         1 RES1   0.0000
   192 H101      9.3703   -0.3333   -0.8942   H         1 RES1   0.0000
   193 H102      8.8312   -0.6700   -2.5373   H         1 RES1   0.0000
   194 H103      8.8081    2.0650   -1.1569   H         1 RES1   0.0000
   195 H104     10.0784    1.4723   -2.2180   H         1 RES1   0.0000
   196 H105      8.4084    1.3159   -4.0921   H         1 RES1   0.0000
   197 H106      7.2217    2.1082   -3.0506   H         1 RES1   0.0000
   198 H107      9.8954    3.2855   -3.9188   H         1 RES1   0.0000
   199 H108      8.3096    3.7432   -4.5216   H         1 RES1   0.0000
   200 H109      8.7479    4.0785   -2.8463   H         1 RES1   0.0000
   201 H110      2.6680    3.1727   -2.0387   H         1 RES1   0.0000
   202 H111      1.1436    2.5457   -1.3027   H         1 RES1   0.0000
   203 H112      4.6430    3.3144   -0.7823   H         1 RES1   0.0000
   204 H113      5.6718    3.3486    1.4829   H         1 RES1   0.0000
   205 H114      4.3536    2.4675    3.3756   H         1 RES1   0.0000
   206 H115      2.2660    2.0359    4.1993   H         1 RES1   0.0000
   207 H116      0.8914    2.0902    3.0595   H         1 RES1   0.0000
   208 H117     -0.5305   -0.1033    5.7846   H         1 RES1   0.0000
   209 H118      0.9393    0.7586    6.2065   H         1 RES1   0.0000
   210 H119      0.0594    2.7602    4.8923   H         1 RES1   0.0000
   211 H120     -1.4254    1.8617    4.6257   H         1 RES1   0.0000
   212 H121     -1.8765    3.2575    6.4566   H         1 RES1   0.0000
   213 H122     -1.5820    1.6830    7.2037   H         1 RES1   0.0000
   214 H123     -0.4607    3.3033    8.5377   H         1 RES1   0.0000
   215 H124      0.7962    2.4227    7.6880   H         1 RES1   0.0000
   216 H125      0.9323    4.3048    6.0183   H         1 RES1   0.0000
   217 H126     -0.3159    5.1648    6.9290   H         1 RES1   0.0000
   218 H127      1.1851    5.1335    8.9365   H         1 RES1   0.0000
   219 H128      2.4357    4.3608    7.9689   H         1 RES1   0.0000
   220 H129      1.2022    7.0809    7.3382   H         1 RES1   0.0000
   221 H130      2.6992    6.8452    8.2298   H         1 RES1   0.0000
   222 H131      2.2092    6.0752    5.3120   H         1 RES1   0.0000
   223 H132      3.2619    7.3453    5.9234   H         1 RES1   0.0000
   224 H133      3.6662    5.6550    6.2278   H         1 RES1   0.0000
   225 H134      3.0195   -1.3960    3.8847   H         1 RES1   0.0000
   226 H135      2.6597   -0.8479    5.5129   H         1 RES1   0.0000
   227 H136      1.2605   -2.7113    5.9417   H         1 RES1   0.0000
   228 H137      0.9233   -2.9682    4.2327   H         1 RES1   0.0000
   229 H138      3.5260   -3.5297    4.0969   H         1 RES1   0.0000
   230 H139      3.4025   -3.6203    5.8398   H         1 RES1   0.0000
   231 H140      2.9825   -5.8026    5.5834   H         1 RES1   0.0000
   232 H141      1.3943   -5.3871    5.0286   H         1 RES1   0.0000
   233 H142      2.6726   -5.1841    2.6390   H         1 RES1   0.0000
   234 H143      3.8990   -6.1126    3.4634   H         1 RES1   0.0000
   235 H144      2.4557   -7.9972    3.6864   H         1 RES1   0.0000
   236 H145      1.0141   -7.0692    3.3068   H         1 RES1   0.0000
   237 H146      3.2256   -7.3111    1.2606   H         1 RES1   0.0000
   238 H147      2.1232   -8.6417    1.5184   H         1 RES1   0.0000
   239 H148      0.1949   -7.1235    0.9998   H         1 RES1   0.0000
   240 H149      1.3153   -7.3661   -0.3372   H         1 RES1   0.0000
   241 H150      1.3416   -5.8517    0.5730   H         1 RES1   0.0000
   242 C79       3.4133    0.2655    8.3062   C.3       1 RES1   0.0000
   243 C80       4.6761   -0.1056    7.5283   C.3       1 RES1   0.0000
   244 C81       4.9550    0.7917    6.3178   C.3       1 RES1   0.0000
   245 C82       6.2339    0.3995    5.5714   C.3       1 RES1   0.0000
   246 C83       6.0947   -0.8179    4.6436   C.3       1 RES1   0.0000
   247 C84       5.6595   -0.4109    3.2327   C.3       1 RES1   0.0000
   248 C85       5.1566   -1.5745    2.3549   C.3       1 RES1   0.0000
   249 C86       3.9472   -1.1223    1.5459   C.3       1 RES1   0.0000
   250 P5        2.8113   -2.1126    0.4650   P.3       1 RES1   0.0000
   251 O7        2.1578   -1.0433   -0.3362   O.2       1 RES1   0.0000
   252 C87       3.9092   -3.3434   -0.3567   C.3       1 RES1   0.0000
   253 C88       3.4181   -4.3474   -1.3979   C.3       1 RES1   0.0000
   254 C89       4.5353   -5.3743   -1.6601   C.3       1 RES1   0.0000
   255 C90       4.1346   -6.5404   -2.5667   C.3       1 RES1   0.0000
   256 C91       5.1764   -7.6734   -2.6196   C.3       1 RES1   0.0000
   257 C92       4.9176   -8.8230   -1.6341   C.3       1 RES1   0.0000
   258 C93       5.4768   -8.6350   -0.2229   C.3       1 RES1   0.0000
   259 C94       5.0344   -9.7667    0.6994   C.3       1 RES1   0.0000
   260 C95       1.6298   -2.8331    1.7051   C.3       1 RES1   0.0000
   261 C96       0.4082   -3.6561    1.4725   C.ar      1 RES1   0.0000
   262 C97      -0.0262   -4.5549    2.4348   C.ar      1 RES1   0.0000
   263 C98      -1.2059   -5.2572    2.2787   C.ar      1 RES1   0.0000
   264 C99      -1.9547   -5.0287    1.1404   C.ar      1 RES1   0.0000
   265 C100     -1.5163   -4.1138    0.1977   C.ar      1 RES1   0.0000
   266 C101     -2.3105   -3.8479   -1.0285   C.3       1 RES1   0.0000
   267 P6       -1.8327   -2.5655   -2.3057   P.3       1 RES1   0.0000
   268 O8       -1.6521   -1.1358   -1.9073   O.2       1 RES1   0.0000
   269 C102     -3.4194   -2.6815   -3.2462   C.3       1 RES1   0.0000
   270 C103     -4.3765   -1.6639   -2.6286   C.3       1 RES1   0.0000
   271 C104     -5.6320   -1.3798   -3.4563   C.3       1 RES1   0.0000
   272 C105     -6.7075   -2.4676   -3.3837   C.3       1 RES1   0.0000
   273 C106     -7.5198   -2.4251   -2.0856   C.3       1 RES1   0.0000
   274 C107     -8.5008   -3.5944   -1.9914   C.3       1 RES1   0.0000
   275 C108     -9.2453   -3.6538   -0.6581   C.3       1 RES1   0.0000
   276 C109     -8.3512   -4.0724    0.5017   C.3       1 RES1   0.0000
   277 C110     -0.4788   -3.2966   -3.3214   C.3       1 RES1   0.0000
   278 C111      0.0529   -2.3190   -4.3700   C.3       1 RES1   0.0000
   279 C112      1.5429   -2.5374   -4.6760   C.3       1 RES1   0.0000
   280 C113      1.8986   -2.1760   -6.1253   C.3       1 RES1   0.0000
   281 C114      3.4194   -2.0849   -6.3792   C.3       1 RES1   0.0000
   282 C115      3.8499   -0.6954   -6.8561   C.3       1 RES1   0.0000
   283 C116      5.3630   -0.4879   -6.8185   C.3       1 RES1   0.0000
   284 C117      5.7354    0.9729   -7.0372   C.3       1 RES1   0.0000
   285 N3       -0.3635   -3.4408    0.3872   N.ar      1 RES1   0.0000
   286 O9        0.0376   -2.6163   -0.5282   O.co2     1 RES1   0.0000
   287 H151      3.3657   -0.3011    9.2353   H         1 RES1   0.0000
   288 H152      3.4140    1.3239    8.5613   H         1 RES1   0.0000
   289 H153      2.5078    0.0396    7.7401   H         1 RES1   0.0000
   290 H154      5.5231   -0.0383    8.2118   H         1 RES1   0.0000
   291 H155      4.5969   -1.1487    7.2153   H         1 RES1   0.0000
   292 H156      4.1038    0.7783    5.6306   H         1 RES1   0.0000
   293 H157      5.0642    1.8168    6.6778   H         1 RES1   0.0000
   294 H158      6.5685    1.2546    4.9831   H         1 RES1   0.0000
   295 H159      7.0003    0.2063    6.3196   H         1 RES1   0.0000
   296 H160      7.0508   -1.3352    4.5948   H         1 RES1   0.0000
   297 H161      5.3666   -1.5216    5.0523   H         1 RES1   0.0000
   298 H162      4.8544    0.3152    3.3472   H         1 RES1   0.0000
   299 H163      6.4818    0.0991    2.7297   H         1 RES1   0.0000
   300 H164      5.9444   -1.8991    1.6800   H         1 RES1   0.0000
   301 H165      4.9252   -2.4217    2.9944   H         1 RES1   0.0000
   302 H166      3.2182   -0.6194    2.1875   H         1 RES1   0.0000
   303 H167      4.2851   -0.3567    0.8450   H         1 RES1   0.0000
   304 H168      4.7079   -2.7329   -0.7867   H         1 RES1   0.0000
   305 H169      4.3537   -3.8960    0.4739   H         1 RES1   0.0000
   306 H170      2.5270   -4.8615   -1.0338   H         1 RES1   0.0000
   307 H171      3.1531   -3.8302   -2.3211   H         1 RES1   0.0000
   308 H172      5.3884   -4.8663   -2.1134   H         1 RES1   0.0000
   309 H173      4.8750   -5.7704   -0.7024   H         1 RES1   0.0000
   310 H174      3.1892   -6.9659   -2.2244   H         1 RES1   0.0000
   311 H175      3.9845   -6.1566   -3.5780   H         1 RES1   0.0000
   312 H176      5.1353   -8.1065   -3.6189   H         1 RES1   0.0000
   313 H177      6.1842   -7.2774   -2.4803   H         1 RES1   0.0000
   314 H178      3.8377   -8.9847   -1.5700   H         1 RES1   0.0000
   315 H179      5.3536   -9.7395   -2.0402   H         1 RES1   0.0000
   316 H180      6.5671   -8.6122   -0.2627   H         1 RES1   0.0000
   317 H181      5.1418   -7.6828    0.1964   H         1 RES1   0.0000
   318 H182      5.4344  -10.7170    0.3567   H         1 RES1   0.0000
   319 H183      5.3839   -9.5961    1.7158   H         1 RES1   0.0000
   320 H184      3.9486   -9.8380    0.7102   H         1 RES1   0.0000
   321 H185      2.2496   -3.3421    2.4344   H         1 RES1   0.0000
   322 H186      1.2458   -1.9107    2.1562   H         1 RES1   0.0000
   323 H187      0.5734   -4.7490    3.3021   H         1 RES1   0.0000
   324 H188     -1.5290   -5.9756    3.0163   H         1 RES1   0.0000
   325 H189     -2.8653   -5.5839    0.9806   H         1 RES1   0.0000
   326 H190     -2.3594   -4.7810   -1.5992   H         1 RES1   0.0000
   327 H191     -3.3371   -3.6222   -0.7214   H         1 RES1   0.0000
   328 H192     -3.2511   -2.4331   -4.2928   H         1 RES1   0.0000
   329 H193     -3.8180   -3.6935   -3.2057   H         1 RES1   0.0000
   330 H194     -4.6587   -1.9708   -1.6164   H         1 RES1   0.0000
   331 H195     -3.8180   -0.7309   -2.5401   H         1 RES1   0.0000
   332 H196     -6.0708   -0.4425   -3.1020   H         1 RES1   0.0000
   333 H197     -5.3448   -1.2371   -4.5011   H         1 RES1   0.0000
   334 H198     -7.3944   -2.3346   -4.2237   H         1 RES1   0.0000
   335 H199     -6.2382   -3.4482   -3.4914   H         1 RES1   0.0000
   336 H200     -6.8405   -2.4353   -1.2266   H         1 RES1   0.0000
   337 H201     -8.0859   -1.4895   -2.0505   H         1 RES1   0.0000
   338 H202     -9.2223   -3.5044   -2.8077   H         1 RES1   0.0000
   339 H203     -7.9534   -4.5299   -2.1295   H         1 RES1   0.0000
   340 H204     -9.6956   -2.6835   -0.4472   H         1 RES1   0.0000
   341 H205    -10.0505   -4.3795   -0.7544   H         1 RES1   0.0000
   342 H206     -7.6148   -3.3067    0.7340   H         1 RES1   0.0000
   343 H207     -8.9391   -4.2506    1.3962   H         1 RES1   0.0000
   344 H208     -7.8293   -4.9928    0.2552   H         1 RES1   0.0000
   345 H209      0.3349   -3.5883   -2.6540   H         1 RES1   0.0000
   346 H210     -0.8865   -4.1947   -3.7884   H         1 RES1   0.0000
   347 H211     -0.5125   -2.4095   -5.2960   H         1 RES1   0.0000
   348 H212     -0.0666   -1.3037   -3.9877   H         1 RES1   0.0000
   349 H213      2.1158   -1.9118   -3.9860   H         1 RES1   0.0000
   350 H214      1.8225   -3.5794   -4.4972   H         1 RES1   0.0000
   351 H215      1.4598   -2.9267   -6.7860   H         1 RES1   0.0000
   352 H216      1.4339   -1.2184   -6.3797   H         1 RES1   0.0000
   353 H217      3.9593   -2.3313   -5.4603   H         1 RES1   0.0000
   354 H218      3.7122   -2.8227   -7.1279   H         1 RES1   0.0000
   355 H219      3.4987   -0.5479   -7.8791   H         1 RES1   0.0000
   356 H220      3.3703    0.0579   -6.2248   H         1 RES1   0.0000
   357 H221      5.7559   -0.8195   -5.8533   H         1 RES1   0.0000
   358 H222      5.8303   -1.0946   -7.5953   H         1 RES1   0.0000
   359 H223      5.4009    1.6016   -6.2139   H         1 RES1   0.0000
   360 H224      6.8111    1.0843   -7.1121   H         1 RES1   0.0000
   361 H225      5.2910    1.3502   -7.9530   H         1 RES1   0.0000
@<TRIPOS>BOND
     1     1    11    1
     2     1    28    1
     3     1    46    1
     4     1   131    1
     5     1   148    1
     6     1   166    1
     7     1   251    1
     8     1   268    1
     9     1   286    1
    10     2     3    1
    11     2    47    1
    12     2    48    1
    13     2    49    1
    14     3     4    1
    15     3    50    1
    16     3    51    1
    17     4     5    1
    18     4    52    1
    19     4    53    1
    20     5     6    1
    21     5    54    1
    22     5    55    1
    23     6     7    1
    24     6    56    1
    25     6    57    1
    26     7     8    1
    27     7    58    1
    28     7    59    1
    29     8     9    1
    30     8    60    1
    31     8    61    1
    32     9    10    1
    33     9    62    1
    34     9    63    1
    35    10    11    2
    36    10    12    1
    37    10    20    1
    38    12    13    1
    39    12    64    1
    40    12    65    1
    41    13    14    1
    42    13    66    1
    43    13    67    1
    44    14    15    1
    45    14    68    1
    46    14    69    1
    47    15    16    1
    48    15    70    1
    49    15    71    1
    50    16    17    1
    51    16    72    1
    52    16    73    1
    53    17    18    1
    54    17    74    1
    55    17    75    1
    56    18    19    1
    57    18    76    1
    58    18    77    1
    59    19    78    1
    60    19    79    1
    61    19    80    1
    62    20    21    1
    63    20    81    1
    64    20    82    1
    65    21    22    1
    66    21    45    2
    67    22    23    2
    68    22    83    1
    69    23    24    1
    70    23    84    1
    71    24    25    2
    72    24    85    1
    73    25    26    1
    74    25    45    1
    75    26    27    1
    76    26    86    1
    77    26    87    1
    78    27    28    2
    79    27    29    1
    80    27    37    1
    81    29    30    1
    82    29    88    1
    83    29    89    1
    84    30    31    1
    85    30    90    1
    86    30    91    1
    87    31    32    1
    88    31    92    1
    89    31    93    1
    90    32    33    1
    91    32    94    1
    92    32    95    1
    93    33    34    1
    94    33    96    1
    95    33    97    1
    96    34    35    1
    97    34    98    1
    98    34    99    1
    99    35    36    1
   100    35   100    1
   101    35   101    1
   102    36   102    1
   103    36   103    1
   104    36   104    1
   105    37    38    1
   106    37   105    1
   107    37   106    1
   108    38    39    1
   109    38   107    1
   110    38   108    1
   111    39    40    1
   112    39   109    1
   113    39   110    1
   114    40    41    1
   115    40   111    1
   116    40   112    1
   117    41    42    1
   118    41   113    1
   119    41   114    1
   120    42    43    1
   121    42   115    1
   122    42   116    1
   123    43    44    1
   124    43   117    1
   125    43   118    1
   126    44   119    1
   127    44   120    1
   128    44   121    1
   129    45    46    1
   130   122   123    1
   131   122   167    1
   132   122   168    1
   133   122   169    1
   134   123   124    1
   135   123   170    1
   136   123   171    1
   137   124   125    1
   138   124   172    1
   139   124   173    1
   140   125   126    1
   141   125   174    1
   142   125   175    1
   143   126   127    1
   144   126   176    1
   145   126   177    1
   146   127   128    1
   147   127   178    1
   148   127   179    1
   149   128   129    1
   150   128   180    1
   151   128   181    1
   152   129   130    1
   153   129   182    1
   154   129   183    1
   155   130   131    2
   156   130   132    1
   157   130   140    1
   158   132   133    1
   159   132   184    1
   160   132   185    1
   161   133   134    1
   162   133   186    1
   163   133   187    1
   164   134   135    1
   165   134   188    1
   166   134   189    1
   167   135   136    1
   168   135   190    1
   169   135   191    1
   170   136   137    1
   171   136   192    1
   172   136   193    1
   173   137   138    1
   174   137   194    1
   175   137   195    1
   176   138   139    1
   177   138   196    1
   178   138   197    1
   179   139   198    1
   180   139   199    1
   181   139   200    1
   182   140   141    1
   183   140   201    1
   184   140   202    1
   185   141   142    1
   186   141   165    2
   187   142   143    2
   188   142   203    1
   189   143   144    1
   190   143   204    1
   191   144   145    2
   192   144   205    1
   193   145   146    1
   194   145   165    1
   195   146   147    1
   196   146   206    1
   197   146   207    1
   198   147   148    2
   199   147   149    1
   200   147   157    1
   201   149   150    1
   202   149   208    1
   203   149   209    1
   204   150   151    1
   205   150   210    1
   206   150   211    1
   207   151   152    1
   208   151   212    1
   209   151   213    1
   210   152   153    1
   211   152   214    1
   212   152   215    1
   213   153   154    1
   214   153   216    1
   215   153   217    1
   216   154   155    1
   217   154   218    1
   218   154   219    1
   219   155   156    1
   220   155   220    1
   221   155   221    1
   222   156   222    1
   223   156   223    1
   224   156   224    1
   225   157   158    1
   226   157   225    1
   227   157   226    1
   228   158   159    1
   229   158   227    1
   230   158   228    1
   231   159   160    1
   232   159   229    1
   233   159   230    1
   234   160   161    1
   235   160   231    1
   236   160   232    1
   237   161   162    1
   238   161   233    1
   239   161   234    1
   240   162   163    1
   241   162   235    1
   242   162   236    1
   243   163   164    1
   244   163   237    1
   245   163   238    1
   246   164   239    1
   247   164   240    1
   248   164   241    1
   249   165   166    1
   250   242   243    1
   251   242   287    1
   252   242   288    1
   253   242   289    1
   254   243   244    1
   255   243   290    1
   256   243   291    1
   257   244   245    1
   258   244   292    1
   259   244   293    1
   260   245   246    1
   261   245   294    1
   262   245   295    1
   263   246   247    1
   264   246   296    1
   265   246   297    1
   266   247   248    1
   267   247   298    1
   268   247   299    1
   269   248   249    1
   270   248   300    1
   271   248   301    1
   272   249   250    1
   273   249   302    1
   274   249   303    1
   275   250   251    2
   276   250   252    1
   277   250   260    1
   278   252   253    1
   279   252   304    1
   280   252   305    1
   281   253   254    1
   282   253   306    1
   283   253   307    1
   284   254   255    1
   285   254   308    1
   286   254   309    1
   287   255   256    1
   288   255   310    1
   289   255   311    1
   290   256   257    1
   291   256   312    1
   292   256   313    1
   293   257   258    1
   294   257   314    1
   295   257   315    1
   296   258   259    1
   297   258   316    1
   298   258   317    1
   299   259   318    1
   300   259   319    1
   301   259   320    1
   302   260   261    1
   303   260   321    1
   304   260   322    1
   305   261   262    1
   306   261   285    2
   307   262   263    2
   308   262   323    1
   309   263   264    1
   310   263   324    1
   311   264   265    2
   312   264   325    1
   313   265   266    1
   314   265   285    1
   315   266   267    1
   316   266   326    1
   317   266   327    1
   318   267   268    2
   319   267   269    1
   320   267   277    1
   321   269   270    1
   322   269   328    1
   323   269   329    1
   324   270   271    1
   325   270   330    1
   326   270   331    1
   327   271   272    1
   328   271   332    1
   329   271   333    1
   330   272   273    1
   331   272   334    1
   332   272   335    1
   333   273   274    1
   334   273   336    1
   335   273   337    1
   336   274   275    1
   337   274   338    1
   338   274   339    1
   339   275   276    1
   340   275   340    1
   341   275   341    1
   342   276   342    1
   343   276   343    1
   344   276   344    1
   345   277   278    1
   346   277   345    1
   347   277   346    1
   348   278   279    1
   349   278   347    1
   350   278   348    1
   351   279   280    1
   352   279   349    1
   353   279   350    1
   354   280   281    1
   355   280   351    1
   356   280   352    1
   357   281   282    1
   358   281   353    1
   359   281   354    1
   360   282   283    1
   361   282   355    1
   362   282   356    1
   363   283   284    1
   364   283   357    1
   365   283   358    1
   366   284   359    1
   367   284   360    1
   368   284   361    1
   369   285   286    1
@<TRIPOS>SUBSTRUCTURE
     1 RES1      361 GROUP             0 ****  ****    0  
