@<TRIPOS>MOLECULE
am_c3_9H2O_c0_0_nunpairedes_0_charge_3 Charge: 3 Unpaired_Electrons: 3 XTB_Unpaired_Electrons: 0 XTB_Charge: 3
   196   201     1     0     0
SMALL
NoCharges
****
Generated from Architector

@<TRIPOS>ATOM
     1 Nd1      -0.1292   -0.0350   -0.0858   Nd        1 RES1   0.0000
     2 C1       -3.1248    3.4780   -6.4129   C.3       1 RES1   0.0000
     3 C2       -1.8815    3.4424   -5.5336   C.3       1 RES1   0.0000
     4 C3       -2.2391    3.7163   -4.0728   C.3       1 RES1   0.0000
     5 C4       -0.9952    3.7144   -3.1849   C.3       1 RES1   0.0000
     6 N1       -1.3155    3.8800   -1.7652   N.am      1 RES1   0.0000
     7 C5       -1.8558    5.1780   -1.3653   C.3       1 RES1   0.0000
     8 C6       -0.9251    6.3812   -1.5795   C.3       1 RES1   0.0000
     9 C7        0.1118    6.6057   -0.4810   C.3       1 RES1   0.0000
    10 C8        1.2388    5.5802   -0.4770   C.3       1 RES1   0.0000
    11 C9       -1.2543    2.8092   -0.9830   C.2       1 RES1   0.0000
    12 O1       -0.8377    1.7060   -1.3864   O.2       1 RES1   0.0000
    13 C10      -1.6543    2.9468    0.4970   C.3       1 RES1   0.0000
    14 O2       -1.4602    1.7223    1.2072   O.3       1 RES1   0.0000
    15 C11      -2.6374    1.1593    1.7934   C.3       1 RES1   0.0000
    16 C12      -3.1716   -0.0183    0.9538   C.2       1 RES1   0.0000
    17 O3       -2.5096   -0.3810   -0.0315   O.2       1 RES1   0.0000
    18 N2       -4.2703   -0.6416    1.3629   N.am      1 RES1   0.0000
    19 C13      -5.1418   -0.1725    2.4332   C.3       1 RES1   0.0000
    20 C14      -6.4593    0.4270    1.9290   C.3       1 RES1   0.0000
    21 C15      -6.3432    1.8076    1.2795   C.3       1 RES1   0.0000
    22 C16      -5.7845    1.8018   -0.1410   C.3       1 RES1   0.0000
    23 C17      -4.6463   -1.9050    0.7248   C.3       1 RES1   0.0000
    24 C18      -5.1977   -1.7969   -0.6973   C.3       1 RES1   0.0000
    25 C19      -5.7178   -3.1594   -1.1618   C.3       1 RES1   0.0000
    26 C20      -6.3894   -3.0941   -2.5285   C.3       1 RES1   0.0000
    27 H1       -2.8644    3.2739   -7.4469   H         1 RES1   0.0000
    28 H2       -3.8493    2.7370   -6.0849   H         1 RES1   0.0000
    29 H3       -3.5957    4.4562   -6.3692   H         1 RES1   0.0000
    30 H4       -1.3967    2.4673   -5.6166   H         1 RES1   0.0000
    31 H5       -1.1734    4.1967   -5.8787   H         1 RES1   0.0000
    32 H6       -2.7379    4.6835   -4.0097   H         1 RES1   0.0000
    33 H7       -2.9271    2.9476   -3.7149   H         1 RES1   0.0000
    34 H8       -0.4955    2.7503   -3.2927   H         1 RES1   0.0000
    35 H9       -0.3127    4.5062   -3.5021   H         1 RES1   0.0000
    36 H10      -2.7662    5.3493   -1.9460   H         1 RES1   0.0000
    37 H11      -2.1264    5.1408   -0.3138   H         1 RES1   0.0000
    38 H12      -0.4234    6.3113   -2.5417   H         1 RES1   0.0000
    39 H13      -1.5550    7.2703   -1.6243   H         1 RES1   0.0000
    40 H14       0.5432    7.5940   -0.6330   H         1 RES1   0.0000
    41 H15      -0.3832    6.6157    0.4916   H         1 RES1   0.0000
    42 H16       1.7141    5.5337   -1.4557   H         1 RES1   0.0000
    43 H17       1.9974    5.8599    0.2502   H         1 RES1   0.0000
    44 H18       0.8633    4.5936   -0.2189   H         1 RES1   0.0000
    45 H19      -1.0081    3.7047    0.9608   H         1 RES1   0.0000
    46 H20      -2.6974    3.2666    0.5666   H         1 RES1   0.0000
    47 H21      -2.3446    0.7453    2.7669   H         1 RES1   0.0000
    48 H22      -3.3919    1.9328    1.9482   H         1 RES1   0.0000
    49 H23      -5.3743   -1.0187    3.0870   H         1 RES1   0.0000
    50 H24      -4.6247    0.5641    3.0436   H         1 RES1   0.0000
    51 H25      -6.9295   -0.2678    1.2358   H         1 RES1   0.0000
    52 H26      -7.1141    0.5187    2.7960   H         1 RES1   0.0000
    53 H27      -7.3435    2.2368    1.2341   H         1 RES1   0.0000
    54 H28      -5.7547    2.4678    1.9222   H         1 RES1   0.0000
    55 H29      -6.4069    1.1849   -0.7842   H         1 RES1   0.0000
    56 H30      -5.7967    2.8109   -0.5472   H         1 RES1   0.0000
    57 H31      -4.7662    1.4214   -0.1936   H         1 RES1   0.0000
    58 H32      -3.7570   -2.5439    0.6974   H         1 RES1   0.0000
    59 H33      -5.4001   -2.3753    1.3592   H         1 RES1   0.0000
    60 H34      -6.0171   -1.0802   -0.7222   H         1 RES1   0.0000
    61 H35      -4.4116   -1.4369   -1.3625   H         1 RES1   0.0000
    62 H36      -4.8953   -3.8775   -1.1884   H         1 RES1   0.0000
    63 H37      -6.4441   -3.5277   -0.4353   H         1 RES1   0.0000
    64 H38      -5.6830   -2.8160   -3.3066   H         1 RES1   0.0000
    65 H39      -6.8022   -4.0648   -2.7862   H         1 RES1   0.0000
    66 H40      -7.2018   -2.3713   -2.5262   H         1 RES1   0.0000
    67 C21       5.0003   -2.8862    4.0673   C.3       1 RES1   0.0000
    68 C22       3.9050   -1.9917    4.6345   C.3       1 RES1   0.0000
    69 C23       3.6397   -0.8057    3.7094   C.3       1 RES1   0.0000
    70 C24       2.5383    0.1071    4.2510   C.3       1 RES1   0.0000
    71 N3        2.4306    1.3304    3.4558   N.am      1 RES1   0.0000
    72 C25       2.8955    2.5532    4.1009   C.3       1 RES1   0.0000
    73 C26       2.0381    3.0113    5.2907   C.3       1 RES1   0.0000
    74 C27       0.6031    3.4251    4.9636   C.3       1 RES1   0.0000
    75 C28      -0.3424    2.2517    4.7113   C.3       1 RES1   0.0000
    76 C29       1.9743    1.2406    2.2162   C.2       1 RES1   0.0000
    77 O4        1.5102    0.1903    1.7312   O.2       1 RES1   0.0000
    78 C30       2.0206    2.4928    1.3271   C.3       1 RES1   0.0000
    79 O5        1.3722    2.2208    0.0873   O.3       1 RES1   0.0000
    80 C31       2.1336    2.4407   -1.0987   C.3       1 RES1   0.0000
    81 C32       2.3283    1.1369   -1.8785   C.2       1 RES1   0.0000
    82 O6        1.8943    0.0723   -1.3943   O.2       1 RES1   0.0000
    83 N4        2.9645    1.1997   -3.0387   N.am      1 RES1   0.0000
    84 C33       3.3204    2.4303   -3.7377   C.3       1 RES1   0.0000
    85 C34       4.8226    2.7108   -3.8451   C.3       1 RES1   0.0000
    86 C35       5.4963    3.1616   -2.5478   C.3       1 RES1   0.0000
    87 C36       5.8020    2.0192   -1.5839   C.3       1 RES1   0.0000
    88 C37       3.2182   -0.0469   -3.7609   C.3       1 RES1   0.0000
    89 C38       4.3198   -0.8861   -3.1137   C.3       1 RES1   0.0000
    90 C39       4.5082   -2.2150   -3.8411   C.3       1 RES1   0.0000
    91 C40       5.6471   -3.0228   -3.2334   C.3       1 RES1   0.0000
    92 H41       5.1801   -3.7322    4.7232   H         1 RES1   0.0000
    93 H42       4.7259   -3.2650    3.0840   H         1 RES1   0.0000
    94 H43       5.9299   -2.3317    3.9701   H         1 RES1   0.0000
    95 H44       2.9866   -2.5681    4.7696   H         1 RES1   0.0000
    96 H45       4.2085   -1.6263    5.6162   H         1 RES1   0.0000
    97 H46       4.5576   -0.2230    3.6060   H         1 RES1   0.0000
    98 H47       3.3590   -1.1654    2.7174   H         1 RES1   0.0000
    99 H48       1.5727   -0.4082    4.2397   H         1 RES1   0.0000
   100 H49       2.7854    0.3845    5.2757   H         1 RES1   0.0000
   101 H50       3.9131    2.3757    4.4633   H         1 RES1   0.0000
   102 H51       2.9324    3.3613    3.3751   H         1 RES1   0.0000
   103 H52       2.0060    2.2386    6.0565   H         1 RES1   0.0000
   104 H53       2.5542    3.8695    5.7253   H         1 RES1   0.0000
   105 H54       0.2254    3.9772    5.8245   H         1 RES1   0.0000
   106 H55       0.5934    4.1086    4.1126   H         1 RES1   0.0000
   107 H56      -0.2839    1.5466    5.5384   H         1 RES1   0.0000
   108 H57      -1.3690    2.6088    4.6482   H         1 RES1   0.0000
   109 H58      -0.1116    1.7229    3.7859   H         1 RES1   0.0000
   110 H59       1.4855    3.3100    1.8258   H         1 RES1   0.0000
   111 H60       3.0603    2.7997    1.1687   H         1 RES1   0.0000
   112 H61       1.5711    3.1330   -1.7330   H         1 RES1   0.0000
   113 H62       3.1045    2.8902   -0.8725   H         1 RES1   0.0000
   114 H63       2.9062    2.3613   -4.7507   H         1 RES1   0.0000
   115 H64       2.8434    3.2804   -3.2559   H         1 RES1   0.0000
   116 H65       5.3348    1.8336   -4.2352   H         1 RES1   0.0000
   117 H66       4.9321    3.5076   -4.5810   H         1 RES1   0.0000
   118 H67       6.4427    3.6320   -2.8099   H         1 RES1   0.0000
   119 H68       4.8925    3.9324   -2.0613   H         1 RES1   0.0000
   120 H69       6.4908    1.3192   -2.0510   H         1 RES1   0.0000
   121 H70       6.2843    2.3991   -0.6861   H         1 RES1   0.0000
   122 H71       4.9078    1.4715   -1.2916   H         1 RES1   0.0000
   123 H72       2.2880   -0.6235   -3.7819   H         1 RES1   0.0000
   124 H73       3.5022    0.2034   -4.7844   H         1 RES1   0.0000
   125 H74       5.2578   -0.3342   -3.1397   H         1 RES1   0.0000
   126 H75       4.0695   -1.0696   -2.0662   H         1 RES1   0.0000
   127 H76       3.5809   -2.7920   -3.7857   H         1 RES1   0.0000
   128 H77       4.7179   -2.0296   -4.8957   H         1 RES1   0.0000
   129 H78       5.4583   -3.2279   -2.1817   H         1 RES1   0.0000
   130 H79       5.7570   -3.9687   -3.7548   H         1 RES1   0.0000
   131 H80       6.5871   -2.4832   -3.3116   H         1 RES1   0.0000
   132 C41      -4.4482   -0.0948   -4.2931   C.3       1 RES1   0.0000
   133 C42      -3.3770   -0.4724   -5.3063   C.3       1 RES1   0.0000
   134 C43      -2.0102   -0.7845   -4.6852   C.3       1 RES1   0.0000
   135 C44      -1.9771   -2.1644   -4.0205   C.3       1 RES1   0.0000
   136 N5       -0.6571   -2.6412   -3.5693   N.am      1 RES1   0.0000
   137 C45      -0.0222   -3.7550   -4.2601   C.3       1 RES1   0.0000
   138 C46       0.1816   -3.5591   -5.7689   C.3       1 RES1   0.0000
   139 C47       1.3704   -2.6771   -6.1630   C.3       1 RES1   0.0000
   140 C48       1.0499   -1.1921   -6.2749   C.3       1 RES1   0.0000
   141 C49      -0.2251   -2.1535   -2.4137   C.2       1 RES1   0.0000
   142 O7       -0.7298   -1.1265   -1.9358   O.2       1 RES1   0.0000
   143 C50       0.8374   -2.8786   -1.5518   C.3       1 RES1   0.0000
   144 O8        0.7305   -2.2963   -0.2484   O.3       1 RES1   0.0000
   145 C51       0.7027   -3.1710    0.8710   C.3       1 RES1   0.0000
   146 C52      -0.1917   -2.5207    1.9361   C.2       1 RES1   0.0000
   147 O9       -0.7433   -1.4371    1.6609   O.2       1 RES1   0.0000
   148 N6       -0.3838   -3.1225    3.1050   N.am      1 RES1   0.0000
   149 C53      -1.2822   -2.4748    4.0683   C.3       1 RES1   0.0000
   150 C54      -2.6748   -3.1041    4.0598   C.3       1 RES1   0.0000
   151 C55      -3.6042   -2.4672    5.0902   C.3       1 RES1   0.0000
   152 C56      -4.9808   -3.1199    5.0451   C.3       1 RES1   0.0000
   153 C57       0.3405   -4.2980    3.5849   C.3       1 RES1   0.0000
   154 C58       0.2262   -5.6291    2.8284   C.3       1 RES1   0.0000
   155 C59      -1.1939   -6.1668    2.6497   C.3       1 RES1   0.0000
   156 C60      -1.9937   -5.5088    1.5304   C.3       1 RES1   0.0000
   157 H81      -5.3651    0.1871   -4.8039   H         1 RES1   0.0000
   158 H82      -4.6758   -0.9257   -3.6340   H         1 RES1   0.0000
   159 H83      -4.1195    0.7450   -3.6843   H         1 RES1   0.0000
   160 H84      -3.7110   -1.3298   -5.8924   H         1 RES1   0.0000
   161 H85      -3.2514    0.3556   -6.0046   H         1 RES1   0.0000
   162 H86      -1.2804   -0.7695   -5.4862   H         1 RES1   0.0000
   163 H87      -1.7448   -0.0156   -3.9537   H         1 RES1   0.0000
   164 H88      -2.6123   -2.1219   -3.1319   H         1 RES1   0.0000
   165 H89      -2.3737   -2.9098   -4.7109   H         1 RES1   0.0000
   166 H90       0.9569   -3.9163   -3.8068   H         1 RES1   0.0000
   167 H91      -0.6309   -4.6537   -4.1058   H         1 RES1   0.0000
   168 H92       0.3557   -4.5543   -6.1768   H         1 RES1   0.0000
   169 H93      -0.7287   -3.1816   -6.2294   H         1 RES1   0.0000
   170 H94       2.1895   -2.8278   -5.4600   H         1 RES1   0.0000
   171 H95       1.7288   -3.0090   -7.1353   H         1 RES1   0.0000
   172 H96       0.7660   -0.7657   -5.3140   H         1 RES1   0.0000
   173 H97       1.9157   -0.6489   -6.6461   H         1 RES1   0.0000
   174 H98       0.2406   -1.0406   -6.9866   H         1 RES1   0.0000
   175 H99       0.6437   -3.9572   -1.5387   H         1 RES1   0.0000
   176 H100      1.8549   -2.6945   -1.9199   H         1 RES1   0.0000
   177 H101      0.2885   -4.1445    0.5931   H         1 RES1   0.0000
   178 H102      1.7184   -3.3099    1.2668   H         1 RES1   0.0000
   179 H103     -0.8499   -2.5356    5.0711   H         1 RES1   0.0000
   180 H104     -1.3622   -1.4204    3.7947   H         1 RES1   0.0000
   181 H105     -3.1063   -2.9850    3.0638   H         1 RES1   0.0000
   182 H106     -2.5904   -4.1698    4.2706   H         1 RES1   0.0000
   183 H107     -3.1830   -2.5883    6.0878   H         1 RES1   0.0000
   184 H108     -3.6897   -1.3952    4.8981   H         1 RES1   0.0000
   185 H109     -4.9112   -4.1711    5.3114   H         1 RES1   0.0000
   186 H110     -5.6585   -2.6371    5.7430   H         1 RES1   0.0000
   187 H111     -5.4099   -3.0583    4.0461   H         1 RES1   0.0000
   188 H112      1.4020   -4.0314    3.6582   H         1 RES1   0.0000
   189 H113     -0.0309   -4.4838    4.5943   H         1 RES1   0.0000
   190 H114      0.7455   -5.6098    1.8718   H         1 RES1   0.0000
   191 H115      0.7733   -6.3402    3.4489   H         1 RES1   0.0000
   192 H116     -1.1300   -7.2302    2.4241   H         1 RES1   0.0000
   193 H117     -1.7283   -6.0787    3.5951   H         1 RES1   0.0000
   194 H118     -1.5182   -5.6831    0.5659   H         1 RES1   0.0000
   195 H119     -2.9901   -5.9435    1.4955   H         1 RES1   0.0000
   196 H120     -2.0947   -4.4367    1.6760   H         1 RES1   0.0000
@<TRIPOS>BOND
     1     1    12    1
     2     1    14    1
     3     1    17    1
     4     1    77    1
     5     1    79    1
     6     1    82    1
     7     1   142    1
     8     1   144    1
     9     1   147    1
    10     2     3    1
    11     2    27    1
    12     2    28    1
    13     2    29    1
    14     3     4    1
    15     3    30    1
    16     3    31    1
    17     4     5    1
    18     4    32    1
    19     4    33    1
    20     5     6    1
    21     5    34    1
    22     5    35    1
    23     6     7    1
    24     6    11    1
    25     7     8    1
    26     7    36    1
    27     7    37    1
    28     8     9    1
    29     8    38    1
    30     8    39    1
    31     9    10    1
    32     9    40    1
    33     9    41    1
    34    10    42    1
    35    10    43    1
    36    10    44    1
    37    11    12    2
    38    11    13    1
    39    13    14    1
    40    13    45    1
    41    13    46    1
    42    14    15    1
    43    15    16    1
    44    15    47    1
    45    15    48    1
    46    16    17    2
    47    16    18    1
    48    18    19    1
    49    18    23    1
    50    19    20    1
    51    19    49    1
    52    19    50    1
    53    20    21    1
    54    20    51    1
    55    20    52    1
    56    21    22    1
    57    21    53    1
    58    21    54    1
    59    22    55    1
    60    22    56    1
    61    22    57    1
    62    23    24    1
    63    23    58    1
    64    23    59    1
    65    24    25    1
    66    24    60    1
    67    24    61    1
    68    25    26    1
    69    25    62    1
    70    25    63    1
    71    26    64    1
    72    26    65    1
    73    26    66    1
    74    67    68    1
    75    67    92    1
    76    67    93    1
    77    67    94    1
    78    68    69    1
    79    68    95    1
    80    68    96    1
    81    69    70    1
    82    69    97    1
    83    69    98    1
    84    70    71    1
    85    70    99    1
    86    70   100    1
    87    71    72    1
    88    71    76    1
    89    72    73    1
    90    72   101    1
    91    72   102    1
    92    73    74    1
    93    73   103    1
    94    73   104    1
    95    74    75    1
    96    74   105    1
    97    74   106    1
    98    75   107    1
    99    75   108    1
   100    75   109    1
   101    76    77    2
   102    76    78    1
   103    78    79    1
   104    78   110    1
   105    78   111    1
   106    79    80    1
   107    80    81    1
   108    80   112    1
   109    80   113    1
   110    81    82    2
   111    81    83    1
   112    83    84    1
   113    83    88    1
   114    84    85    1
   115    84   114    1
   116    84   115    1
   117    85    86    1
   118    85   116    1
   119    85   117    1
   120    86    87    1
   121    86   118    1
   122    86   119    1
   123    87   120    1
   124    87   121    1
   125    87   122    1
   126    88    89    1
   127    88   123    1
   128    88   124    1
   129    89    90    1
   130    89   125    1
   131    89   126    1
   132    90    91    1
   133    90   127    1
   134    90   128    1
   135    91   129    1
   136    91   130    1
   137    91   131    1
   138   132   133    1
   139   132   157    1
   140   132   158    1
   141   132   159    1
   142   133   134    1
   143   133   160    1
   144   133   161    1
   145   134   135    1
   146   134   162    1
   147   134   163    1
   148   135   136    1
   149   135   164    1
   150   135   165    1
   151   136   137    1
   152   136   141    1
   153   137   138    1
   154   137   166    1
   155   137   167    1
   156   138   139    1
   157   138   168    1
   158   138   169    1
   159   139   140    1
   160   139   170    1
   161   139   171    1
   162   140   172    1
   163   140   173    1
   164   140   174    1
   165   141   142    2
   166   141   143    1
   167   143   144    1
   168   143   175    1
   169   143   176    1
   170   144   145    1
   171   145   146    1
   172   145   177    1
   173   145   178    1
   174   146   147    2
   175   146   148    1
   176   148   149    1
   177   148   153    1
   178   149   150    1
   179   149   179    1
   180   149   180    1
   181   150   151    1
   182   150   181    1
   183   150   182    1
   184   151   152    1
   185   151   183    1
   186   151   184    1
   187   152   185    1
   188   152   186    1
   189   152   187    1
   190   153   154    1
   191   153   188    1
   192   153   189    1
   193   154   155    1
   194   154   190    1
   195   154   191    1
   196   155   156    1
   197   155   192    1
   198   155   193    1
   199   156   194    1
   200   156   195    1
   201   156   196    1
@<TRIPOS>SUBSTRUCTURE
     1 RES1      196 GROUP             0 ****  ****    0  
