@<TRIPOS>MOLECULE
tri_tri_mer_capped_0_nunpairedes_0_charge_3 Charge: 3 Unpaired_Electrons: 2 XTB_Unpaired_Electrons: 0 XTB_Charge: 3
   340   345     1     0     0
SMALL
NoCharges
****
Generated from Architector

@<TRIPOS>ATOM
     1 Pr1       0.0144    0.4417   -0.1553   Pr        1 RES1   0.0000
     2 C1        2.8869    6.8430    9.3401   C.3       1 RES1   0.0000
     3 C2        3.5490    5.6489    8.6580   C.3       1 RES1   0.0000
     4 C3        4.1258    5.9915    7.2808   C.3       1 RES1   0.0000
     5 C4        3.2219    5.6648    6.0897   C.3       1 RES1   0.0000
     6 C5        1.8413    6.3357    6.0736   C.3       1 RES1   0.0000
     7 C6        0.6934    5.5638    6.7351   C.3       1 RES1   0.0000
     8 C7        0.4782    4.1453    6.1872   C.3       1 RES1   0.0000
     9 C8       -0.9770    3.6944    6.3490   C.3       1 RES1   0.0000
    10 C9       -1.3508    2.4718    5.5054   C.3       1 RES1   0.0000
    11 C10      -2.8419    2.1486    5.6375   C.3       1 RES1   0.0000
    12 C11      -3.3115    0.8970    4.8837   C.3       1 RES1   0.0000
    13 C12      -3.4910    1.0932    3.3647   C.3       1 RES1   0.0000
    14 N1       -3.3286   -0.1870    2.6836   N.am      1 RES1   0.0000
    15 C13      -4.3945   -1.1694    2.8015   C.3       1 RES1   0.0000
    16 C14      -5.4688   -0.9547    1.7208   C.3       1 RES1   0.0000
    17 C15      -5.0568   -1.2608    0.2697   C.3       1 RES1   0.0000
    18 C16      -4.3749   -0.1468   -0.5524   C.3       1 RES1   0.0000
    19 C17      -4.8367   -0.1974   -2.0202   C.3       1 RES1   0.0000
    20 C18      -4.0726    0.7082   -3.0065   C.3       1 RES1   0.0000
    21 C19      -4.7805    1.9790   -3.4971   C.3       1 RES1   0.0000
    22 C20      -3.9213    2.7225   -4.5296   C.3       1 RES1   0.0000
    23 C21      -4.6446    3.7557   -5.4074   C.3       1 RES1   0.0000
    24 C22      -5.2827    4.9560   -4.7048   C.3       1 RES1   0.0000
    25 C23      -4.2912    5.9320   -4.0782   C.3       1 RES1   0.0000
    26 C24      -4.9900    7.1822   -3.5528   C.3       1 RES1   0.0000
    27 C25      -2.3238   -0.3582    1.8416   C.2       1 RES1   0.0000
    28 O1       -1.7340    0.5833    1.2612   O.2       1 RES1   0.0000
    29 C26      -1.7182   -1.7588    1.6672   C.3       1 RES1   0.0000
    30 O2       -0.3090   -1.5996    1.4881   O.3       1 RES1   0.0000
    31 C27       0.4386   -1.4926    2.6994   C.3       1 RES1   0.0000
    32 C28       0.4724   -0.0894    3.3141   C.3       1 RES1   0.0000
    33 O3        1.0857    0.7574    2.3494   O.3       1 RES1   0.0000
    34 C29       1.5566    2.0256    2.8110   C.3       1 RES1   0.0000
    35 C30       0.7736    3.1174    2.0627   C.2       1 RES1   0.0000
    36 O4       -0.1087    2.7057    1.2747   O.2       1 RES1   0.0000
    37 N2        1.0031    4.4077    2.2955   N.am      1 RES1   0.0000
    38 C31      -0.0583    5.3771    2.0026   C.3       1 RES1   0.0000
    39 C32      -0.8848    5.8345    3.2276   C.3       1 RES1   0.0000
    40 C33      -2.3455    5.4676    2.9726   C.3       1 RES1   0.0000
    41 C34      -3.3978    5.7711    4.0400   C.3       1 RES1   0.0000
    42 C35      -4.6872    5.0927    3.5648   C.3       1 RES1   0.0000
    43 C36      -5.8755    5.0215    4.5228   C.3       1 RES1   0.0000
    44 C37      -6.8779    3.9853    4.0012   C.3       1 RES1   0.0000
    45 C38      -8.1942    3.9373    4.7728   C.3       1 RES1   0.0000
    46 C39      -9.1041    2.7856    4.3267   C.3       1 RES1   0.0000
    47 C40      -8.6014    1.3951    4.7311   C.3       1 RES1   0.0000
    48 C41      -9.6876    0.3235    4.6142   C.3       1 RES1   0.0000
    49 C42      -9.1985   -1.0495    5.0619   C.3       1 RES1   0.0000
    50 C43       2.3318    4.9554    2.5697   C.3       1 RES1   0.0000
    51 C44       2.7396    5.9216    1.4304   C.3       1 RES1   0.0000
    52 C45       4.1191    5.6764    0.8176   C.3       1 RES1   0.0000
    53 C46       4.3653    6.6024   -0.3823   C.3       1 RES1   0.0000
    54 C47       3.4752    6.3952   -1.6151   C.3       1 RES1   0.0000
    55 C48       3.8799    7.4024   -2.6944   C.3       1 RES1   0.0000
    56 C49       3.1986    7.2679   -4.0556   C.3       1 RES1   0.0000
    57 C50       1.6777    7.4306   -4.0959   C.3       1 RES1   0.0000
    58 C51       1.1261    8.6194   -3.3143   C.3       1 RES1   0.0000
    59 C52      -0.3925    8.7494   -3.4908   C.3       1 RES1   0.0000
    60 C53      -0.9035   10.1558   -3.1756   C.3       1 RES1   0.0000
    61 C54      -0.6648   10.5699   -1.7289   C.3       1 RES1   0.0000
    62 H1        2.4619    6.5469   10.2967   H         1 RES1   0.0000
    63 H2        2.0907    7.2702    8.7349   H         1 RES1   0.0000
    64 H3        3.6275    7.6185    9.5240   H         1 RES1   0.0000
    65 H4        2.8395    4.8250    8.5599   H         1 RES1   0.0000
    66 H5        4.3558    5.3016    9.3055   H         1 RES1   0.0000
    67 H6        5.0523    5.4330    7.1305   H         1 RES1   0.0000
    68 H7        4.3837    7.0499    7.2529   H         1 RES1   0.0000
    69 H8        3.0999    4.5820    6.0283   H         1 RES1   0.0000
    70 H9        3.7671    5.9826    5.1954   H         1 RES1   0.0000
    71 H10       1.5502    6.5289    5.0353   H         1 RES1   0.0000
    72 H11       1.9181    7.3118    6.5507   H         1 RES1   0.0000
    73 H12      -0.2167    6.1463    6.5679   H         1 RES1   0.0000
    74 H13       0.8422    5.5170    7.8105   H         1 RES1   0.0000
    75 H14       1.1373    3.4445    6.7026   H         1 RES1   0.0000
    76 H15       0.7534    4.1260    5.1264   H         1 RES1   0.0000
    77 H16      -1.6348    4.5183    6.0713   H         1 RES1   0.0000
    78 H17      -1.1662    3.4781    7.3998   H         1 RES1   0.0000
    79 H18      -0.7667    1.6148    5.8505   H         1 RES1   0.0000
    80 H19      -1.0967    2.6611    4.4569   H         1 RES1   0.0000
    81 H20      -3.4386    2.9995    5.3136   H         1 RES1   0.0000
    82 H21      -3.0484    1.9945    6.6977   H         1 RES1   0.0000
    83 H22      -4.2640    0.5911    5.3164   H         1 RES1   0.0000
    84 H23      -2.5963    0.0918    5.0694   H         1 RES1   0.0000
    85 H24      -2.7286    1.7655    2.9696   H         1 RES1   0.0000
    86 H25      -4.4730    1.5144    3.1532   H         1 RES1   0.0000
    87 H26      -4.8522   -1.0646    3.7860   H         1 RES1   0.0000
    88 H27      -3.9888   -2.1776    2.7125   H         1 RES1   0.0000
    89 H28      -5.8647    0.0596    1.7933   H         1 RES1   0.0000
    90 H29      -6.2845   -1.6344    1.9795   H         1 RES1   0.0000
    91 H30      -5.9785   -1.5145   -0.2546   H         1 RES1   0.0000
    92 H31      -4.4381   -2.1611    0.2627   H         1 RES1   0.0000
    93 H32      -3.2785   -0.2549   -0.5332   H         1 RES1   0.0000
    94 H33      -4.6159    0.8190   -0.1097   H         1 RES1   0.0000
    95 H34      -5.8998    0.0350   -2.0739   H         1 RES1   0.0000
    96 H35      -4.7079   -1.2312   -2.3485   H         1 RES1   0.0000
    97 H36      -3.8604    0.1275   -3.9055   H         1 RES1   0.0000
    98 H37      -3.1189    0.9705   -2.5369   H         1 RES1   0.0000
    99 H38      -4.9987    2.6379   -2.6624   H         1 RES1   0.0000
   100 H39      -5.7183    1.6908   -3.9648   H         1 RES1   0.0000
   101 H40      -3.5117    1.9800   -5.2188   H         1 RES1   0.0000
   102 H41      -3.0842    3.2117   -4.0249   H         1 RES1   0.0000
   103 H42      -5.4209    3.2353   -5.9721   H         1 RES1   0.0000
   104 H43      -3.9111    4.1327   -6.1280   H         1 RES1   0.0000
   105 H44      -5.8674    5.4998   -5.4474   H         1 RES1   0.0000
   106 H45      -5.9768    4.6139   -3.9375   H         1 RES1   0.0000
   107 H46      -3.5460    6.2215   -4.8229   H         1 RES1   0.0000
   108 H47      -3.7750    5.4411   -3.2517   H         1 RES1   0.0000
   109 H48      -5.4123    7.7505   -4.3766   H         1 RES1   0.0000
   110 H49      -4.2871    7.8206   -3.0203   H         1 RES1   0.0000
   111 H50      -5.7981    6.9227   -2.8705   H         1 RES1   0.0000
   112 H51      -2.0915   -2.2521    0.7625   H         1 RES1   0.0000
   113 H52      -1.9274   -2.3861    2.5429   H         1 RES1   0.0000
   114 H53       1.4570   -1.7706    2.4104   H         1 RES1   0.0000
   115 H54       0.0683   -2.2085    3.4387   H         1 RES1   0.0000
   116 H55       1.0724   -0.1269    4.2328   H         1 RES1   0.0000
   117 H56      -0.5302    0.2770    3.5751   H         1 RES1   0.0000
   118 H57       2.6403    2.0566    2.6477   H         1 RES1   0.0000
   119 H58       1.3681    2.1557    3.8821   H         1 RES1   0.0000
   120 H59      -0.7318    4.8914    1.2952   H         1 RES1   0.0000
   121 H60       0.3814    6.2516    1.5365   H         1 RES1   0.0000
   122 H61      -0.7746    6.9105    3.3704   H         1 RES1   0.0000
   123 H62      -0.5322    5.3504    4.1330   H         1 RES1   0.0000
   124 H63      -2.3657    4.3874    2.7885   H         1 RES1   0.0000
   125 H64      -2.6723    5.9718    2.0618   H         1 RES1   0.0000
   126 H65      -3.5436    6.8446    4.1588   H         1 RES1   0.0000
   127 H66      -3.0893    5.3673    5.0033   H         1 RES1   0.0000
   128 H67      -4.4219    4.0628    3.2994   H         1 RES1   0.0000
   129 H68      -5.0140    5.5917    2.6506   H         1 RES1   0.0000
   130 H69      -6.3536    5.9970    4.5975   H         1 RES1   0.0000
   131 H70      -5.5403    4.7401    5.5217   H         1 RES1   0.0000
   132 H71      -6.4088    2.9978    4.0347   H         1 RES1   0.0000
   133 H72      -7.1033    4.2097    2.9559   H         1 RES1   0.0000
   134 H73      -8.7263    4.8758    4.6118   H         1 RES1   0.0000
   135 H74      -7.9982    3.8467    5.8425   H         1 RES1   0.0000
   136 H75      -9.2311    2.8220    3.2412   H         1 RES1   0.0000
   137 H76     -10.0888    2.9328    4.7749   H         1 RES1   0.0000
   138 H77      -8.2536    1.4304    5.7663   H         1 RES1   0.0000
   139 H78      -7.7515    1.1036    4.1046   H         1 RES1   0.0000
   140 H79     -10.0354    0.2679    3.5800   H         1 RES1   0.0000
   141 H80     -10.5373    0.6162    5.2316   H         1 RES1   0.0000
   142 H81      -8.3865   -1.3998    4.4266   H         1 RES1   0.0000
   143 H82     -10.0079   -1.7711    5.0111   H         1 RES1   0.0000
   144 H83      -8.8419   -1.0140    6.0882   H         1 RES1   0.0000
   145 H84       3.0457    4.1344    2.6291   H         1 RES1   0.0000
   146 H85       2.3208    5.4770    3.5283   H         1 RES1   0.0000
   147 H86       2.6990    6.9486    1.7888   H         1 RES1   0.0000
   148 H87       2.0267    5.8189    0.6104   H         1 RES1   0.0000
   149 H88       4.2023    4.6318    0.5042   H         1 RES1   0.0000
   150 H89       4.8988    5.8638    1.5587   H         1 RES1   0.0000
   151 H90       5.4041    6.4836   -0.6936   H         1 RES1   0.0000
   152 H91       4.2473    7.6306   -0.0407   H         1 RES1   0.0000
   153 H92       2.4226    6.5429   -1.3643   H         1 RES1   0.0000
   154 H93       3.6015    5.3787   -2.0003   H         1 RES1   0.0000
   155 H94       4.9521    7.2990   -2.8610   H         1 RES1   0.0000
   156 H95       3.6908    8.4089   -2.3244   H         1 RES1   0.0000
   157 H96       3.4492    6.3005   -4.4973   H         1 RES1   0.0000
   158 H97       3.6359    8.0351   -4.6939   H         1 RES1   0.0000
   159 H98       1.2051    6.5138   -3.7368   H         1 RES1   0.0000
   160 H99       1.3735    7.5500   -5.1367   H         1 RES1   0.0000
   161 H100      1.6056    9.5338   -3.6710   H         1 RES1   0.0000
   162 H101      1.3659    8.5061   -2.2561   H         1 RES1   0.0000
   163 H102     -0.9139    8.0260   -2.8532   H         1 RES1   0.0000
   164 H103     -0.6480    8.5128   -4.5277   H         1 RES1   0.0000
   165 H104     -1.9725   10.1957   -3.3907   H         1 RES1   0.0000
   166 H105     -0.4110   10.8671   -3.8403   H         1 RES1   0.0000
   167 H106     -1.1772    9.8987   -1.0418   H         1 RES1   0.0000
   168 H107     -1.0297   11.5790   -1.5596   H         1 RES1   0.0000
   169 H108      0.3966   10.5575   -1.4988   H         1 RES1   0.0000
   170 C55       5.7126   -4.8524   -8.0885   C.3       1 RES1   0.0000
   171 C56       5.5676   -4.8545   -6.5708   C.3       1 RES1   0.0000
   172 C57       4.4811   -5.8234   -6.0811   C.3       1 RES1   0.0000
   173 C58       3.2177   -5.1529   -5.5375   C.3       1 RES1   0.0000
   174 C59       2.3560   -4.4326   -6.5835   C.3       1 RES1   0.0000
   175 C60       2.7111   -2.9824   -6.9255   C.3       1 RES1   0.0000
   176 C61       2.6735   -2.0133   -5.7447   C.3       1 RES1   0.0000
   177 C62       2.8285   -0.5676   -6.2191   C.3       1 RES1   0.0000
   178 C63       2.9563    0.4146   -5.0575   C.3       1 RES1   0.0000
   179 C64       2.9811    1.8702   -5.5244   C.3       1 RES1   0.0000
   180 C65       2.9729    2.8771   -4.3646   C.3       1 RES1   0.0000
   181 C66       1.6020    3.0522   -3.6685   C.3       1 RES1   0.0000
   182 N3        1.7309    2.9581   -2.2217   N.am      1 RES1   0.0000
   183 C67       1.0918    3.8548   -1.2445   C.3       1 RES1   0.0000
   184 C68       0.0689    4.8819   -1.7259   C.3       1 RES1   0.0000
   185 C69      -1.2722    4.3675   -2.2564   C.3       1 RES1   0.0000
   186 C70      -2.1926    3.6098   -1.2743   C.3       1 RES1   0.0000
   187 C71      -3.1499    4.5312   -0.5091   C.3       1 RES1   0.0000
   188 C72      -4.3848    3.7761    0.0108   C.3       1 RES1   0.0000
   189 C73      -5.7127    4.2308   -0.6094   C.3       1 RES1   0.0000
   190 C74      -6.7775    3.1327   -0.5152   C.3       1 RES1   0.0000
   191 C75      -8.1113    3.5017   -1.1793   C.3       1 RES1   0.0000
   192 C76      -8.2130    3.2249   -2.6846   C.3       1 RES1   0.0000
   193 C77      -8.5121    1.7603   -2.9995   C.3       1 RES1   0.0000
   194 C78      -8.4753    1.4584   -4.4939   C.3       1 RES1   0.0000
   195 C79       2.0916    1.7626   -1.7275   C.2       1 RES1   0.0000
   196 O5        1.7926    0.6781   -2.2488   O.2       1 RES1   0.0000
   197 C80       2.9162    1.6978   -0.4373   C.3       1 RES1   0.0000
   198 O6        2.5485    0.5357    0.3002   O.3       1 RES1   0.0000
   199 C81       3.3510   -0.6389    0.1657   C.3       1 RES1   0.0000
   200 C82       2.8635   -1.5879   -0.9373   C.3       1 RES1   0.0000
   201 O7        1.4439   -1.7429   -0.8045   O.3       1 RES1   0.0000
   202 C83       0.8977   -2.6796   -1.7456   C.3       1 RES1   0.0000
   203 C84      -0.3613   -2.0519   -2.3598   C.2       1 RES1   0.0000
   204 O8       -0.9040   -1.1233   -1.7049   O.2       1 RES1   0.0000
   205 N4       -0.7994   -2.4548   -3.5457   N.am      1 RES1   0.0000
   206 C85      -1.8696   -1.7155   -4.2199   C.3       1 RES1   0.0000
   207 C86      -1.4704   -1.0521   -5.5593   C.3       1 RES1   0.0000
   208 C87      -1.0105    0.4062   -5.4473   C.3       1 RES1   0.0000
   209 C88      -0.8993    1.1542   -6.7893   C.3       1 RES1   0.0000
   210 C89      -0.6807    2.6541   -6.5562   C.3       1 RES1   0.0000
   211 C90      -0.4757    3.5018   -7.8153   C.3       1 RES1   0.0000
   212 C91      -0.2745    4.9698   -7.4223   C.3       1 RES1   0.0000
   213 C92      -0.0476    5.9174   -8.6008   C.3       1 RES1   0.0000
   214 C93      -0.0811    7.3911   -8.1587   C.3       1 RES1   0.0000
   215 C94       1.3096    8.0062   -7.9999   C.3       1 RES1   0.0000
   216 C95       1.2150    9.4350   -7.4660   C.3       1 RES1   0.0000
   217 C96       2.5751   10.0313   -7.1303   C.3       1 RES1   0.0000
   218 C97      -0.5402   -3.7820   -4.0951   C.3       1 RES1   0.0000
   219 C98      -1.6472   -4.7788   -3.7148   C.3       1 RES1   0.0000
   220 C99      -1.7860   -5.0169   -2.2116   C.3       1 RES1   0.0000
   221 C100     -3.0931   -5.7326   -1.8458   C.3       1 RES1   0.0000
   222 C101     -4.2916   -4.7887   -1.7543   C.3       1 RES1   0.0000
   223 C102     -5.5938   -5.5589   -1.5394   C.3       1 RES1   0.0000
   224 C103     -6.7911   -4.6712   -1.1925   C.3       1 RES1   0.0000
   225 C104     -7.0592   -3.5402   -2.1869   C.3       1 RES1   0.0000
   226 C105     -7.3403   -4.0097   -3.6128   C.3       1 RES1   0.0000
   227 C106     -7.4472   -2.8220   -4.5691   C.3       1 RES1   0.0000
   228 C107     -7.8427   -3.2181   -5.9914   C.3       1 RES1   0.0000
   229 C108     -6.7946   -4.0652   -6.7024   C.3       1 RES1   0.0000
   230 H109      6.4584   -4.1252   -8.4002   H         1 RES1   0.0000
   231 H110      4.7736   -4.6122   -8.5817   H         1 RES1   0.0000
   232 H111      6.0357   -5.8319   -8.4308   H         1 RES1   0.0000
   233 H112      5.3464   -3.8463   -6.2150   H         1 RES1   0.0000
   234 H113      6.5288   -5.1394   -6.1414   H         1 RES1   0.0000
   235 H114      4.8835   -6.4509   -5.2837   H         1 RES1   0.0000
   236 H115      4.1959   -6.4913   -6.8938   H         1 RES1   0.0000
   237 H116      3.4910   -4.4679   -4.7316   H         1 RES1   0.0000
   238 H117      2.5998   -5.9398   -5.0943   H         1 RES1   0.0000
   239 H118      1.3162   -4.4469   -6.2421   H         1 RES1   0.0000
   240 H119      2.3975   -5.0095   -7.5074   H         1 RES1   0.0000
   241 H120      1.9920   -2.6367   -7.6733   H         1 RES1   0.0000
   242 H121      3.6942   -2.9322   -7.3871   H         1 RES1   0.0000
   243 H122      3.4785   -2.2540   -5.0458   H         1 RES1   0.0000
   244 H123      1.7232   -2.1170   -5.2092   H         1 RES1   0.0000
   245 H124      1.9675   -0.2913   -6.8316   H         1 RES1   0.0000
   246 H125      3.7132   -0.4898   -6.8501   H         1 RES1   0.0000
   247 H126      3.8750    0.1974   -4.5054   H         1 RES1   0.0000
   248 H127      2.1231    0.2624   -4.3687   H         1 RES1   0.0000
   249 H128      2.1451    2.0567   -6.1996   H         1 RES1   0.0000
   250 H129      3.8935    2.0277   -6.1014   H         1 RES1   0.0000
   251 H130      3.3048    3.8440   -4.7458   H         1 RES1   0.0000
   252 H131      3.7088    2.5401   -3.6298   H         1 RES1   0.0000
   253 H132      0.9211    2.2696   -4.0047   H         1 RES1   0.0000
   254 H133      1.1801    4.0218   -3.9153   H         1 RES1   0.0000
   255 H134      1.8836    4.3854   -0.7130   H         1 RES1   0.0000
   256 H135      0.5569    3.1971   -0.5489   H         1 RES1   0.0000
   257 H136      0.5119    5.5200   -2.4907   H         1 RES1   0.0000
   258 H137     -0.1296    5.5199   -0.8640   H         1 RES1   0.0000
   259 H138     -1.8204    5.2487   -2.5904   H         1 RES1   0.0000
   260 H139     -1.0763    3.7703   -3.1509   H         1 RES1   0.0000
   261 H140     -1.6300    2.9825   -0.5568   H         1 RES1   0.0000
   262 H141     -2.8376    2.9474   -1.8481   H         1 RES1   0.0000
   263 H142     -3.4756    5.3248   -1.1799   H         1 RES1   0.0000
   264 H143     -2.6335    4.9972    0.3181   H         1 RES1   0.0000
   265 H144     -4.4474    3.8642    1.0952   H         1 RES1   0.0000
   266 H145     -4.2557    2.7141   -0.2055   H         1 RES1   0.0000
   267 H146     -5.5516    4.5022   -1.6531   H         1 RES1   0.0000
   268 H147     -6.0714    5.1247   -0.0958   H         1 RES1   0.0000
   269 H148     -6.9536    2.9220    0.5429   H         1 RES1   0.0000
   270 H149     -6.3913    2.2147   -0.9618   H         1 RES1   0.0000
   271 H150     -8.2968    4.5600   -0.9945   H         1 RES1   0.0000
   272 H151     -8.9046    2.9351   -0.6895   H         1 RES1   0.0000
   273 H152     -7.2988    3.5213   -3.1983   H         1 RES1   0.0000
   274 H153     -9.0173    3.8345   -3.0990   H         1 RES1   0.0000
   275 H154     -9.5010    1.5162   -2.6084   H         1 RES1   0.0000
   276 H155     -7.7897    1.1201   -2.4869   H         1 RES1   0.0000
   277 H156     -9.1487    2.1169   -5.0353   H         1 RES1   0.0000
   278 H157     -8.7711    0.4297   -4.6829   H         1 RES1   0.0000
   279 H158     -7.4786    1.5951   -4.9081   H         1 RES1   0.0000
   280 H159      2.7624    2.5481    0.2346   H         1 RES1   0.0000
   281 H160      3.9705    1.6740   -0.7463   H         1 RES1   0.0000
   282 H161      3.2762   -1.1454    1.1347   H         1 RES1   0.0000
   283 H162      4.4001   -0.3800   -0.0126   H         1 RES1   0.0000
   284 H163      3.3749   -2.5504   -0.8070   H         1 RES1   0.0000
   285 H164      3.1094   -1.1848   -1.9294   H         1 RES1   0.0000
   286 H165      0.6313   -3.5972   -1.2044   H         1 RES1   0.0000
   287 H166      1.6382   -2.9221   -2.5164   H         1 RES1   0.0000
   288 H167     -2.2390   -0.9783   -3.5080   H         1 RES1   0.0000
   289 H168     -2.6817   -2.4140   -4.4210   H         1 RES1   0.0000
   290 H169     -2.3502   -1.0716   -6.2039   H         1 RES1   0.0000
   291 H170     -0.7016   -1.6432   -6.0566   H         1 RES1   0.0000
   292 H171     -0.0400    0.4387   -4.9441   H         1 RES1   0.0000
   293 H172     -1.7450    0.9503   -4.8506   H         1 RES1   0.0000
   294 H173     -1.8152    1.0182   -7.3649   H         1 RES1   0.0000
   295 H174     -0.0797    0.7441   -7.3790   H         1 RES1   0.0000
   296 H175      0.1964    2.7887   -5.9223   H         1 RES1   0.0000
   297 H176     -1.5429    3.0582   -6.0198   H         1 RES1   0.0000
   298 H177     -1.3501    3.4221   -8.4629   H         1 RES1   0.0000
   299 H178      0.3876    3.1449   -8.3787   H         1 RES1   0.0000
   300 H179      0.5754    5.0591   -6.7388   H         1 RES1   0.0000
   301 H180     -1.1677    5.3010   -6.8857   H         1 RES1   0.0000
   302 H181     -0.8174    5.7341   -9.3502   H         1 RES1   0.0000
   303 H182      0.9169    5.7046   -9.0659   H         1 RES1   0.0000
   304 H183     -0.6179    7.4680   -7.2070   H         1 RES1   0.0000
   305 H184     -0.6338    7.9859   -8.8862   H         1 RES1   0.0000
   306 H185      1.8132    8.0144   -8.9692   H         1 RES1   0.0000
   307 H186      1.9102    7.3930   -7.3208   H         1 RES1   0.0000
   308 H187      0.5847    9.4461   -6.5735   H         1 RES1   0.0000
   309 H188      0.7220   10.0544   -8.2155   H         1 RES1   0.0000
   310 H189      3.0862    9.4350   -6.3774   H         1 RES1   0.0000
   311 H190      2.4574   11.0422   -6.7490   H         1 RES1   0.0000
   312 H191      3.1996   10.0722   -8.0178   H         1 RES1   0.0000
   313 H192      0.4223   -4.1595   -3.7562   H         1 RES1   0.0000
   314 H193     -0.5192   -3.7010   -5.1835   H         1 RES1   0.0000
   315 H194     -1.4155   -5.7228   -4.2097   H         1 RES1   0.0000
   316 H195     -2.5986   -4.4336   -4.1177   H         1 RES1   0.0000
   317 H196     -1.7544   -4.0606   -1.6778   H         1 RES1   0.0000
   318 H197     -0.9383   -5.6172   -1.8778   H         1 RES1   0.0000
   319 H198     -2.9668   -6.2308   -0.8835   H         1 RES1   0.0000
   320 H199     -3.2967   -6.5089   -2.5822   H         1 RES1   0.0000
   321 H200     -4.3727   -4.2001   -2.6690   H         1 RES1   0.0000
   322 H201     -4.1376   -4.0950   -0.9216   H         1 RES1   0.0000
   323 H202     -5.4523   -6.2709   -0.7254   H         1 RES1   0.0000
   324 H203     -5.8167   -6.1378   -2.4349   H         1 RES1   0.0000
   325 H204     -6.6363   -4.2308   -0.2028   H         1 RES1   0.0000
   326 H205     -7.6773   -5.3034   -1.1282   H         1 RES1   0.0000
   327 H206     -6.2023   -2.8616   -2.2036   H         1 RES1   0.0000
   328 H207     -7.9202   -2.9678   -1.8328   H         1 RES1   0.0000
   329 H208     -8.2715   -4.5766   -3.6319   H         1 RES1   0.0000
   330 H209     -6.5421   -4.6722   -3.9456   H         1 RES1   0.0000
   331 H210     -6.4900   -2.2896   -4.5955   H         1 RES1   0.0000
   332 H211     -8.1954   -2.1281   -4.1786   H         1 RES1   0.0000
   333 H212     -8.0103   -2.3072   -6.5702   H         1 RES1   0.0000
   334 H213     -8.7858   -3.7638   -5.9573   H         1 RES1   0.0000
   335 H214     -5.8431   -3.5388   -6.7545   H         1 RES1   0.0000
   336 H215     -7.1186   -4.2818   -7.7156   H         1 RES1   0.0000
   337 H216     -6.6413   -5.0127   -6.1944   H         1 RES1   0.0000
   338 O9       -0.7123    1.3610   -2.3335   O.3       1 RES1   0.0000
   339 H217     -0.6469    0.6903   -3.0380   H         1 RES1   0.0000
   340 H218     -1.3876    1.9921   -2.6413   H         1 RES1   0.0000
@<TRIPOS>BOND
     1     1    28    1
     2     1    30    1
     3     1    33    1
     4     1    36    1
     5     1   196    1
     6     1   198    1
     7     1   201    1
     8     1   204    1
     9     1   338    1
    10     2     3    1
    11     2    62    1
    12     2    63    1
    13     2    64    1
    14     3     4    1
    15     3    65    1
    16     3    66    1
    17     4     5    1
    18     4    67    1
    19     4    68    1
    20     5     6    1
    21     5    69    1
    22     5    70    1
    23     6     7    1
    24     6    71    1
    25     6    72    1
    26     7     8    1
    27     7    73    1
    28     7    74    1
    29     8     9    1
    30     8    75    1
    31     8    76    1
    32     9    10    1
    33     9    77    1
    34     9    78    1
    35    10    11    1
    36    10    79    1
    37    10    80    1
    38    11    12    1
    39    11    81    1
    40    11    82    1
    41    12    13    1
    42    12    83    1
    43    12    84    1
    44    13    14    1
    45    13    85    1
    46    13    86    1
    47    14    15    1
    48    14    27    1
    49    15    16    1
    50    15    87    1
    51    15    88    1
    52    16    17    1
    53    16    89    1
    54    16    90    1
    55    17    18    1
    56    17    91    1
    57    17    92    1
    58    18    19    1
    59    18    93    1
    60    18    94    1
    61    19    20    1
    62    19    95    1
    63    19    96    1
    64    20    21    1
    65    20    97    1
    66    20    98    1
    67    21    22    1
    68    21    99    1
    69    21   100    1
    70    22    23    1
    71    22   101    1
    72    22   102    1
    73    23    24    1
    74    23   103    1
    75    23   104    1
    76    24    25    1
    77    24   105    1
    78    24   106    1
    79    25    26    1
    80    25   107    1
    81    25   108    1
    82    26   109    1
    83    26   110    1
    84    26   111    1
    85    27    28    2
    86    27    29    1
    87    29    30    1
    88    29   112    1
    89    29   113    1
    90    30    31    1
    91    31    32    1
    92    31   114    1
    93    31   115    1
    94    32    33    1
    95    32   116    1
    96    32   117    1
    97    33    34    1
    98    34    35    1
    99    34   118    1
   100    34   119    1
   101    35    36    2
   102    35    37    1
   103    37    38    1
   104    37    50    1
   105    38    39    1
   106    38   120    1
   107    38   121    1
   108    39    40    1
   109    39   122    1
   110    39   123    1
   111    40    41    1
   112    40   124    1
   113    40   125    1
   114    41    42    1
   115    41   126    1
   116    41   127    1
   117    42    43    1
   118    42   128    1
   119    42   129    1
   120    43    44    1
   121    43   130    1
   122    43   131    1
   123    44    45    1
   124    44   132    1
   125    44   133    1
   126    45    46    1
   127    45   134    1
   128    45   135    1
   129    46    47    1
   130    46   136    1
   131    46   137    1
   132    47    48    1
   133    47   138    1
   134    47   139    1
   135    48    49    1
   136    48   140    1
   137    48   141    1
   138    49   142    1
   139    49   143    1
   140    49   144    1
   141    50    51    1
   142    50   145    1
   143    50   146    1
   144    51    52    1
   145    51   147    1
   146    51   148    1
   147    52    53    1
   148    52   149    1
   149    52   150    1
   150    53    54    1
   151    53   151    1
   152    53   152    1
   153    54    55    1
   154    54   153    1
   155    54   154    1
   156    55    56    1
   157    55   155    1
   158    55   156    1
   159    56    57    1
   160    56   157    1
   161    56   158    1
   162    57    58    1
   163    57   159    1
   164    57   160    1
   165    58    59    1
   166    58   161    1
   167    58   162    1
   168    59    60    1
   169    59   163    1
   170    59   164    1
   171    60    61    1
   172    60   165    1
   173    60   166    1
   174    61   167    1
   175    61   168    1
   176    61   169    1
   177   170   171    1
   178   170   230    1
   179   170   231    1
   180   170   232    1
   181   171   172    1
   182   171   233    1
   183   171   234    1
   184   172   173    1
   185   172   235    1
   186   172   236    1
   187   173   174    1
   188   173   237    1
   189   173   238    1
   190   174   175    1
   191   174   239    1
   192   174   240    1
   193   175   176    1
   194   175   241    1
   195   175   242    1
   196   176   177    1
   197   176   243    1
   198   176   244    1
   199   177   178    1
   200   177   245    1
   201   177   246    1
   202   178   179    1
   203   178   247    1
   204   178   248    1
   205   179   180    1
   206   179   249    1
   207   179   250    1
   208   180   181    1
   209   180   251    1
   210   180   252    1
   211   181   182    1
   212   181   253    1
   213   181   254    1
   214   182   183    1
   215   182   195    1
   216   183   184    1
   217   183   255    1
   218   183   256    1
   219   184   185    1
   220   184   257    1
   221   184   258    1
   222   185   186    1
   223   185   259    1
   224   185   260    1
   225   186   187    1
   226   186   261    1
   227   186   262    1
   228   187   188    1
   229   187   263    1
   230   187   264    1
   231   188   189    1
   232   188   265    1
   233   188   266    1
   234   189   190    1
   235   189   267    1
   236   189   268    1
   237   190   191    1
   238   190   269    1
   239   190   270    1
   240   191   192    1
   241   191   271    1
   242   191   272    1
   243   192   193    1
   244   192   273    1
   245   192   274    1
   246   193   194    1
   247   193   275    1
   248   193   276    1
   249   194   277    1
   250   194   278    1
   251   194   279    1
   252   195   196    2
   253   195   197    1
   254   197   198    1
   255   197   280    1
   256   197   281    1
   257   198   199    1
   258   199   200    1
   259   199   282    1
   260   199   283    1
   261   200   201    1
   262   200   284    1
   263   200   285    1
   264   201   202    1
   265   202   203    1
   266   202   286    1
   267   202   287    1
   268   203   204    2
   269   203   205    1
   270   205   206    1
   271   205   218    1
   272   206   207    1
   273   206   288    1
   274   206   289    1
   275   207   208    1
   276   207   290    1
   277   207   291    1
   278   208   209    1
   279   208   292    1
   280   208   293    1
   281   209   210    1
   282   209   294    1
   283   209   295    1
   284   210   211    1
   285   210   296    1
   286   210   297    1
   287   211   212    1
   288   211   298    1
   289   211   299    1
   290   212   213    1
   291   212   300    1
   292   212   301    1
   293   213   214    1
   294   213   302    1
   295   213   303    1
   296   214   215    1
   297   214   304    1
   298   214   305    1
   299   215   216    1
   300   215   306    1
   301   215   307    1
   302   216   217    1
   303   216   308    1
   304   216   309    1
   305   217   310    1
   306   217   311    1
   307   217   312    1
   308   218   219    1
   309   218   313    1
   310   218   314    1
   311   219   220    1
   312   219   315    1
   313   219   316    1
   314   220   221    1
   315   220   317    1
   316   220   318    1
   317   221   222    1
   318   221   319    1
   319   221   320    1
   320   222   223    1
   321   222   321    1
   322   222   322    1
   323   223   224    1
   324   223   323    1
   325   223   324    1
   326   224   225    1
   327   224   325    1
   328   224   326    1
   329   225   226    1
   330   225   327    1
   331   225   328    1
   332   226   227    1
   333   226   329    1
   334   226   330    1
   335   227   228    1
   336   227   331    1
   337   227   332    1
   338   228   229    1
   339   228   333    1
   340   228   334    1
   341   229   335    1
   342   229   336    1
   343   229   337    1
   344   338   339    1
   345   338   340    1
@<TRIPOS>SUBSTRUCTURE
     1 RES1      340 GROUP             0 ****  ****    0  
